MODEL 1
REMARK VINA RESULT:     -12.5      0.000      0.000
REMARK  Name = 1712
REMARK  5 active torsions:
REMARK  status: ('A' for Active; 'I' for Inactive)
REMARK    1  A    between atoms: C_1  and  N_18
REMARK    2  A    between atoms: C_2  and  S_7
REMARK    3  A    between atoms: S_7  and  N_10
REMARK    4  A    between atoms: N_18  and  C_20
REMARK    5  A    between atoms: C_20  and  C_26
REMARK                            x       y       z     vdW  Elec       q    Type
REMARK                         _______ _______ _______ _____ _____    ______ ____
ROOT
ATOM      1  C   UNL     1      35.530 -19.986 -21.149  0.00  0.00    +0.045 C 
ATOM      2  C   UNL     1      34.545 -21.937 -19.378  0.00  0.00    +0.125 C 
ATOM      3  C   UNL     1      34.147 -20.191 -21.000  0.00  0.00    +0.016 C 
ATOM      4  C   UNL     1      36.409 -20.781 -20.391  0.00  0.00    +0.016 C 
ATOM      5  C   UNL     1      33.658 -21.158 -20.122  0.00  0.00    +0.021 C 
ATOM      6  C   UNL     1      35.920 -21.748 -19.513  0.00  0.00    +0.021 C 
ENDROOT
BRANCH   2   7
ATOM      7  S   UNL     1      33.934 -23.148 -18.279  0.00  0.00    +0.075 S 
ATOM      8  O   UNL     1      34.821 -23.188 -17.122  0.00  0.00    -0.150 OA
ATOM      9  O   UNL     1      33.696 -24.378 -19.026  0.00  0.00    -0.150 OA
BRANCH   7  10
ATOM     10  N   UNL     1      32.427 -22.480 -17.775  0.00  0.00    -0.199 N 
ATOM     11  H   UNL     1      32.012 -21.737 -18.268  0.00  0.00    +0.175 HD
ATOM     12  N   UNL     1      32.432 -22.835 -15.443  0.00  0.00    -0.228 NA
ATOM     13  C   UNL     1      31.795 -23.042 -16.611  0.00  0.00    +0.147 C 
ATOM     14  C   UNL     1      30.609 -23.737 -16.751  0.00  0.00    +0.036 C 
ATOM     15  C   UNL     1      30.033 -24.262 -15.599  0.00  0.00    +0.005 C 
ATOM     16  C   UNL     1      31.843 -23.361 -14.345  0.00  0.00    +0.100 C 
ATOM     17  C   UNL     1      30.656 -24.074 -14.370  0.00  0.00    +0.021 C 
ENDBRANCH   7  10
ENDBRANCH   2   7
BRANCH   1  18
ATOM     18  N   UNL     1      36.016 -19.023 -22.022  0.00  0.00    -0.328 N 
ATOM     19  H   UNL     1      36.723 -19.286 -22.655  0.00  0.00    +0.147 HD
BRANCH  18  20
ATOM     20  C   UNL     1      35.549 -17.660 -22.053  0.00  0.00    +0.127 C 
BRANCH  20  26
ATOM     21  S   UNL     1      34.554 -14.192 -22.032  0.00  0.00    -0.104 S 
ATOM     22  O   UNL     1      35.515 -19.503 -24.343  0.00  0.00    -0.210 OA
ATOM     23  N   UNL     1      34.694 -17.788 -25.687  0.00  0.00    -0.333 NA
ATOM     24  N   UNL     1      33.653 -12.686 -23.943  0.00  0.00    -0.262 NA
ATOM     25  C   UNL     1      34.654 -16.205 -23.995  0.00  0.00    +0.033 C 
ATOM     26  C   UNL     1      35.113 -17.318 -23.428  0.00  0.00    +0.092 C 
ATOM     27  C   UNL     1      34.410 -16.560 -25.403  0.00  0.00    +0.142 C 
ATOM     28  C   UNL     1      34.381 -14.896 -23.571  0.00  0.00    +0.114 C 
ATOM     29  C   UNL     1      35.144 -18.350 -24.510  0.00  0.00    +0.202 C 
ATOM     30  C   UNL     1      33.891 -13.939 -24.446  0.00  0.00    +0.069 C 
ATOM     31  C   UNL     1      33.885 -15.504 -26.310  0.00  0.00    +0.034 C 
ATOM     32  C   UNL     1      33.650 -14.271 -25.817  0.00  0.00    +0.018 C 
ATOM     33  C   UNL     1      33.969 -12.701 -22.665  0.00  0.00    +0.183 C 
ENDBRANCH  20  26
ENDBRANCH  18  20
ENDBRANCH   1  18
TORSDOF 5
ENDMDL
MODEL 2
REMARK VINA RESULT:     -12.0      2.435     10.313
REMARK  Name = 1712
REMARK  5 active torsions:
REMARK  status: ('A' for Active; 'I' for Inactive)
REMARK    1  A    between atoms: C_1  and  N_18
REMARK    2  A    between atoms: C_2  and  S_7
REMARK    3  A    between atoms: S_7  and  N_10
REMARK    4  A    between atoms: N_18  and  C_20
REMARK    5  A    between atoms: C_20  and  C_26
REMARK                            x       y       z     vdW  Elec       q    Type
REMARK                         _______ _______ _______ _____ _____    ______ ____
ROOT
ATOM      1  C   UNL     1      35.582 -19.102 -21.589  0.00  0.00    +0.045 C 
ATOM      2  C   UNL     1      34.925 -17.660 -23.914  0.00  0.00    +0.125 C 
ATOM      3  C   UNL     1      35.645 -17.697 -21.608  0.00  0.00    +0.016 C 
ATOM      4  C   UNL     1      35.184 -19.768 -22.762  0.00  0.00    +0.016 C 
ATOM      5  C   UNL     1      35.319 -16.982 -22.760  0.00  0.00    +0.021 C 
ATOM      6  C   UNL     1      34.858 -19.053 -23.914  0.00  0.00    +0.021 C 
ENDROOT
BRANCH   2   7
ATOM      7  S   UNL     1      34.519 -16.765 -25.356  0.00  0.00    +0.075 S 
ATOM      8  O   UNL     1      33.748 -17.648 -26.225  0.00  0.00    -0.150 OA
ATOM      9  O   UNL     1      35.731 -16.148 -25.880  0.00  0.00    -0.150 OA
BRANCH   7  10
ATOM     10  N   UNL     1      33.459 -15.543 -24.762  0.00  0.00    -0.199 N 
ATOM     11  H   UNL     1      32.683 -15.774 -24.202  0.00  0.00    +0.175 HD
ATOM     12  N   UNL     1      33.597 -13.860 -26.408  0.00  0.00    -0.228 NA
ATOM     13  C   UNL     1      33.743 -14.176 -25.107  0.00  0.00    +0.147 C 
ATOM     14  C   UNL     1      34.135 -13.293 -24.120  0.00  0.00    +0.036 C 
ATOM     15  C   UNL     1      34.398 -11.981 -24.499  0.00  0.00    +0.005 C 
ATOM     16  C   UNL     1      33.863 -12.576 -26.740  0.00  0.00    +0.100 C 
ATOM     17  C   UNL     1      34.262 -11.608 -25.832  0.00  0.00    +0.021 C 
ENDBRANCH   7  10
ENDBRANCH   2   7
BRANCH   1  18
ATOM     18  N   UNL     1      35.905 -19.813 -20.443  0.00  0.00    -0.328 N 
ATOM     19  H   UNL     1      36.090 -19.306 -19.619  0.00  0.00    +0.147 HD
BRANCH  18  20
ATOM     20  C   UNL     1      35.989 -21.251 -20.388  0.00  0.00    +0.127 C 
BRANCH  20  26
ATOM     21  S   UNL     1      37.652 -22.294 -17.361  0.00  0.00    -0.104 S 
ATOM     22  O   UNL     1      33.111 -21.393 -20.972  0.00  0.00    -0.210 OA
ATOM     23  N   UNL     1      32.749 -22.317 -18.865  0.00  0.00    -0.333 NA
ATOM     24  N   UNL     1      36.695 -23.328 -15.183  0.00  0.00    -0.262 NA
ATOM     25  C   UNL     1      34.980 -22.280 -18.241  0.00  0.00    +0.033 C 
ATOM     26  C   UNL     1      34.948 -21.772 -19.471  0.00  0.00    +0.092 C 
ATOM     27  C   UNL     1      33.580 -22.601 -17.918  0.00  0.00    +0.142 C 
ATOM     28  C   UNL     1      35.972 -22.547 -17.285  0.00  0.00    +0.114 C 
ATOM     29  C   UNL     1      33.512 -21.790 -19.887  0.00  0.00    +0.202 C 
ATOM     30  C   UNL     1      35.660 -23.101 -16.053  0.00  0.00    +0.069 C 
ATOM     31  C   UNL     1      33.288 -23.194 -16.585  0.00  0.00    +0.034 C 
ATOM     32  C   UNL     1      34.303 -23.418 -15.727  0.00  0.00    +0.018 C 
ATOM     33  C   UNL     1      37.806 -22.936 -15.771  0.00  0.00    +0.183 C 
ENDBRANCH  20  26
ENDBRANCH  18  20
ENDBRANCH   1  18
TORSDOF 5
ENDMDL
MODEL 3
REMARK VINA RESULT:     -11.8      2.400     10.511
REMARK  Name = 1712
REMARK  5 active torsions:
REMARK  status: ('A' for Active; 'I' for Inactive)
REMARK    1  A    between atoms: C_1  and  N_18
REMARK    2  A    between atoms: C_2  and  S_7
REMARK    3  A    between atoms: S_7  and  N_10
REMARK    4  A    between atoms: N_18  and  C_20
REMARK    5  A    between atoms: C_20  and  C_26
REMARK                            x       y       z     vdW  Elec       q    Type
REMARK                         _______ _______ _______ _____ _____    ______ ____
ROOT
ATOM      1  C   UNL     1      33.912 -21.803 -19.674  0.00  0.00    +0.045 C 
ATOM      2  C   UNL     1      35.499 -19.825 -20.894  0.00  0.00    +0.125 C 
ATOM      3  C   UNL     1      35.313 -21.818 -19.541  0.00  0.00    +0.016 C 
ATOM      4  C   UNL     1      33.325 -20.774 -20.433  0.00  0.00    +0.016 C 
ATOM      5  C   UNL     1      36.099 -20.837 -20.145  0.00  0.00    +0.021 C 
ATOM      6  C   UNL     1      34.111 -19.793 -21.037  0.00  0.00    +0.021 C 
ENDROOT
BRANCH   2   7
ATOM      7  S   UNL     1      36.483 -18.598 -21.651  0.00  0.00    +0.075 S 
ATOM      8  O   UNL     1      37.854 -18.777 -21.186  0.00  0.00    -0.150 OA
ATOM      9  O   UNL     1      35.841 -17.303 -21.462  0.00  0.00    -0.150 OA
BRANCH   7  10
ATOM     10  N   UNL     1      36.421 -19.034 -23.317  0.00  0.00    -0.199 N 
ATOM     11  H   UNL     1      36.985 -19.759 -23.671  0.00  0.00    +0.175 HD
ATOM     12  N   UNL     1      35.834 -17.013 -24.383  0.00  0.00    -0.228 NA
ATOM     13  C   UNL     1      35.523 -18.307 -24.173  0.00  0.00    +0.147 C 
ATOM     14  C   UNL     1      34.429 -18.953 -24.715  0.00  0.00    +0.036 C 
ATOM     15  C   UNL     1      33.588 -18.212 -25.538  0.00  0.00    +0.005 C 
ATOM     16  C   UNL     1      34.994 -16.324 -25.188  0.00  0.00    +0.100 C 
ATOM     17  C   UNL     1      33.869 -16.872 -25.783  0.00  0.00    +0.021 C 
ENDBRANCH   7  10
ENDBRANCH   2   7
BRANCH   1  18
ATOM     18  N   UNL     1      33.130 -22.777 -19.073  0.00  0.00    -0.328 N 
ATOM     19  H   UNL     1      32.174 -22.814 -19.305  0.00  0.00    +0.147 HD
BRANCH  18  20
ATOM     20  C   UNL     1      33.635 -23.739 -18.124  0.00  0.00    +0.127 C 
BRANCH  20  26
ATOM     21  S   UNL     1      35.953 -24.863 -15.598  0.00  0.00    -0.104 S 
ATOM     22  O   UNL     1      30.961 -22.594 -17.697  0.00  0.00    -0.210 OA
ATOM     23  N   UNL     1      31.253 -22.821 -15.397  0.00  0.00    -0.333 NA
ATOM     24  N   UNL     1      35.747 -24.887 -13.013  0.00  0.00    -0.262 NA
ATOM     25  C   UNL     1      33.374 -23.739 -15.551  0.00  0.00    +0.033 C 
ATOM     26  C   UNL     1      32.992 -23.517 -16.806  0.00  0.00    +0.092 C 
ATOM     27  C   UNL     1      32.249 -23.285 -14.718  0.00  0.00    +0.142 C 
ATOM     28  C   UNL     1      34.513 -24.264 -14.920  0.00  0.00    +0.114 C 
ATOM     29  C   UNL     1      31.623 -22.924 -16.723  0.00  0.00    +0.202 C 
ATOM     30  C   UNL     1      34.596 -24.361 -13.540  0.00  0.00    +0.069 C 
ATOM     31  C   UNL     1      32.378 -23.406 -13.241  0.00  0.00    +0.034 C 
ATOM     32  C   UNL     1      33.508 -23.923 -12.719  0.00  0.00    +0.018 C 
ATOM     33  C   UNL     1      36.544 -25.192 -14.015  0.00  0.00    +0.183 C 
ENDBRANCH  20  26
ENDBRANCH  18  20
ENDBRANCH   1  18
TORSDOF 5
ENDMDL
MODEL 4
REMARK VINA RESULT:     -11.8      1.869      2.385
REMARK  Name = 1712
REMARK  5 active torsions:
REMARK  status: ('A' for Active; 'I' for Inactive)
REMARK    1  A    between atoms: C_1  and  N_18
REMARK    2  A    between atoms: C_2  and  S_7
REMARK    3  A    between atoms: S_7  and  N_10
REMARK    4  A    between atoms: N_18  and  C_20
REMARK    5  A    between atoms: C_20  and  C_26
REMARK                            x       y       z     vdW  Elec       q    Type
REMARK                         _______ _______ _______ _____ _____    ______ ____
ROOT
ATOM      1  C   UNL     1      35.360 -20.264 -20.999  0.00  0.00    +0.045 C 
ATOM      2  C   UNL     1      34.155 -21.985 -19.127  0.00  0.00    +0.125 C 
ATOM      3  C   UNL     1      36.143 -21.079 -20.160  0.00  0.00    +0.016 C 
ATOM      4  C   UNL     1      33.960 -20.330 -20.877  0.00  0.00    +0.016 C 
ATOM      5  C   UNL     1      35.545 -21.932 -19.233  0.00  0.00    +0.021 C 
ATOM      6  C   UNL     1      33.363 -21.183 -19.949  0.00  0.00    +0.021 C 
ENDROOT
BRANCH   2   7
ATOM      7  S   UNL     1      33.408 -23.051 -17.965  0.00  0.00    +0.075 S 
ATOM      8  O   UNL     1      33.905 -24.400 -18.214  0.00  0.00    -0.150 OA
ATOM      9  O   UNL     1      31.969 -22.820 -17.977  0.00  0.00    -0.150 OA
BRANCH   7  10
ATOM     10  N   UNL     1      34.066 -22.507 -16.468  0.00  0.00    -0.199 N 
ATOM     11  H   UNL     1      33.911 -21.589 -16.151  0.00  0.00    +0.175 HD
ATOM     12  N   UNL     1      36.028 -23.797 -16.238  0.00  0.00    -0.228 NA
ATOM     13  C   UNL     1      34.849 -23.435 -15.696  0.00  0.00    +0.147 C 
ATOM     14  C   UNL     1      34.366 -23.887 -14.484  0.00  0.00    +0.036 C 
ATOM     15  C   UNL     1      35.156 -24.783 -13.772  0.00  0.00    +0.005 C 
ATOM     16  C   UNL     1      36.768 -24.670 -15.518  0.00  0.00    +0.100 C 
ATOM     17  C   UNL     1      36.382 -25.186 -14.292  0.00  0.00    +0.021 C 
ENDBRANCH   7  10
ENDBRANCH   2   7
BRANCH   1  18
ATOM     18  N   UNL     1      35.954 -19.417 -21.922  0.00  0.00    -0.328 N 
ATOM     19  H   UNL     1      36.579 -19.807 -22.576  0.00  0.00    +0.147 HD
BRANCH  18  20
ATOM     20  C   UNL     1      35.711 -17.997 -21.980  0.00  0.00    +0.127 C 
BRANCH  20  26
ATOM     21  S   UNL     1      34.808 -14.505 -21.887  0.00  0.00    -0.104 S 
ATOM     22  O   UNL     1      35.511 -19.822 -24.275  0.00  0.00    -0.210 OA
ATOM     23  N   UNL     1      34.666 -18.077 -25.565  0.00  0.00    -0.333 NA
ATOM     24  N   UNL     1      33.849 -12.963 -23.739  0.00  0.00    -0.262 NA
ATOM     25  C   UNL     1      34.754 -16.506 -23.864  0.00  0.00    +0.033 C 
ATOM     26  C   UNL     1      35.213 -17.635 -23.328  0.00  0.00    +0.092 C 
ATOM     27  C   UNL     1      34.429 -16.844 -25.259  0.00  0.00    +0.142 C 
ATOM     28  C   UNL     1      34.537 -15.193 -23.419  0.00  0.00    +0.114 C 
ATOM     29  C   UNL     1      35.162 -18.659 -24.416  0.00  0.00    +0.202 C 
ATOM     30  C   UNL     1      34.028 -14.218 -24.261  0.00  0.00    +0.069 C 
ATOM     31  C   UNL     1      33.885 -15.769 -26.131  0.00  0.00    +0.034 C 
ATOM     32  C   UNL     1      33.707 -14.534 -25.620  0.00  0.00    +0.018 C 
ATOM     33  C   UNL     1      34.230 -12.995 -22.480  0.00  0.00    +0.183 C 
ENDBRANCH  20  26
ENDBRANCH  18  20
ENDBRANCH   1  18
TORSDOF 5
ENDMDL
MODEL 5
REMARK VINA RESULT:     -11.7      5.925     12.439
REMARK  Name = 1712
REMARK  5 active torsions:
REMARK  status: ('A' for Active; 'I' for Inactive)
REMARK    1  A    between atoms: C_1  and  N_18
REMARK    2  A    between atoms: C_2  and  S_7
REMARK    3  A    between atoms: S_7  and  N_10
REMARK    4  A    between atoms: N_18  and  C_20
REMARK    5  A    between atoms: C_20  and  C_26
REMARK                            x       y       z     vdW  Elec       q    Type
REMARK                         _______ _______ _______ _____ _____    ______ ____
ROOT
ATOM      1  C   UNL     1      33.022 -12.004 -22.981  0.00  0.00    +0.045 C 
ATOM      2  C   UNL     1      32.401  -9.285 -22.611  0.00  0.00    +0.125 C 
ATOM      3  C   UNL     1      33.549 -11.021 -23.838  0.00  0.00    +0.016 C 
ATOM      4  C   UNL     1      32.176 -11.594 -21.935  0.00  0.00    +0.016 C 
ATOM      5  C   UNL     1      33.241  -9.673 -23.655  0.00  0.00    +0.021 C 
ATOM      6  C   UNL     1      31.868 -10.246 -21.751  0.00  0.00    +0.021 C 
ENDROOT
BRANCH   2   7
ATOM      7  S   UNL     1      32.015  -7.598 -22.383  0.00  0.00    +0.075 S 
ATOM      8  O   UNL     1      31.758  -7.389 -20.962  0.00  0.00    -0.150 OA
ATOM      9  O   UNL     1      30.988  -7.220 -23.345  0.00  0.00    -0.150 OA
BRANCH   7  10
ATOM     10  N   UNL     1      33.495  -6.810 -22.780  0.00  0.00    -0.199 N 
ATOM     11  H   UNL     1      34.305  -6.952 -22.239  0.00  0.00    +0.175 HD
ATOM     12  N   UNL     1      32.784  -4.811 -23.811  0.00  0.00    -0.228 NA
ATOM     13  C   UNL     1      33.512  -5.939 -23.924  0.00  0.00    +0.147 C 
ATOM     14  C   UNL     1      34.247  -6.295 -25.038  0.00  0.00    +0.036 C 
ATOM     15  C   UNL     1      34.235  -5.423 -26.121  0.00  0.00    +0.005 C 
ATOM     16  C   UNL     1      32.795  -3.989 -24.884  0.00  0.00    +0.100 C 
ATOM     17  C   UNL     1      33.498  -4.246 -26.050  0.00  0.00    +0.021 C 
ENDBRANCH   7  10
ENDBRANCH   2   7
BRANCH   1  18
ATOM     18  N   UNL     1      33.329 -13.345 -23.162  0.00  0.00    -0.328 N 
ATOM     19  H   UNL     1      32.636 -14.012 -22.951  0.00  0.00    +0.147 HD
BRANCH  18  20
ATOM     20  C   UNL     1      34.604 -13.818 -23.641  0.00  0.00    +0.127 C 
BRANCH  20  26
ATOM     21  S   UNL     1      35.631 -16.729 -21.774  0.00  0.00    -0.104 S 
ATOM     22  O   UNL     1      33.550 -13.749 -26.385  0.00  0.00    -0.210 OA
ATOM     23  N   UNL     1      33.752 -16.066 -26.500  0.00  0.00    -0.333 NA
ATOM     24  N   UNL     1      35.645 -19.237 -22.436  0.00  0.00    -0.262 NA
ATOM     25  C   UNL     1      34.597 -16.303 -24.356  0.00  0.00    +0.033 C 
ATOM     26  C   UNL     1      34.397 -14.997 -24.515  0.00  0.00    +0.092 C 
ATOM     27  C   UNL     1      34.178 -16.917 -25.626  0.00  0.00    +0.142 C 
ATOM     28  C   UNL     1      35.077 -17.133 -23.331  0.00  0.00    +0.114 C 
ATOM     29  C   UNL     1      33.851 -14.829 -25.897  0.00  0.00    +0.202 C 
ATOM     30  C   UNL     1      35.163 -18.507 -23.491  0.00  0.00    +0.069 C 
ATOM     31  C   UNL     1      34.285 -18.395 -25.758  0.00  0.00    +0.034 C 
ATOM     32  C   UNL     1      34.759 -19.116 -24.722  0.00  0.00    +0.018 C 
ATOM     33  C   UNL     1      35.928 -18.397 -21.464  0.00  0.00    +0.183 C 
ENDBRANCH  20  26
ENDBRANCH  18  20
ENDBRANCH   1  18
TORSDOF 5
ENDMDL
MODEL 6
REMARK VINA RESULT:     -11.5      3.761      6.689
REMARK  Name = 1712
REMARK  5 active torsions:
REMARK  status: ('A' for Active; 'I' for Inactive)
REMARK    1  A    between atoms: C_1  and  N_18
REMARK    2  A    between atoms: C_2  and  S_7
REMARK    3  A    between atoms: S_7  and  N_10
REMARK    4  A    between atoms: N_18  and  C_20
REMARK    5  A    between atoms: C_20  and  C_26
REMARK                            x       y       z     vdW  Elec       q    Type
REMARK                         _______ _______ _______ _____ _____    ______ ____
ROOT
ATOM      1  C   UNL     1      34.573 -14.263 -23.325  0.00  0.00    +0.045 C 
ATOM      2  C   UNL     1      35.342 -16.934 -22.885  0.00  0.00    +0.125 C 
ATOM      3  C   UNL     1      34.650 -15.177 -24.392  0.00  0.00    +0.016 C 
ATOM      4  C   UNL     1      34.891 -14.718 -22.032  0.00  0.00    +0.016 C 
ATOM      5  C   UNL     1      35.031 -16.500 -24.174  0.00  0.00    +0.021 C 
ATOM      6  C   UNL     1      35.272 -16.042 -21.814  0.00  0.00    +0.021 C 
ENDROOT
BRANCH   2   7
ATOM      7  S   UNL     1      35.820 -18.590 -22.612  0.00  0.00    +0.075 S 
ATOM      8  O   UNL     1      37.278 -18.640 -22.620  0.00  0.00    -0.150 OA
ATOM      9  O   UNL     1      35.083 -19.446 -23.532  0.00  0.00    -0.150 OA
BRANCH   7  10
ATOM     10  N   UNL     1      35.285 -18.881 -20.999  0.00  0.00    -0.199 N 
ATOM     11  H   UNL     1      35.162 -18.139 -20.365  0.00  0.00    +0.175 HD
ATOM     12  N   UNL     1      36.100 -21.047 -20.542  0.00  0.00    -0.228 NA
ATOM     13  C   UNL     1      35.023 -20.240 -20.609  0.00  0.00    +0.147 C 
ATOM     14  C   UNL     1      33.727 -20.631 -20.334  0.00  0.00    +0.036 C 
ATOM     15  C   UNL     1      33.521 -21.954 -19.959  0.00  0.00    +0.005 C 
ATOM     16  C   UNL     1      35.861 -22.326 -20.175  0.00  0.00    +0.100 C 
ATOM     17  C   UNL     1      34.603 -22.824 -19.876  0.00  0.00    +0.021 C 
ENDBRANCH   7  10
ENDBRANCH   2   7
BRANCH   1  18
ATOM     18  N   UNL     1      34.193 -12.947 -23.542  0.00  0.00    -0.328 N 
ATOM     19  H   UNL     1      34.901 -12.277 -23.683  0.00  0.00    +0.147 HD
BRANCH  18  20
ATOM     20  C   UNL     1      32.822 -12.502 -23.570  0.00  0.00    +0.127 C 
BRANCH  20  26
ATOM     21  S   UNL     1      33.174  -8.925 -23.879  0.00  0.00    -0.104 S 
ATOM     22  O   UNL     1      31.994 -14.006 -21.183  0.00  0.00    -0.210 OA
ATOM     23  N   UNL     1      31.783 -12.001 -20.017  0.00  0.00    -0.333 NA
ATOM     24  N   UNL     1      32.783  -7.037 -22.143  0.00  0.00    -0.262 NA
ATOM     25  C   UNL     1      32.418 -10.662 -21.798  0.00  0.00    +0.033 C 
ATOM     26  C   UNL     1      32.467 -11.910 -22.258  0.00  0.00    +0.092 C 
ATOM     27  C   UNL     1      31.985 -10.782 -20.397  0.00  0.00    +0.142 C 
ATOM     28  C   UNL     1      32.668  -9.384 -22.321  0.00  0.00    +0.114 C 
ATOM     29  C   UNL     1      32.060 -12.786 -21.117  0.00  0.00    +0.202 C 
ATOM     30  C   UNL     1      32.516  -8.243 -21.548  0.00  0.00    +0.069 C 
ATOM     31  C   UNL     1      31.833  -9.534 -19.602  0.00  0.00    +0.034 C 
ATOM     32  C   UNL     1      32.095  -8.347 -20.184  0.00  0.00    +0.018 C 
ATOM     33  C   UNL     1      33.144  -7.275 -23.386  0.00  0.00    +0.183 C 
ENDBRANCH  20  26
ENDBRANCH  18  20
ENDBRANCH   1  18
TORSDOF 5
ENDMDL
MODEL 7
REMARK VINA RESULT:     -11.4      2.291     10.513
REMARK  Name = 1712
REMARK  5 active torsions:
REMARK  status: ('A' for Active; 'I' for Inactive)
REMARK    1  A    between atoms: C_1  and  N_18
REMARK    2  A    between atoms: C_2  and  S_7
REMARK    3  A    between atoms: S_7  and  N_10
REMARK    4  A    between atoms: N_18  and  C_20
REMARK    5  A    between atoms: C_20  and  C_26
REMARK                            x       y       z     vdW  Elec       q    Type
REMARK                         _______ _______ _______ _____ _____    ______ ____
ROOT
ATOM      1  C   UNL     1      34.671 -21.869 -19.588  0.00  0.00    +0.045 C 
ATOM      2  C   UNL     1      35.888 -19.762 -21.002  0.00  0.00    +0.125 C 
ATOM      3  C   UNL     1      36.066 -21.690 -19.557  0.00  0.00    +0.016 C 
ATOM      4  C   UNL     1      33.900 -20.969 -20.346  0.00  0.00    +0.016 C 
ATOM      5  C   UNL     1      36.669 -20.646 -20.257  0.00  0.00    +0.021 C 
ATOM      6  C   UNL     1      34.503 -19.924 -21.046  0.00  0.00    +0.021 C 
ENDROOT
BRANCH   2   7
ATOM      7  S   UNL     1      36.642 -18.456 -21.880  0.00  0.00    +0.075 S 
ATOM      8  O   UNL     1      38.067 -18.476 -21.570  0.00  0.00    -0.150 OA
ATOM      9  O   UNL     1      35.888 -17.233 -21.636  0.00  0.00    -0.150 OA
BRANCH   7  10
ATOM     10  N   UNL     1      36.446 -18.936 -23.523  0.00  0.00    -0.199 N 
ATOM     11  H   UNL     1      36.980 -19.671 -23.903  0.00  0.00    +0.175 HD
ATOM     12  N   UNL     1      35.772 -16.945 -24.592  0.00  0.00    -0.228 NA
ATOM     13  C   UNL     1      35.480 -18.232 -24.323  0.00  0.00    +0.147 C 
ATOM     14  C   UNL     1      34.347 -18.891 -24.756  0.00  0.00    +0.036 C 
ATOM     15  C   UNL     1      33.440 -18.172 -25.527  0.00  0.00    +0.005 C 
ATOM     16  C   UNL     1      34.867 -16.277 -25.343  0.00  0.00    +0.100 C 
ATOM     17  C   UNL     1      33.699 -16.839 -25.831  0.00  0.00    +0.021 C 
ENDBRANCH   7  10
ENDBRANCH   2   7
BRANCH   1  18
ATOM     18  N   UNL     1      34.071 -22.907 -18.891  0.00  0.00    -0.328 N 
ATOM     19  H   UNL     1      34.490 -23.798 -18.933  0.00  0.00    +0.147 HD
BRANCH  18  20
ATOM     20  C   UNL     1      32.869 -22.759 -18.109  0.00  0.00    +0.127 C 
BRANCH  20  26
ATOM     21  S   UNL     1      29.584 -23.618 -16.889  0.00  0.00    -0.104 S 
ATOM     22  O   UNL     1      35.444 -23.263 -16.784  0.00  0.00    -0.210 OA
ATOM     23  N   UNL     1      34.313 -24.263 -15.010  0.00  0.00    -0.333 NA
ATOM     24  N   UNL     1      28.857 -24.804 -14.699  0.00  0.00    -0.262 NA
ATOM     25  C   UNL     1      32.202 -23.944 -15.910  0.00  0.00    +0.033 C 
ATOM     26  C   UNL     1      33.047 -23.425 -16.797  0.00  0.00    +0.092 C 
ATOM     27  C   UNL     1      33.049 -24.450 -14.818  0.00  0.00    +0.142 C 
ATOM     28  C   UNL     1      30.810 -24.093 -15.809  0.00  0.00    +0.114 C 
ATOM     29  C   UNL     1      34.416 -23.624 -16.229  0.00  0.00    +0.202 C 
ATOM     30  C   UNL     1      30.225 -24.703 -14.711  0.00  0.00    +0.069 C 
ATOM     31  C   UNL     1      32.382 -25.099 -13.657  0.00  0.00    +0.034 C 
ATOM     32  C   UNL     1      31.038 -25.199 -13.643  0.00  0.00    +0.018 C 
ATOM     33  C   UNL     1      28.406 -24.258 -15.809  0.00  0.00    +0.183 C 
ENDBRANCH  20  26
ENDBRANCH  18  20
ENDBRANCH   1  18
TORSDOF 5
ENDMDL
MODEL 8
REMARK VINA RESULT:     -11.3      3.699      6.699
REMARK  Name = 1712
REMARK  5 active torsions:
REMARK  status: ('A' for Active; 'I' for Inactive)
REMARK    1  A    between atoms: C_1  and  N_18
REMARK    2  A    between atoms: C_2  and  S_7
REMARK    3  A    between atoms: S_7  and  N_10
REMARK    4  A    between atoms: N_18  and  C_20
REMARK    5  A    between atoms: C_20  and  C_26
REMARK                            x       y       z     vdW  Elec       q    Type
REMARK                         _______ _______ _______ _____ _____    ______ ____
ROOT
ATOM      1  C   UNL     1      34.598 -14.506 -23.976  0.00  0.00    +0.045 C 
ATOM      2  C   UNL     1      35.366 -17.107 -23.225  0.00  0.00    +0.125 C 
ATOM      3  C   UNL     1      34.830 -14.828 -22.626  0.00  0.00    +0.016 C 
ATOM      4  C   UNL     1      34.759 -15.518 -24.940  0.00  0.00    +0.016 C 
ATOM      5  C   UNL     1      35.211 -16.118 -22.254  0.00  0.00    +0.021 C 
ATOM      6  C   UNL     1      35.139 -16.807 -24.568  0.00  0.00    +0.021 C 
ENDROOT
BRANCH   2   7
ATOM      7  S   UNL     1      35.841 -18.721 -22.759  0.00  0.00    +0.075 S 
ATOM      8  O   UNL     1      37.296 -18.749 -22.672  0.00  0.00    -0.150 OA
ATOM      9  O   UNL     1      35.171 -19.676 -23.633  0.00  0.00    -0.150 OA
BRANCH   7  10
ATOM     10  N   UNL     1      35.207 -18.860 -21.162  0.00  0.00    -0.199 N 
ATOM     11  H   UNL     1      35.033 -18.060 -20.615  0.00  0.00    +0.175 HD
ATOM     12  N   UNL     1      36.023 -20.950 -20.436  0.00  0.00    -0.228 NA
ATOM     13  C   UNL     1      34.941 -20.178 -20.652  0.00  0.00    +0.147 C 
ATOM     14  C   UNL     1      33.636 -20.566 -20.420  0.00  0.00    +0.036 C 
ATOM     15  C   UNL     1      33.426 -21.849 -19.927  0.00  0.00    +0.005 C 
ATOM     16  C   UNL     1      35.780 -22.191 -19.957  0.00  0.00    +0.100 C 
ATOM     17  C   UNL     1      34.513 -22.683 -19.688  0.00  0.00    +0.021 C 
ENDBRANCH   7  10
ENDBRANCH   2   7
BRANCH   1  18
ATOM     18  N   UNL     1      34.221 -13.224 -24.346  0.00  0.00    -0.328 N 
ATOM     19  H   UNL     1      34.767 -12.756 -25.018  0.00  0.00    +0.147 HD
BRANCH  18  20
ATOM     20  C   UNL     1      33.076 -12.536 -23.802  0.00  0.00    +0.127 C 
BRANCH  20  26
ATOM     21  S   UNL     1      31.491 -11.526 -20.723  0.00  0.00    -0.104 S 
ATOM     22  O   UNL     1      34.739 -10.878 -25.571  0.00  0.00    -0.210 OA
ATOM     23  N   UNL     1      34.445  -9.076 -24.125  0.00  0.00    -0.333 NA
ATOM     24  N   UNL     1      31.496  -9.241 -19.495  0.00  0.00    -0.262 NA
ATOM     25  C   UNL     1      33.116 -10.235 -22.623  0.00  0.00    +0.033 C 
ATOM     26  C   UNL     1      33.417 -11.111 -23.579  0.00  0.00    +0.092 C 
ATOM     27  C   UNL     1      33.784  -8.985 -23.019  0.00  0.00    +0.142 C 
ATOM     28  C   UNL     1      32.368 -10.255 -21.436  0.00  0.00    +0.114 C 
ATOM     29  C   UNL     1      34.276 -10.376 -24.557  0.00  0.00    +0.202 C 
ATOM     30  C   UNL     1      32.248  -9.129 -20.637  0.00  0.00    +0.069 C 
ATOM     31  C   UNL     1      33.632  -7.799 -22.133  0.00  0.00    +0.034 C 
ATOM     32  C   UNL     1      32.893  -7.907 -21.010  0.00  0.00    +0.018 C 
ATOM     33  C   UNL     1      31.041 -10.475 -19.436  0.00  0.00    +0.183 C 
ENDBRANCH  20  26
ENDBRANCH  18  20
ENDBRANCH   1  18
TORSDOF 5
ENDMDL
MODEL 9
REMARK VINA RESULT:     -11.1      5.842     12.305
REMARK  Name = 1712
REMARK  5 active torsions:
REMARK  status: ('A' for Active; 'I' for Inactive)
REMARK    1  A    between atoms: C_1  and  N_18
REMARK    2  A    between atoms: C_2  and  S_7
REMARK    3  A    between atoms: S_7  and  N_10
REMARK    4  A    between atoms: N_18  and  C_20
REMARK    5  A    between atoms: C_20  and  C_26
REMARK                            x       y       z     vdW  Elec       q    Type
REMARK                         _______ _______ _______ _____ _____    ______ ____
ROOT
ATOM      1  C   UNL     1      33.047 -12.055 -23.263  0.00  0.00    +0.045 C 
ATOM      2  C   UNL     1      32.716  -9.402 -22.385  0.00  0.00    +0.125 C 
ATOM      3  C   UNL     1      32.314 -11.767 -22.097  0.00  0.00    +0.016 C 
ATOM      4  C   UNL     1      33.612 -10.983 -23.978  0.00  0.00    +0.016 C 
ATOM      5  C   UNL     1      32.150 -10.452 -21.662  0.00  0.00    +0.021 C 
ATOM      6  C   UNL     1      33.448  -9.668 -23.543  0.00  0.00    +0.021 C 
ENDROOT
BRANCH   2   7
ATOM      7  S   UNL     1      32.512  -7.757 -21.840  0.00  0.00    +0.075 S 
ATOM      8  O   UNL     1      33.788  -7.070 -22.007  0.00  0.00    -0.150 OA
ATOM      9  O   UNL     1      31.892  -7.776 -20.521  0.00  0.00    -0.150 OA
BRANCH   7  10
ATOM     10  N   UNL     1      31.402  -7.109 -22.988  0.00  0.00    -0.199 N 
ATOM     11  H   UNL     1      30.503  -7.494 -23.096  0.00  0.00    +0.175 HD
ATOM     12  N   UNL     1      32.809  -6.243 -24.672  0.00  0.00    -0.228 NA
ATOM     13  C   UNL     1      31.829  -5.989 -23.784  0.00  0.00    +0.147 C 
ATOM     14  C   UNL     1      31.230  -4.758 -23.601  0.00  0.00    +0.036 C 
ATOM     15  C   UNL     1      31.673  -3.704 -24.392  0.00  0.00    +0.005 C 
ATOM     16  C   UNL     1      33.215  -5.194 -25.423  0.00  0.00    +0.100 C 
ATOM     17  C   UNL     1      32.684  -3.919 -25.323  0.00  0.00    +0.021 C 
ENDBRANCH   7  10
ENDBRANCH   2   7
BRANCH   1  18
ATOM     18  N   UNL     1      33.210 -13.362 -23.696  0.00  0.00    -0.328 N 
ATOM     19  H   UNL     1      32.405 -13.870 -23.952  0.00  0.00    +0.147 HD
BRANCH  18  20
ATOM     20  C   UNL     1      34.488 -14.023 -23.792  0.00  0.00    +0.127 C 
BRANCH  20  26
ATOM     21  S   UNL     1      35.590 -16.774 -21.735  0.00  0.00    -0.104 S 
ATOM     22  O   UNL     1      33.491 -14.158 -26.554  0.00  0.00    -0.210 OA
ATOM     23  N   UNL     1      33.787 -16.468 -26.527  0.00  0.00    -0.333 NA
ATOM     24  N   UNL     1      35.718 -19.314 -22.246  0.00  0.00    -0.262 NA
ATOM     25  C   UNL     1      34.595 -16.544 -24.357  0.00  0.00    +0.033 C 
ATOM     26  C   UNL     1      34.346 -15.259 -24.598  0.00  0.00    +0.092 C 
ATOM     27  C   UNL     1      34.227 -17.248 -25.596  0.00  0.00    +0.142 C 
ATOM     28  C   UNL     1      35.086 -17.291 -23.276  0.00  0.00    +0.114 C 
ATOM     29  C   UNL     1      33.824 -15.194 -25.997  0.00  0.00    +0.202 C 
ATOM     30  C   UNL     1      35.229 -18.667 -23.352  0.00  0.00    +0.069 C 
ATOM     31  C   UNL     1      34.395 -18.726 -25.638  0.00  0.00    +0.034 C 
ATOM     32  C   UNL     1      34.875 -19.364 -24.552  0.00  0.00    +0.018 C 
ATOM     33  C   UNL     1      35.947 -18.407 -21.321  0.00  0.00    +0.183 C 
ENDBRANCH  20  26
ENDBRANCH  18  20
ENDBRANCH   1  18
TORSDOF 5
ENDMDL
