MODEL 1
REMARK VINA RESULT:     -11.5      0.000      0.000
REMARK  Name = 5326866
REMARK  5 active torsions:
REMARK  status: ('A' for Active; 'I' for Inactive)
REMARK    1  A    between atoms: N_5  and  C_14
REMARK    2  A    between atoms: C_6  and  C_28
REMARK    3  A    between atoms: C_15  and  C_20
REMARK    4  A    between atoms: C_20  and  O_21
REMARK    5  A    between atoms: O_21  and  C_23
REMARK                            x       y       z     vdW  Elec       q    Type
REMARK                         _______ _______ _______ _____ _____    ______ ____
ROOT
ATOM      1  O   UNL     1      32.833 -13.578 -23.027  0.00  0.00    -0.252 OA
ATOM      2  N   UNL     1      31.950  -9.503 -22.411  0.00  0.00    -0.239 N 
ATOM      3  N   UNL     1      32.282 -10.785 -22.645  0.00  0.00    -0.166 NA
ATOM      4  N   UNL     1      34.037 -11.778 -23.923  0.00  0.00    -0.252 N 
ATOM      5  N   UNL     1      34.700 -13.940 -24.387  0.00  0.00    -0.268 N 
ATOM      6  C   UNL     1      32.783  -8.677 -23.029  0.00  0.00    +0.045 C 
ATOM      7  C   UNL     1      33.707  -9.345 -23.701  0.00  0.00    +0.048 C 
ATOM      8  C   UNL     1      33.355 -10.682 -23.433  0.00  0.00    +0.154 C 
ATOM      9  C   UNL     1      33.759 -13.149 -23.707  0.00  0.00    +0.309 C 
ATOM     10  H   UNL     1      31.190  -9.217 -21.856  0.00  0.00    +0.174 HD
ATOM     11  H   UNL     1      34.816 -11.581 -24.494  0.00  0.00    +0.158 HD
ATOM     12  H   UNL     1      35.388 -13.451 -24.894  0.00  0.00    +0.156 HD
ENDROOT
BRANCH   5  14
ATOM     13 CL   UNL     1      35.023 -19.837 -24.620  0.00  0.00    -0.082 Cl
ATOM     14  C   UNL     1      34.780 -15.351 -24.433  0.00  0.00    +0.051 C 
ATOM     15  C   UNL     1      35.404 -17.428 -23.406  0.00  0.00    +0.033 C 
ATOM     16  C   UNL     1      35.323 -16.035 -23.359  0.00  0.00    +0.015 C 
ATOM     17  C   UNL     1      34.317 -16.020 -25.555  0.00  0.00    +0.016 C 
ATOM     18  C   UNL     1      34.941 -18.116 -24.528  0.00  0.00    +0.057 C 
ATOM     19  C   UNL     1      34.398 -17.411 -25.602  0.00  0.00    +0.012 C 
BRANCH  15  20
ATOM     20  C   UNL     1      35.992 -18.144 -22.233  0.00  0.00    +0.233 C 
BRANCH  20  21
ATOM     21  O   UNL     1      34.952 -18.514 -21.339  0.00  0.00    -0.469 OA
BRANCH  21  23
ATOM     22  N   UNL     1      36.313 -21.651 -20.078  0.00  0.00    -0.239 NA
ATOM     23  C   UNL     1      34.994 -19.787 -20.834  0.00  0.00    +0.158 C 
ATOM     24  C   UNL     1      33.824 -20.480 -20.580  0.00  0.00    +0.040 C 
ATOM     25  C   UNL     1      36.201 -20.398 -20.574  0.00  0.00    +0.136 C 
ATOM     26  C   UNL     1      33.898 -21.771 -20.070  0.00  0.00    +0.024 C 
ATOM     27  C   UNL     1      35.155 -22.307 -19.838  0.00  0.00    +0.099 C 
ENDBRANCH  21  23
ENDBRANCH  20  21
ENDBRANCH  15  20
ENDBRANCH   5  14
BRANCH   6  28
ATOM     28  C   UNL     1      32.576  -7.149 -22.892  0.00  0.00    +0.033 C 
ATOM     29  C   UNL     1      32.639  -6.742 -21.404  0.00  0.00    +0.006 C 
ATOM     30  C   UNL     1      31.203  -6.751 -23.475  0.00  0.00    +0.006 C 
ATOM     31  C   UNL     1      33.645  -6.319 -23.637  0.00  0.00    +0.006 C 
ENDBRANCH   6  28
TORSDOF 5
ENDMDL
MODEL 2
REMARK VINA RESULT:     -11.1      3.091     11.110
REMARK  Name = 5326866
REMARK  5 active torsions:
REMARK  status: ('A' for Active; 'I' for Inactive)
REMARK    1  A    between atoms: N_5  and  C_14
REMARK    2  A    between atoms: C_6  and  C_28
REMARK    3  A    between atoms: C_15  and  C_20
REMARK    4  A    between atoms: C_20  and  O_21
REMARK    5  A    between atoms: O_21  and  C_23
REMARK                            x       y       z     vdW  Elec       q    Type
REMARK                         _______ _______ _______ _____ _____    ______ ____
ROOT
ATOM      1  O   UNL     1      34.549 -21.027 -20.298  0.00  0.00    -0.252 OA
ATOM      2  N   UNL     1      35.304 -23.335 -16.853  0.00  0.00    -0.239 N 
ATOM      3  N   UNL     1      35.124 -22.576 -17.949  0.00  0.00    -0.166 NA
ATOM      4  N   UNL     1      36.578 -21.092 -19.126  0.00  0.00    -0.252 N 
ATOM      5  N   UNL     1      36.382 -19.756 -20.998  0.00  0.00    -0.268 N 
ATOM      6  C   UNL     1      36.533 -23.196 -16.376  0.00  0.00    +0.045 C 
ATOM      7  C   UNL     1      37.238 -22.351 -17.111  0.00  0.00    +0.048 C 
ATOM      8  C   UNL     1      36.308 -21.977 -18.101  0.00  0.00    +0.154 C 
ATOM      9  C   UNL     1      35.711 -20.661 -20.159  0.00  0.00    +0.309 C 
ATOM     10  H   UNL     1      34.614 -23.916 -16.459  0.00  0.00    +0.174 HD
ATOM     11  H   UNL     1      37.486 -20.713 -19.139  0.00  0.00    +0.158 HD
ATOM     12  H   UNL     1      37.317 -19.558 -20.759  0.00  0.00    +0.156 HD
ENDROOT
BRANCH   5  14
ATOM     13 CL   UNL     1      34.279 -17.024 -25.799  0.00  0.00    -0.082 Cl
ATOM     14  C   UNL     1      35.881 -19.093 -22.142  0.00  0.00    +0.051 C 
ATOM     15  C   UNL     1      35.299 -17.059 -23.273  0.00  0.00    +0.033 C 
ATOM     16  C   UNL     1      35.795 -17.711 -22.143  0.00  0.00    +0.015 C 
ATOM     17  C   UNL     1      35.484 -19.842 -23.238  0.00  0.00    +0.016 C 
ATOM     18  C   UNL     1      34.896 -17.798 -24.385  0.00  0.00    +0.057 C 
ATOM     19  C   UNL     1      34.989 -19.190 -24.367  0.00  0.00    +0.012 C 
BRANCH  15  20
ATOM     20  C   UNL     1      35.217 -15.566 -23.250  0.00  0.00    +0.233 C 
BRANCH  20  21
ATOM     21  O   UNL     1      34.904 -15.133 -21.933  0.00  0.00    -0.469 OA
BRANCH  21  23
ATOM     22  N   UNL     1      32.680 -12.376 -22.791  0.00  0.00    -0.239 NA
ATOM     23  C   UNL     1      33.916 -14.192 -21.811  0.00  0.00    +0.158 C 
ATOM     24  C   UNL     1      33.181 -14.095 -20.644  0.00  0.00    +0.040 C 
ATOM     25  C   UNL     1      33.639 -13.327 -22.847  0.00  0.00    +0.136 C 
ATOM     26  C   UNL     1      32.185 -13.129 -20.547  0.00  0.00    +0.024 C 
ATOM     27  C   UNL     1      31.976 -12.301 -21.639  0.00  0.00    +0.099 C 
ENDBRANCH  21  23
ENDBRANCH  20  21
ENDBRANCH  15  20
ENDBRANCH   5  14
BRANCH   6  28
ATOM     28  C   UNL     1      36.949 -23.983 -15.110  0.00  0.00    +0.033 C 
ATOM     29  C   UNL     1      38.443 -24.360 -15.194  0.00  0.00    +0.006 C 
ATOM     30  C   UNL     1      36.102 -25.269 -14.990  0.00  0.00    +0.006 C 
ATOM     31  C   UNL     1      36.753 -23.187 -13.802  0.00  0.00    +0.006 C 
ENDBRANCH   6  28
TORSDOF 5
ENDMDL
MODEL 3
REMARK VINA RESULT:     -10.1      7.301     11.262
REMARK  Name = 5326866
REMARK  5 active torsions:
REMARK  status: ('A' for Active; 'I' for Inactive)
REMARK    1  A    between atoms: N_5  and  C_14
REMARK    2  A    between atoms: C_6  and  C_28
REMARK    3  A    between atoms: C_15  and  C_20
REMARK    4  A    between atoms: C_20  and  O_21
REMARK    5  A    between atoms: O_21  and  C_23
REMARK                            x       y       z     vdW  Elec       q    Type
REMARK                         _______ _______ _______ _____ _____    ______ ____
ROOT
ATOM      1  O   UNL     1      35.382 -22.850 -17.635  0.00  0.00    -0.252 OA
ATOM      2  N   UNL     1      34.824 -20.389 -21.010  0.00  0.00    -0.239 N 
ATOM      3  N   UNL     1      35.063 -21.152 -19.929  0.00  0.00    -0.166 NA
ATOM      4  N   UNL     1      37.008 -21.449 -18.577  0.00  0.00    -0.252 N 
ATOM      5  N   UNL     1      37.528 -22.714 -16.718  0.00  0.00    -0.268 N 
ATOM      6  C   UNL     1      35.899 -19.691 -21.346  0.00  0.00    +0.045 C 
ATOM      7  C   UNL     1      36.906 -19.941 -20.525  0.00  0.00    +0.048 C 
ATOM      8  C   UNL     1      36.337 -20.875 -19.638  0.00  0.00    +0.154 C 
ATOM      9  C   UNL     1      36.519 -22.390 -17.639  0.00  0.00    +0.309 C 
ATOM     10  H   UNL     1      33.963 -20.353 -21.487  0.00  0.00    +0.174 HD
ATOM     11  H   UNL     1      37.944 -21.167 -18.457  0.00  0.00    +0.158 HD
ATOM     12  H   UNL     1      38.393 -22.262 -16.849  0.00  0.00    +0.156 HD
ENDROOT
BRANCH   5  14
ATOM     13 CL   UNL     1      37.267 -26.466 -12.158  0.00  0.00    -0.082 Cl
ATOM     14  C   UNL     1      37.456 -23.610 -15.626  0.00  0.00    +0.051 C 
ATOM     15  C   UNL     1      36.204 -24.599 -13.834  0.00  0.00    +0.033 C 
ATOM     16  C   UNL     1      36.274 -23.716 -14.913  0.00  0.00    +0.015 C 
ATOM     17  C   UNL     1      38.571 -24.360 -15.290  0.00  0.00    +0.016 C 
ATOM     18  C   UNL     1      37.318 -25.363 -13.484  0.00  0.00    +0.057 C 
ATOM     19  C   UNL     1      38.501 -25.242 -14.213  0.00  0.00    +0.012 C 
BRANCH  15  20
ATOM     20  C   UNL     1      34.917 -24.698 -13.081  0.00  0.00    +0.233 C 
BRANCH  20  21
ATOM     21  O   UNL     1      34.049 -23.651 -13.494  0.00  0.00    -0.469 OA
BRANCH  21  23
ATOM     22  N   UNL     1      31.105 -25.565 -14.468  0.00  0.00    -0.239 NA
ATOM     23  C   UNL     1      32.924 -24.017 -14.184  0.00  0.00    +0.158 C 
ATOM     24  C   UNL     1      32.476 -23.258 -15.250  0.00  0.00    +0.040 C 
ATOM     25  C   UNL     1      32.221 -25.147 -13.829  0.00  0.00    +0.136 C 
ATOM     26  C   UNL     1      31.332 -23.656 -15.933  0.00  0.00    +0.024 C 
ATOM     27  C   UNL     1      30.688 -24.806 -15.506  0.00  0.00    +0.099 C 
ENDBRANCH  21  23
ENDBRANCH  20  21
ENDBRANCH  15  20
ENDBRANCH   5  14
BRANCH   6  28
ATOM     28  C   UNL     1      35.838 -18.745 -22.570  0.00  0.00    +0.033 C 
ATOM     29  C   UNL     1      34.840 -19.296 -23.610  0.00  0.00    +0.006 C 
ATOM     30  C   UNL     1      37.237 -18.628 -23.213  0.00  0.00    +0.006 C 
ATOM     31  C   UNL     1      35.381 -17.313 -22.213  0.00  0.00    +0.006 C 
ENDBRANCH   6  28
TORSDOF 5
ENDMDL
MODEL 4
REMARK VINA RESULT:      -9.7      3.597      5.828
REMARK  Name = 5326866
REMARK  5 active torsions:
REMARK  status: ('A' for Active; 'I' for Inactive)
REMARK    1  A    between atoms: N_5  and  C_14
REMARK    2  A    between atoms: C_6  and  C_28
REMARK    3  A    between atoms: C_15  and  C_20
REMARK    4  A    between atoms: C_20  and  O_21
REMARK    5  A    between atoms: O_21  and  C_23
REMARK                            x       y       z     vdW  Elec       q    Type
REMARK                         _______ _______ _______ _____ _____    ______ ____
ROOT
ATOM      1  O   UNL     1      32.306  -8.243 -21.220  0.00  0.00    -0.252 OA
ATOM      2  N   UNL     1      32.149  -4.326 -22.767  0.00  0.00    -0.239 N 
ATOM      3  N   UNL     1      32.193  -5.598 -22.334  0.00  0.00    -0.166 NA
ATOM      4  N   UNL     1      32.059  -7.687 -23.483  0.00  0.00    -0.252 N 
ATOM      5  N   UNL     1      32.125  -9.906 -22.853  0.00  0.00    -0.268 N 
ATOM      6  C   UNL     1      32.003  -4.277 -24.083  0.00  0.00    +0.045 C 
ATOM      7  C   UNL     1      31.942  -5.492 -24.603  0.00  0.00    +0.048 C 
ATOM      8  C   UNL     1      32.065  -6.306 -23.459  0.00  0.00    +0.154 C 
ATOM      9  C   UNL     1      32.177  -8.580 -22.392  0.00  0.00    +0.309 C 
ATOM     10  H   UNL     1      32.217  -3.536 -22.183  0.00  0.00    +0.174 HD
ATOM     11  H   UNL     1      31.961  -8.101 -24.371  0.00  0.00    +0.158 HD
ATOM     12  H   UNL     1      32.018 -10.021 -23.825  0.00  0.00    +0.156 HD
ENDROOT
BRANCH   5  14
ATOM     13 CL   UNL     1      32.432 -14.868 -19.656  0.00  0.00    -0.082 Cl
ATOM     14  C   UNL     1      32.206 -11.096 -22.094  0.00  0.00    +0.051 C 
ATOM     15  C   UNL     1      33.191 -13.251 -21.714  0.00  0.00    +0.033 C 
ATOM     16  C   UNL     1      33.113 -12.076 -22.463  0.00  0.00    +0.015 C 
ATOM     17  C   UNL     1      31.375 -11.259 -20.997  0.00  0.00    +0.016 C 
ATOM     18  C   UNL     1      32.362 -13.429 -20.607  0.00  0.00    +0.057 C 
ATOM     19  C   UNL     1      31.454 -12.432 -20.249  0.00  0.00    +0.012 C 
BRANCH  15  20
ATOM     20  C   UNL     1      34.178 -14.293 -22.131  0.00  0.00    +0.233 C 
BRANCH  20  21
ATOM     21  O   UNL     1      34.479 -14.129 -23.511  0.00  0.00    -0.469 OA
BRANCH  21  23
ATOM     22  N   UNL     1      33.930 -16.398 -26.310  0.00  0.00    -0.239 NA
ATOM     23  C   UNL     1      34.525 -15.268 -24.272  0.00  0.00    +0.158 C 
ATOM     24  C   UNL     1      35.175 -16.396 -23.807  0.00  0.00    +0.040 C 
ATOM     25  C   UNL     1      33.923 -15.308 -25.511  0.00  0.00    +0.136 C 
ATOM     26  C   UNL     1      35.204 -17.538 -24.600  0.00  0.00    +0.024 C 
ATOM     27  C   UNL     1      34.573 -17.488 -25.833  0.00  0.00    +0.099 C 
ENDBRANCH  21  23
ENDBRANCH  20  21
ENDBRANCH  15  20
ENDBRANCH   5  14
BRANCH   6  28
ATOM     28  C   UNL     1      31.928  -2.901 -24.788  0.00  0.00    +0.033 C 
ATOM     29  C   UNL     1      32.858  -2.890 -26.020  0.00  0.00    +0.006 C 
ATOM     30  C   UNL     1      32.360  -1.786 -23.810  0.00  0.00    +0.006 C 
ATOM     31  C   UNL     1      30.510  -2.545 -25.285  0.00  0.00    +0.006 C 
ENDBRANCH   6  28
TORSDOF 5
ENDMDL
MODEL 5
REMARK VINA RESULT:      -9.7      7.211     10.941
REMARK  Name = 5326866
REMARK  5 active torsions:
REMARK  status: ('A' for Active; 'I' for Inactive)
REMARK    1  A    between atoms: N_5  and  C_14
REMARK    2  A    between atoms: C_6  and  C_28
REMARK    3  A    between atoms: C_15  and  C_20
REMARK    4  A    between atoms: C_20  and  O_21
REMARK    5  A    between atoms: O_21  and  C_23
REMARK                            x       y       z     vdW  Elec       q    Type
REMARK                         _______ _______ _______ _____ _____    ______ ____
ROOT
ATOM      1  O   UNL     1      34.358 -22.337 -17.894  0.00  0.00    -0.252 OA
ATOM      2  N   UNL     1      36.129 -20.258 -21.104  0.00  0.00    -0.239 N 
ATOM      3  N   UNL     1      35.506 -20.907 -20.105  0.00  0.00    -0.166 NA
ATOM      4  N   UNL     1      33.195 -21.273 -19.628  0.00  0.00    -0.252 N 
ATOM      5  N   UNL     1      32.022 -22.362 -17.965  0.00  0.00    -0.268 N 
ATOM      6  C   UNL     1      35.253 -19.743 -21.955  0.00  0.00    +0.045 C 
ATOM      7  C   UNL     1      34.011 -20.013 -21.584  0.00  0.00    +0.048 C 
ATOM      8  C   UNL     1      34.213 -20.754 -20.402  0.00  0.00    +0.154 C 
ATOM      9  C   UNL     1      33.303 -22.026 -18.434  0.00  0.00    +0.309 C 
ATOM     10  H   UNL     1      37.106 -20.176 -21.191  0.00  0.00    +0.174 HD
ATOM     11  H   UNL     1      32.279 -21.099 -19.946  0.00  0.00    +0.158 HD
ATOM     12  H   UNL     1      31.266 -22.041 -18.508  0.00  0.00    +0.156 HD
ENDROOT
BRANCH   5  14
ATOM     13 CL   UNL     1      30.572 -25.464 -13.147  0.00  0.00    -0.082 Cl
ATOM     14  C   UNL     1      31.685 -23.104 -16.809  0.00  0.00    +0.051 C 
ATOM     15  C   UNL     1      32.358 -24.272 -14.824  0.00  0.00    +0.033 C 
ATOM     16  C   UNL     1      32.692 -23.538 -15.964  0.00  0.00    +0.015 C 
ATOM     17  C   UNL     1      30.353 -23.384 -16.549  0.00  0.00    +0.016 C 
ATOM     18  C   UNL     1      31.022 -24.561 -14.547  0.00  0.00    +0.057 C 
ATOM     19  C   UNL     1      30.020 -24.117 -15.410  0.00  0.00    +0.012 C 
BRANCH  15  20
ATOM     20  C   UNL     1      33.462 -24.728 -13.926  0.00  0.00    +0.233 C 
BRANCH  20  21
ATOM     21  O   UNL     1      34.711 -24.343 -14.484  0.00  0.00    -0.469 OA
BRANCH  21  23
ATOM     22  N   UNL     1      37.893 -23.080 -13.233  0.00  0.00    -0.239 NA
ATOM     23  C   UNL     1      35.705 -24.010 -13.603  0.00  0.00    +0.158 C 
ATOM     24  C   UNL     1      35.552 -24.251 -12.249  0.00  0.00    +0.040 C 
ATOM     25  C   UNL     1      36.873 -23.431 -14.049  0.00  0.00    +0.136 C 
ATOM     26  C   UNL     1      36.579 -23.905 -11.378  0.00  0.00    +0.024 C 
ATOM     27  C   UNL     1      37.718 -23.327 -11.915  0.00  0.00    +0.099 C 
ENDBRANCH  21  23
ENDBRANCH  20  21
ENDBRANCH  15  20
ENDBRANCH   5  14
BRANCH   6  28
ATOM     28  C   UNL     1      35.763 -18.950 -23.183  0.00  0.00    +0.033 C 
ATOM     29  C   UNL     1      35.327 -19.659 -24.483  0.00  0.00    +0.006 C 
ATOM     30  C   UNL     1      37.304 -18.855 -23.142  0.00  0.00    +0.006 C 
ATOM     31  C   UNL     1      35.219 -17.506 -23.247  0.00  0.00    +0.006 C 
ENDBRANCH   6  28
TORSDOF 5
ENDMDL
MODEL 6
REMARK VINA RESULT:      -9.5      4.019      6.680
REMARK  Name = 5326866
REMARK  5 active torsions:
REMARK  status: ('A' for Active; 'I' for Inactive)
REMARK    1  A    between atoms: N_5  and  C_14
REMARK    2  A    between atoms: C_6  and  C_28
REMARK    3  A    between atoms: C_15  and  C_20
REMARK    4  A    between atoms: C_20  and  O_21
REMARK    5  A    between atoms: O_21  and  C_23
REMARK                            x       y       z     vdW  Elec       q    Type
REMARK                         _______ _______ _______ _____ _____    ______ ____
ROOT
ATOM      1  O   UNL     1      34.282  -8.464 -23.527  0.00  0.00    -0.252 OA
ATOM      2  N   UNL     1      34.915  -5.068 -25.941  0.00  0.00    -0.239 N 
ATOM      3  N   UNL     1      34.652  -6.132 -25.163  0.00  0.00    -0.166 NA
ATOM      4  N   UNL     1      32.672  -6.838 -24.030  0.00  0.00    -0.252 N 
ATOM      5  N   UNL     1      32.108  -8.626 -22.685  0.00  0.00    -0.268 N 
ATOM      6  C   UNL     1      33.844  -4.299 -26.072  0.00  0.00    +0.045 C 
ATOM      7  C   UNL     1      32.816  -4.793 -25.401  0.00  0.00    +0.048 C 
ATOM      8  C   UNL     1      33.368  -5.959 -24.835  0.00  0.00    +0.154 C 
ATOM      9  C   UNL     1      33.142  -8.027 -23.422  0.00  0.00    +0.309 C 
ATOM     10  H   UNL     1      35.788  -4.885 -26.358  0.00  0.00    +0.174 HD
ATOM     11  H   UNL     1      31.729  -6.609 -23.858  0.00  0.00    +0.158 HD
ATOM     12  H   UNL     1      31.242  -8.157 -22.695  0.00  0.00    +0.156 HD
ENDROOT
BRANCH   5  14
ATOM     13 CL   UNL     1      32.300 -13.600 -19.496  0.00  0.00    -0.082 Cl
ATOM     14  C   UNL     1      32.156  -9.822 -21.930  0.00  0.00    +0.051 C 
ATOM     15  C   UNL     1      32.374 -12.210 -21.839  0.00  0.00    +0.033 C 
ATOM     16  C   UNL     1      32.328 -11.031 -22.584  0.00  0.00    +0.015 C 
ATOM     17  C   UNL     1      32.027  -9.758 -20.552  0.00  0.00    +0.016 C 
ATOM     18  C   UNL     1      32.247 -12.163 -20.451  0.00  0.00    +0.057 C 
ATOM     19  C   UNL     1      32.073 -10.937 -19.808  0.00  0.00    +0.012 C 
BRANCH  15  20
ATOM     20  C   UNL     1      32.562 -13.502 -22.566  0.00  0.00    +0.233 C 
BRANCH  20  21
ATOM     21  O   UNL     1      33.284 -13.263 -23.767  0.00  0.00    -0.469 OA
BRANCH  21  23
ATOM     22  N   UNL     1      34.057 -15.689 -26.376  0.00  0.00    -0.239 NA
ATOM     23  C   UNL     1      33.831 -14.357 -24.386  0.00  0.00    +0.158 C 
ATOM     24  C   UNL     1      34.672 -15.208 -23.691  0.00  0.00    +0.040 C 
ATOM     25  C   UNL     1      33.552 -14.627 -25.707  0.00  0.00    +0.136 C 
ATOM     26  C   UNL     1      35.211 -16.311 -24.344  0.00  0.00    +0.024 C 
ATOM     27  C   UNL     1      34.876 -16.505 -25.675  0.00  0.00    +0.099 C 
ENDBRANCH  21  23
ENDBRANCH  20  21
ENDBRANCH  15  20
ENDBRANCH   5  14
BRANCH   6  28
ATOM     28  C   UNL     1      33.932  -3.014 -26.930  0.00  0.00    +0.033 C 
ATOM     29  C   UNL     1      35.400  -2.747 -27.326  0.00  0.00    +0.006 C 
ATOM     30  C   UNL     1      33.390  -1.809 -26.130  0.00  0.00    +0.006 C 
ATOM     31  C   UNL     1      33.115  -3.095 -28.239  0.00  0.00    +0.006 C 
ENDBRANCH   6  28
TORSDOF 5
ENDMDL
MODEL 7
REMARK VINA RESULT:      -9.4      3.492      9.454
REMARK  Name = 5326866
REMARK  5 active torsions:
REMARK  status: ('A' for Active; 'I' for Inactive)
REMARK    1  A    between atoms: N_5  and  C_14
REMARK    2  A    between atoms: C_6  and  C_28
REMARK    3  A    between atoms: C_15  and  C_20
REMARK    4  A    between atoms: C_20  and  O_21
REMARK    5  A    between atoms: O_21  and  C_23
REMARK                            x       y       z     vdW  Elec       q    Type
REMARK                         _______ _______ _______ _____ _____    ______ ____
ROOT
ATOM      1  O   UNL     1      34.564 -12.922 -21.986  0.00  0.00    -0.252 OA
ATOM      2  N   UNL     1      35.188 -17.044 -21.367  0.00  0.00    -0.239 N 
ATOM      3  N   UNL     1      34.996 -15.739 -21.628  0.00  0.00    -0.166 NA
ATOM      4  N   UNL     1      34.980 -14.499 -23.669  0.00  0.00    -0.252 N 
ATOM      5  N   UNL     1      34.662 -12.284 -24.233  0.00  0.00    -0.268 N 
ATOM      6  C   UNL     1      35.405 -17.725 -22.483  0.00  0.00    +0.045 C 
ATOM      7  C   UNL     1      35.372 -16.931 -23.541  0.00  0.00    +0.048 C 
ATOM      8  C   UNL     1      35.110 -15.675 -22.957  0.00  0.00    +0.154 C 
ATOM      9  C   UNL     1      34.718 -13.201 -23.170  0.00  0.00    +0.309 C 
ATOM     10  H   UNL     1      35.169 -17.440 -20.466  0.00  0.00    +0.174 HD
ATOM     11  H   UNL     1      35.082 -14.573 -24.645  0.00  0.00    +0.158 HD
ATOM     12  H   UNL     1      34.806 -12.657 -25.133  0.00  0.00    +0.156 HD
ENDROOT
BRANCH   5  14
ATOM     13 CL   UNL     1      33.704  -6.456 -23.992  0.00  0.00    -0.082 Cl
ATOM     14  C   UNL     1      34.424 -10.891 -24.170  0.00  0.00    +0.051 C 
ATOM     15  C   UNL     1      32.990  -9.056 -23.593  0.00  0.00    +0.033 C 
ATOM     16  C   UNL     1      33.225 -10.430 -23.654  0.00  0.00    +0.015 C 
ATOM     17  C   UNL     1      35.395 -10.017 -24.630  0.00  0.00    +0.016 C 
ATOM     18  C   UNL     1      33.959  -8.162 -24.051  0.00  0.00    +0.057 C 
ATOM     19  C   UNL     1      35.161  -8.644 -24.570  0.00  0.00    +0.012 C 
BRANCH  15  20
ATOM     20  C   UNL     1      31.689  -8.582 -23.031  0.00  0.00    +0.233 C 
BRANCH  20  21
ATOM     21  O   UNL     1      30.992  -9.686 -22.468  0.00  0.00    -0.469 OA
BRANCH  21  23
ATOM     22  N   UNL     1      32.444  -9.563 -19.127  0.00  0.00    -0.239 NA
ATOM     23  C   UNL     1      31.385 -10.094 -21.221  0.00  0.00    +0.158 C 
ATOM     24  C   UNL     1      31.145 -11.389 -20.799  0.00  0.00    +0.040 C 
ATOM     25  C   UNL     1      32.028  -9.224 -20.369  0.00  0.00    +0.136 C 
ATOM     26  C   UNL     1      31.557 -11.777 -19.529  0.00  0.00    +0.024 C 
ATOM     27  C   UNL     1      32.196 -10.834 -18.739  0.00  0.00    +0.099 C 
ENDBRANCH  21  23
ENDBRANCH  20  21
ENDBRANCH  15  20
ENDBRANCH   5  14
BRANCH   6  28
ATOM     28  C   UNL     1      35.652 -19.251 -22.405  0.00  0.00    +0.033 C 
ATOM     29  C   UNL     1      37.092 -19.525 -21.922  0.00  0.00    +0.006 C 
ATOM     30  C   UNL     1      35.449 -19.887 -23.798  0.00  0.00    +0.006 C 
ATOM     31  C   UNL     1      34.698 -19.976 -21.431  0.00  0.00    +0.006 C 
ENDBRANCH   6  28
TORSDOF 5
ENDMDL
MODEL 8
REMARK VINA RESULT:      -9.2      4.270     11.706
REMARK  Name = 5326866
REMARK  5 active torsions:
REMARK  status: ('A' for Active; 'I' for Inactive)
REMARK    1  A    between atoms: N_5  and  C_14
REMARK    2  A    between atoms: C_6  and  C_28
REMARK    3  A    between atoms: C_15  and  C_20
REMARK    4  A    between atoms: C_20  and  O_21
REMARK    5  A    between atoms: O_21  and  C_23
REMARK                            x       y       z     vdW  Elec       q    Type
REMARK                         _______ _______ _______ _____ _____    ______ ____
ROOT
ATOM      1  O   UNL     1      34.936 -22.210 -18.308  0.00  0.00    -0.252 OA
ATOM      2  N   UNL     1      32.463 -24.268 -15.585  0.00  0.00    -0.239 N 
ATOM      3  N   UNL     1      33.198 -23.591 -16.484  0.00  0.00    -0.166 NA
ATOM      4  N   UNL     1      32.593 -22.248 -18.364  0.00  0.00    -0.252 N 
ATOM      5  N   UNL     1      33.754 -21.049 -19.957  0.00  0.00    -0.268 N 
ATOM      6  C   UNL     1      31.168 -24.133 -15.832  0.00  0.00    +0.045 C 
ATOM      7  C   UNL     1      30.961 -23.370 -16.894  0.00  0.00    +0.048 C 
ATOM      8  C   UNL     1      32.276 -23.045 -17.282  0.00  0.00    +0.154 C 
ATOM      9  C   UNL     1      33.877 -21.870 -18.824  0.00  0.00    +0.309 C 
ATOM     10  H   UNL     1      32.838 -24.793 -14.842  0.00  0.00    +0.174 HD
ATOM     11  H   UNL     1      31.830 -21.899 -18.879  0.00  0.00    +0.158 HD
ATOM     12  H   UNL     1      32.835 -20.861 -20.257  0.00  0.00    +0.156 HD
ENDROOT
BRANCH   5  14
ATOM     13 CL   UNL     1      38.102 -18.597 -23.123  0.00  0.00    -0.082 Cl
ATOM     14  C   UNL     1      34.788 -20.458 -20.721  0.00  0.00    +0.051 C 
ATOM     15  C   UNL     1      35.491 -19.212 -22.647  0.00  0.00    +0.033 C 
ATOM     16  C   UNL     1      34.470 -19.793 -21.893  0.00  0.00    +0.015 C 
ATOM     17  C   UNL     1      36.098 -20.560 -20.281  0.00  0.00    +0.016 C 
ATOM     18  C   UNL     1      36.814 -19.304 -22.217  0.00  0.00    +0.057 C 
ATOM     19  C   UNL     1      37.117 -19.979 -21.034  0.00  0.00    +0.012 C 
BRANCH  15  20
ATOM     20  C   UNL     1      35.123 -18.498 -23.908  0.00  0.00    +0.233 C 
BRANCH  20  21
ATOM     21  O   UNL     1      35.574 -17.152 -23.835  0.00  0.00    -0.469 OA
BRANCH  21  23
ATOM     22  N   UNL     1      33.829 -15.616 -26.642  0.00  0.00    -0.239 NA
ATOM     23  C   UNL     1      34.875 -16.226 -24.564  0.00  0.00    +0.158 C 
ATOM     24  C   UNL     1      34.522 -15.013 -24.001  0.00  0.00    +0.040 C 
ATOM     25  C   UNL     1      34.516 -16.486 -25.868  0.00  0.00    +0.136 C 
ATOM     26  C   UNL     1      33.815 -14.091 -24.765  0.00  0.00    +0.024 C 
ATOM     27  C   UNL     1      33.495 -14.438 -26.068  0.00  0.00    +0.099 C 
ENDBRANCH  21  23
ENDBRANCH  20  21
ENDBRANCH  15  20
ENDBRANCH   5  14
BRANCH   6  28
ATOM     28  C   UNL     1      30.142 -24.838 -14.912  0.00  0.00    +0.033 C 
ATOM     29  C   UNL     1      28.817 -24.047 -14.901  0.00  0.00    +0.006 C 
ATOM     30  C   UNL     1      30.699 -24.924 -13.474  0.00  0.00    +0.006 C 
ATOM     31  C   UNL     1      29.809 -26.278 -15.358  0.00  0.00    +0.006 C 
ENDBRANCH   6  28
TORSDOF 5
ENDMDL
MODEL 9
REMARK VINA RESULT:      -9.1      4.274      7.340
REMARK  Name = 5326866
REMARK  5 active torsions:
REMARK  status: ('A' for Active; 'I' for Inactive)
REMARK    1  A    between atoms: N_5  and  C_14
REMARK    2  A    between atoms: C_6  and  C_28
REMARK    3  A    between atoms: C_15  and  C_20
REMARK    4  A    between atoms: C_20  and  O_21
REMARK    5  A    between atoms: O_21  and  C_23
REMARK                            x       y       z     vdW  Elec       q    Type
REMARK                         _______ _______ _______ _____ _____    ______ ____
ROOT
ATOM      1  O   UNL     1      34.509  -7.630 -23.561  0.00  0.00    -0.252 OA
ATOM      2  N   UNL     1      35.599  -4.845 -26.530  0.00  0.00    -0.239 N 
ATOM      3  N   UNL     1      35.190  -5.712 -25.587  0.00  0.00    -0.166 NA
ATOM      4  N   UNL     1      33.053  -6.118 -24.603  0.00  0.00    -0.252 N 
ATOM      5  N   UNL     1      32.241  -7.565 -22.999  0.00  0.00    -0.268 N 
ATOM      6  C   UNL     1      34.591  -4.101 -26.961  0.00  0.00    +0.045 C 
ATOM      7  C   UNL     1      33.465  -4.419 -26.342  0.00  0.00    +0.048 C 
ATOM      8  C   UNL     1      33.886  -5.447 -25.476  0.00  0.00    +0.154 C 
ATOM      9  C   UNL     1      33.387  -7.158 -23.702  0.00  0.00    +0.309 C 
ATOM     10  H   UNL     1      36.525  -4.774 -26.857  0.00  0.00    +0.174 HD
ATOM     11  H   UNL     1      32.109  -5.840 -24.609  0.00  0.00    +0.158 HD
ATOM     12  H   UNL     1      31.407  -7.091 -23.221  0.00  0.00    +0.156 HD
ENDROOT
BRANCH   5  14
ATOM     13 CL   UNL     1      31.809 -11.739 -18.835  0.00  0.00    -0.082 Cl
ATOM     14  C   UNL     1      32.138  -8.571 -22.010  0.00  0.00    +0.051 C 
ATOM     15  C   UNL     1      31.882 -10.883 -21.421  0.00  0.00    +0.033 C 
ATOM     16  C   UNL     1      31.986  -9.891 -22.398  0.00  0.00    +0.015 C 
ATOM     17  C   UNL     1      32.188  -8.213 -20.672  0.00  0.00    +0.016 C 
ATOM     18  C   UNL     1      31.932 -10.539 -20.070  0.00  0.00    +0.057 C 
ATOM     19  C   UNL     1      32.085  -9.204 -19.696  0.00  0.00    +0.012 C 
BRANCH  15  20
ATOM     20  C   UNL     1      31.720 -12.301 -21.865  0.00  0.00    +0.233 C 
BRANCH  20  21
ATOM     21  O   UNL     1      32.764 -12.631 -22.771  0.00  0.00    -0.469 OA
BRANCH  21  23
ATOM     22  N   UNL     1      34.980 -15.497 -23.169  0.00  0.00    -0.239 NA
ATOM     23  C   UNL     1      33.548 -13.706 -22.444  0.00  0.00    +0.158 C 
ATOM     24  C   UNL     1      33.702 -14.085 -21.123  0.00  0.00    +0.040 C 
ATOM     25  C   UNL     1      34.194 -14.427 -23.424  0.00  0.00    +0.136 C 
ATOM     26  C   UNL     1      34.502 -15.181 -20.820  0.00  0.00    +0.024 C 
ATOM     27  C   UNL     1      35.114 -15.847 -21.870  0.00  0.00    +0.099 C 
ENDBRANCH  21  23
ENDBRANCH  20  21
ENDBRANCH  15  20
ENDBRANCH   5  14
BRANCH   6  28
ATOM     28  C   UNL     1      34.847  -3.033 -28.051  0.00  0.00    +0.033 C 
ATOM     29  C   UNL     1      34.797  -3.687 -29.448  0.00  0.00    +0.006 C 
ATOM     30  C   UNL     1      36.233  -2.386 -27.837  0.00  0.00    +0.006 C 
ATOM     31  C   UNL     1      33.807  -1.891 -28.045  0.00  0.00    +0.006 C 
ENDBRANCH   6  28
TORSDOF 5
ENDMDL
