MODEL 1
REMARK VINA RESULT:     -11.6      0.000      0.000
REMARK  Name = 446345
REMARK  6 active torsions:
REMARK  status: ('A' for Active; 'I' for Inactive)
REMARK    1  A    between atoms: N_2  and  C_20
REMARK    2  A    between atoms: N_3  and  S_8
REMARK    3  A    between atoms: S_8  and  C_11
REMARK    4  A    between atoms: C_12  and  C_14
REMARK    5  A    between atoms: C_20  and  C_22
REMARK    6  A    between atoms: N_21  and  C_28
REMARK                            x       y       z     vdW  Elec       q    Type
REMARK                         _______ _______ _______ _____ _____    ______ ____
ROOT
ATOM      1  O   UNL     1      32.532 -20.909 -19.860  0.00  0.00    -0.273 OA
ATOM      2  N   UNL     1      34.554 -22.013 -19.602  0.00  0.00    -0.277 N 
ATOM      3  N   UNL     1      35.847 -19.902 -20.907  0.00  0.00    -0.144 NA
ATOM      4  C   UNL     1      36.007 -21.994 -19.731  0.00  0.00    +0.113 C 
ATOM      5  C   UNL     1      36.471 -21.242 -20.960  0.00  0.00    +0.118 C 
ATOM      6  C   UNL     1      33.742 -20.992 -20.089  0.00  0.00    +0.244 C 
ATOM      7  C   UNL     1      34.377 -19.985 -21.015  0.00  0.00    +0.181 C 
ENDROOT
BRANCH   3   8
ATOM      8  S   UNL     1      36.591 -18.693 -21.864  0.00  0.00    +0.065 S 
ATOM      9  O   UNL     1      36.409 -19.057 -23.258  0.00  0.00    -0.153 OA
ATOM     10  O   UNL     1      37.929 -18.474 -21.343  0.00  0.00    -0.153 OA
BRANCH   8  11
ATOM     11  C   UNL     1      35.655 -17.269 -21.554  0.00  0.00    +0.141 C 
ATOM     12  C   UNL     1      35.404 -16.465 -22.595  0.00  0.00    +0.021 C 
BRANCH  12  14
ATOM     13 CL   UNL     1      32.226 -11.425 -22.307  0.00  0.00    -0.082 Cl
ATOM     14  C   UNL     1      34.620 -15.221 -22.524  0.00  0.00    +0.001 C 
ATOM     15  C   UNL     1      34.142 -14.788 -21.297  0.00  0.00    +0.001 C 
ATOM     16  C   UNL     1      34.373 -14.505 -23.685  0.00  0.00    +0.001 C 
ATOM     17  C   UNL     1      33.399 -13.610 -21.229  0.00  0.00    +0.011 C 
ATOM     18  C   UNL     1      33.631 -13.327 -23.617  0.00  0.00    +0.011 C 
ATOM     19  C   UNL     1      33.143 -12.879 -22.389  0.00  0.00    +0.058 C 
ENDBRANCH  12  14
ENDBRANCH   8  11
ENDBRANCH   3   8
BRANCH   2  20
ATOM     20  C   UNL     1      33.999 -23.038 -18.730  0.00  0.00    +0.094 C 
BRANCH  20  22
ATOM     21  N   UNL     1      35.498 -23.504 -14.719  0.00  0.00    -0.307 N 
ATOM     22  C   UNL     1      34.333 -22.769 -17.265  0.00  0.00    +0.023 C 
ATOM     23  C   UNL     1      35.850 -22.768 -17.043  0.00  0.00    +0.023 C 
ATOM     24  C   UNL     1      33.684 -23.816 -16.354  0.00  0.00    +0.023 C 
ATOM     25  C   UNL     1      36.199 -22.537 -15.574  0.00  0.00    +0.091 C 
ATOM     26  C   UNL     1      34.044 -23.587 -14.886  0.00  0.00    +0.091 C 
BRANCH  21  28
ATOM     27  N   UNL     1      37.209 -24.368 -10.958  0.00  0.00    -0.242 NA
ATOM     28  C   UNL     1      36.065 -23.791 -13.471  0.00  0.00    +0.051 C 
ATOM     29  C   UNL     1      35.305 -24.375 -12.447  0.00  0.00    +0.035 C 
ATOM     30  C   UNL     1      37.413 -23.501 -13.205  0.00  0.00    +0.035 C 
ATOM     31  C   UNL     1      35.913 -24.639 -11.230  0.00  0.00    +0.100 C 
ATOM     32  C   UNL     1      37.927 -23.804 -11.955  0.00  0.00    +0.100 C 
ENDBRANCH  21  28
ENDBRANCH  20  22
ENDBRANCH   2  20
TORSDOF 6
ENDMDL
MODEL 2
REMARK VINA RESULT:     -11.0      4.063     11.328
REMARK  Name = 446345
REMARK  6 active torsions:
REMARK  status: ('A' for Active; 'I' for Inactive)
REMARK    1  A    between atoms: N_2  and  C_20
REMARK    2  A    between atoms: N_3  and  S_8
REMARK    3  A    between atoms: S_8  and  C_11
REMARK    4  A    between atoms: C_12  and  C_14
REMARK    5  A    between atoms: C_20  and  C_22
REMARK    6  A    between atoms: N_21  and  C_28
REMARK                            x       y       z     vdW  Elec       q    Type
REMARK                         _______ _______ _______ _____ _____    ______ ____
ROOT
ATOM      1  O   UNL     1      37.840 -19.532 -20.826  0.00  0.00    -0.273 OA
ATOM      2  N   UNL     1      35.737 -18.966 -21.622  0.00  0.00    -0.277 N 
ATOM      3  N   UNL     1      34.623 -21.006 -20.064  0.00  0.00    -0.144 NA
ATOM      4  C   UNL     1      34.291 -19.150 -21.558  0.00  0.00    +0.113 C 
ATOM      5  C   UNL     1      33.901 -20.587 -21.285  0.00  0.00    +0.118 C 
ATOM      6  C   UNL     1      36.630 -19.762 -20.909  0.00  0.00    +0.244 C 
ATOM      7  C   UNL     1      36.083 -21.018 -20.277  0.00  0.00    +0.181 C 
ENDROOT
BRANCH   3   8
ATOM      8  S   UNL     1      33.983 -22.368 -19.249  0.00  0.00    +0.065 S 
ATOM      9  O   UNL     1      34.257 -23.540 -20.063  0.00  0.00    -0.153 OA
ATOM     10  O   UNL     1      32.617 -22.058 -18.866  0.00  0.00    -0.153 OA
BRANCH   8  11
ATOM     11  C   UNL     1      34.933 -22.485 -17.805  0.00  0.00    +0.141 C 
ATOM     12  C   UNL     1      34.444 -23.238 -16.812  0.00  0.00    +0.021 C 
BRANCH  12  14
ATOM     13 CL   UNL     1      37.159 -24.139 -11.577  0.00  0.00    -0.082 Cl
ATOM     14  C   UNL     1      35.114 -23.460 -15.519  0.00  0.00    +0.001 C 
ATOM     15  C   UNL     1      36.453 -23.127 -15.382  0.00  0.00    +0.001 C 
ATOM     16  C   UNL     1      34.395 -23.998 -14.464  0.00  0.00    +0.001 C 
ATOM     17  C   UNL     1      37.087 -23.338 -14.158  0.00  0.00    +0.011 C 
ATOM     18  C   UNL     1      35.029 -24.209 -13.241  0.00  0.00    +0.011 C 
ATOM     19  C   UNL     1      36.376 -23.878 -13.088  0.00  0.00    +0.058 C 
ENDBRANCH  12  14
ENDBRANCH   8  11
ENDBRANCH   3   8
BRANCH   2  20
ATOM     20  C   UNL     1      36.203 -17.757 -22.286  0.00  0.00    +0.094 C 
BRANCH  20  22
ATOM     21  N   UNL     1      34.094 -14.027 -22.726  0.00  0.00    -0.307 N 
ATOM     22  C   UNL     1      35.082 -16.733 -22.439  0.00  0.00    +0.023 C 
ATOM     23  C   UNL     1      35.224 -15.959 -23.754  0.00  0.00    +0.023 C 
ATOM     24  C   UNL     1      35.076 -15.748 -21.265  0.00  0.00    +0.023 C 
ATOM     25  C   UNL     1      34.129 -14.905 -23.904  0.00  0.00    +0.091 C 
ATOM     26  C   UNL     1      33.985 -14.690 -21.423  0.00  0.00    +0.091 C 
BRANCH  21  28
ATOM     27  N   UNL     1      32.476 -10.161 -23.232  0.00  0.00    -0.242 NA
ATOM     28  C   UNL     1      33.557 -12.744 -22.895  0.00  0.00    +0.051 C 
ATOM     29  C   UNL     1      34.015 -11.896 -23.915  0.00  0.00    +0.035 C 
ATOM     30  C   UNL     1      32.546 -12.267 -22.046  0.00  0.00    +0.035 C 
ATOM     31  C   UNL     1      33.451 -10.637 -24.040  0.00  0.00    +0.100 C 
ATOM     32  C   UNL     1      32.048 -10.991 -22.254  0.00  0.00    +0.100 C 
ENDBRANCH  21  28
ENDBRANCH  20  22
ENDBRANCH   2  20
TORSDOF 6
ENDMDL
MODEL 3
REMARK VINA RESULT:     -10.5      1.553      2.058
REMARK  Name = 446345
REMARK  6 active torsions:
REMARK  status: ('A' for Active; 'I' for Inactive)
REMARK    1  A    between atoms: N_2  and  C_20
REMARK    2  A    between atoms: N_3  and  S_8
REMARK    3  A    between atoms: S_8  and  C_11
REMARK    4  A    between atoms: C_12  and  C_14
REMARK    5  A    between atoms: C_20  and  C_22
REMARK    6  A    between atoms: N_21  and  C_28
REMARK                            x       y       z     vdW  Elec       q    Type
REMARK                         _______ _______ _______ _____ _____    ______ ____
ROOT
ATOM      1  O   UNL     1      32.501 -20.626 -20.207  0.00  0.00    -0.273 OA
ATOM      2  N   UNL     1      34.269 -21.896 -19.408  0.00  0.00    -0.277 N 
ATOM      3  N   UNL     1      36.061 -20.011 -20.442  0.00  0.00    -0.144 NA
ATOM      4  C   UNL     1      35.704 -22.023 -19.174  0.00  0.00    +0.113 C 
ATOM      5  C   UNL     1      36.530 -21.404 -20.281  0.00  0.00    +0.118 C 
ATOM      6  C   UNL     1      33.714 -20.839 -20.124  0.00  0.00    +0.244 C 
ATOM      7  C   UNL     1      34.660 -19.962 -20.907  0.00  0.00    +0.181 C 
ENDROOT
BRANCH   3   8
ATOM      8  S   UNL     1      37.141 -18.946 -21.235  0.00  0.00    +0.065 S 
ATOM      9  O   UNL     1      37.777 -19.683 -22.313  0.00  0.00    -0.153 OA
ATOM     10  O   UNL     1      37.956 -18.301 -20.221  0.00  0.00    -0.153 OA
BRANCH   8  11
ATOM     11  C   UNL     1      36.112 -17.745 -21.941  0.00  0.00    +0.141 C 
ATOM     12  C   UNL     1      36.148 -17.616 -23.273  0.00  0.00    +0.021 C 
BRANCH  12  14
ATOM     13 CL   UNL     1      32.877 -13.734 -26.406  0.00  0.00    -0.082 Cl
ATOM     14  C   UNL     1      35.340 -16.658 -24.046  0.00  0.00    +0.001 C 
ATOM     15  C   UNL     1      34.840 -17.033 -25.283  0.00  0.00    +0.001 C 
ATOM     16  C   UNL     1      35.095 -15.397 -23.523  0.00  0.00    +0.001 C 
ATOM     17  C   UNL     1      34.075 -16.125 -26.015  0.00  0.00    +0.011 C 
ATOM     18  C   UNL     1      34.331 -14.490 -24.256  0.00  0.00    +0.011 C 
ATOM     19  C   UNL     1      33.820 -14.854 -25.502  0.00  0.00    +0.058 C 
ENDBRANCH  12  14
ENDBRANCH   8  11
ENDBRANCH   3   8
BRANCH   2  20
ATOM     20  C   UNL     1      33.411 -22.802 -18.658  0.00  0.00    +0.094 C 
BRANCH  20  22
ATOM     21  N   UNL     1      35.006 -24.083 -14.867  0.00  0.00    -0.307 N 
ATOM     22  C   UNL     1      33.789 -22.837 -17.179  0.00  0.00    +0.023 C 
ATOM     23  C   UNL     1      35.311 -22.901 -17.007  0.00  0.00    +0.023 C 
ATOM     24  C   UNL     1      33.144 -24.036 -16.477  0.00  0.00    +0.023 C 
ATOM     25  C   UNL     1      35.704 -22.974 -15.533  0.00  0.00    +0.091 C 
ATOM     26  C   UNL     1      33.547 -24.110 -15.004  0.00  0.00    +0.091 C 
BRANCH  21  28
ATOM     27  N   UNL     1      36.797 -25.706 -11.407  0.00  0.00    -0.242 NA
ATOM     28  C   UNL     1      35.601 -24.622 -13.719  0.00  0.00    +0.051 C 
ATOM     29  C   UNL     1      36.694 -25.496 -13.813  0.00  0.00    +0.035 C 
ATOM     30  C   UNL     1      35.120 -24.304 -12.439  0.00  0.00    +0.035 C 
ATOM     31  C   UNL     1      37.247 -26.002 -12.647  0.00  0.00    +0.100 C 
ATOM     32  C   UNL     1      35.742 -24.863 -11.335  0.00  0.00    +0.100 C 
ENDBRANCH  21  28
ENDBRANCH  20  22
ENDBRANCH   2  20
TORSDOF 6
ENDMDL
MODEL 4
REMARK VINA RESULT:     -10.4      7.740     11.640
REMARK  Name = 446345
REMARK  6 active torsions:
REMARK  status: ('A' for Active; 'I' for Inactive)
REMARK    1  A    between atoms: N_2  and  C_20
REMARK    2  A    between atoms: N_3  and  S_8
REMARK    3  A    between atoms: S_8  and  C_11
REMARK    4  A    between atoms: C_12  and  C_14
REMARK    5  A    between atoms: C_20  and  C_22
REMARK    6  A    between atoms: N_21  and  C_28
REMARK                            x       y       z     vdW  Elec       q    Type
REMARK                         _______ _______ _______ _____ _____    ______ ____
ROOT
ATOM      1  O   UNL     1      31.843 -10.665 -18.846  0.00  0.00    -0.273 OA
ATOM      2  N   UNL     1      31.585 -10.816 -21.145  0.00  0.00    -0.277 N 
ATOM      3  N   UNL     1      32.336  -8.130 -21.382  0.00  0.00    -0.144 NA
ATOM      4  C   UNL     1      31.740 -10.198 -22.458  0.00  0.00    +0.113 C 
ATOM      5  C   UNL     1      31.471  -8.708 -22.433  0.00  0.00    +0.118 C 
ATOM      6  C   UNL     1      31.819 -10.128 -19.957  0.00  0.00    +0.244 C 
ATOM      7  C   UNL     1      31.967  -8.629 -20.043  0.00  0.00    +0.181 C 
ENDROOT
BRANCH   3   8
ATOM      8  S   UNL     1      32.620  -6.446 -21.492  0.00  0.00    +0.065 S 
ATOM      9  O   UNL     1      33.457  -6.064 -20.367  0.00  0.00    -0.153 OA
ATOM     10  O   UNL     1      31.341  -5.790 -21.695  0.00  0.00    -0.153 OA
BRANCH   8  11
ATOM     11  C   UNL     1      33.553  -6.265 -22.940  0.00  0.00    +0.141 C 
ATOM     12  C   UNL     1      33.088  -5.414 -23.863  0.00  0.00    +0.021 C 
BRANCH  12  14
ATOM     13 CL   UNL     1      35.767  -4.243 -29.063  0.00  0.00    -0.082 Cl
ATOM     14  C   UNL     1      33.749  -5.125 -25.147  0.00  0.00    +0.001 C 
ATOM     15  C   UNL     1      35.014  -5.638 -25.391  0.00  0.00    +0.001 C 
ATOM     16  C   UNL     1      33.095  -4.346 -26.088  0.00  0.00    +0.001 C 
ATOM     17  C   UNL     1      35.640  -5.364 -26.606  0.00  0.00    +0.011 C 
ATOM     18  C   UNL     1      33.721  -4.072 -27.304  0.00  0.00    +0.011 C 
ATOM     19  C   UNL     1      34.994  -4.582 -27.563  0.00  0.00    +0.058 C 
ENDBRANCH  12  14
ENDBRANCH   8  11
ENDBRANCH   3   8
BRANCH   2  20
ATOM     20  C   UNL     1      31.399 -12.260 -21.131  0.00  0.00    +0.094 C 
BRANCH  20  22
ATOM     21  N   UNL     1      34.243 -15.353 -22.078  0.00  0.00    -0.307 N 
ATOM     22  C   UNL     1      32.711 -12.997 -21.385  0.00  0.00    +0.023 C 
ATOM     23  C   UNL     1      32.772 -13.523 -22.823  0.00  0.00    +0.023 C 
ATOM     24  C   UNL     1      32.883 -14.162 -20.406  0.00  0.00    +0.023 C 
ATOM     25  C   UNL     1      34.065 -14.295 -23.082  0.00  0.00    +0.091 C 
ATOM     26  C   UNL     1      34.173 -14.937 -20.674  0.00  0.00    +0.091 C 
BRANCH  21  28
ATOM     27  N   UNL     1      36.635 -18.661 -23.151  0.00  0.00    -0.242 NA
ATOM     28  C   UNL     1      35.037 -16.451 -22.434  0.00  0.00    +0.051 C 
ATOM     29  C   UNL     1      35.666 -17.236 -21.456  0.00  0.00    +0.035 C 
ATOM     30  C   UNL     1      35.229 -16.799 -23.780  0.00  0.00    +0.035 C 
ATOM     31  C   UNL     1      36.440 -18.312 -21.859  0.00  0.00    +0.100 C 
ATOM     32  C   UNL     1      36.023 -17.893 -24.080  0.00  0.00    +0.100 C 
ENDBRANCH  21  28
ENDBRANCH  20  22
ENDBRANCH   2  20
TORSDOF 6
ENDMDL
MODEL 5
REMARK VINA RESULT:     -10.4      6.845     14.303
REMARK  Name = 446345
REMARK  6 active torsions:
REMARK  status: ('A' for Active; 'I' for Inactive)
REMARK    1  A    between atoms: N_2  and  C_20
REMARK    2  A    between atoms: N_3  and  S_8
REMARK    3  A    between atoms: S_8  and  C_11
REMARK    4  A    between atoms: C_12  and  C_14
REMARK    5  A    between atoms: C_20  and  C_22
REMARK    6  A    between atoms: N_21  and  C_28
REMARK                            x       y       z     vdW  Elec       q    Type
REMARK                         _______ _______ _______ _____ _____    ______ ____
ROOT
ATOM      1  O   UNL     1      32.071 -12.976 -20.941  0.00  0.00    -0.273 OA
ATOM      2  N   UNL     1      32.889 -11.694 -22.692  0.00  0.00    -0.277 N 
ATOM      3  N   UNL     1      33.828 -14.023 -23.928  0.00  0.00    -0.144 NA
ATOM      4  C   UNL     1      33.500 -11.641 -24.016  0.00  0.00    +0.113 C 
ATOM      5  C   UNL     1      34.511 -12.747 -24.233  0.00  0.00    +0.118 C 
ATOM      6  C   UNL     1      32.718 -12.884 -21.989  0.00  0.00    +0.244 C 
ATOM      7  C   UNL     1      33.441 -14.102 -22.506  0.00  0.00    +0.181 C 
ENDROOT
BRANCH   3   8
ATOM      8  S   UNL     1      34.552 -15.431 -24.578  0.00  0.00    +0.065 S 
ATOM      9  O   UNL     1      35.823 -15.044 -25.165  0.00  0.00    -0.153 OA
ATOM     10  O   UNL     1      33.557 -16.110 -25.390  0.00  0.00    -0.153 OA
BRANCH   8  11
ATOM     11  C   UNL     1      34.879 -16.419 -23.193  0.00  0.00    +0.141 C 
ATOM     12  C   UNL     1      35.292 -17.671 -23.420  0.00  0.00    +0.021 C 
BRANCH  12  14
ATOM     13 CL   UNL     1      36.642 -21.633 -19.170  0.00  0.00    -0.082 Cl
ATOM     14  C   UNL     1      35.625 -18.649 -22.370  0.00  0.00    +0.001 C 
ATOM     15  C   UNL     1      36.909 -18.677 -21.850  0.00  0.00    +0.001 C 
ATOM     16  C   UNL     1      34.648 -19.525 -21.923  0.00  0.00    +0.001 C 
ATOM     17  C   UNL     1      37.225 -19.603 -20.856  0.00  0.00    +0.011 C 
ATOM     18  C   UNL     1      34.964 -20.451 -20.929  0.00  0.00    +0.011 C 
ATOM     19  C   UNL     1      36.253 -20.489 -20.396  0.00  0.00    +0.058 C 
ENDBRANCH  12  14
ENDBRANCH   8  11
ENDBRANCH   3   8
BRANCH   2  20
ATOM     20  C   UNL     1      32.247 -10.471 -22.230  0.00  0.00    +0.094 C 
BRANCH  20  22
ATOM     21  N   UNL     1      32.426  -6.518 -23.931  0.00  0.00    -0.307 N 
ATOM     22  C   UNL     1      32.456  -9.323 -23.212  0.00  0.00    +0.023 C 
ATOM     23  C   UNL     1      33.518  -8.347 -22.694  0.00  0.00    +0.023 C 
ATOM     24  C   UNL     1      31.146  -8.568 -23.459  0.00  0.00    +0.023 C 
ATOM     25  C   UNL     1      33.712  -7.171 -23.650  0.00  0.00    +0.091 C 
ATOM     26  C   UNL     1      31.346  -7.387 -24.409  0.00  0.00    +0.091 C 
BRANCH  21  28
ATOM     27  N   UNL     1      32.524  -2.473 -25.132  0.00  0.00    -0.242 NA
ATOM     28  C   UNL     1      32.459  -5.176 -24.330  0.00  0.00    +0.051 C 
ATOM     29  C   UNL     1      33.067  -4.794 -25.535  0.00  0.00    +0.035 C 
ATOM     30  C   UNL     1      31.885  -4.172 -23.535  0.00  0.00    +0.035 C 
ATOM     31  C   UNL     1      33.072  -3.453 -25.885  0.00  0.00    +0.100 C 
ATOM     32  C   UNL     1      31.943  -2.859 -23.973  0.00  0.00    +0.100 C 
ENDBRANCH  21  28
ENDBRANCH  20  22
ENDBRANCH   2  20
TORSDOF 6
ENDMDL
MODEL 6
REMARK VINA RESULT:     -10.4      4.206     11.530
REMARK  Name = 446345
REMARK  6 active torsions:
REMARK  status: ('A' for Active; 'I' for Inactive)
REMARK    1  A    between atoms: N_2  and  C_20
REMARK    2  A    between atoms: N_3  and  S_8
REMARK    3  A    between atoms: S_8  and  C_11
REMARK    4  A    between atoms: C_12  and  C_14
REMARK    5  A    between atoms: C_20  and  C_22
REMARK    6  A    between atoms: N_21  and  C_28
REMARK                            x       y       z     vdW  Elec       q    Type
REMARK                         _______ _______ _______ _____ _____    ______ ____
ROOT
ATOM      1  O   UNL     1      37.657 -20.980 -20.040  0.00  0.00    -0.273 OA
ATOM      2  N   UNL     1      35.703 -20.143 -20.966  0.00  0.00    -0.277 N 
ATOM      3  N   UNL     1      34.216 -21.745 -19.218  0.00  0.00    -0.144 NA
ATOM      4  C   UNL     1      34.247 -20.054 -20.928  0.00  0.00    +0.113 C 
ATOM      5  C   UNL     1      33.597 -21.353 -20.503  0.00  0.00    +0.118 C 
ATOM      6  C   UNL     1      36.426 -20.995 -20.136  0.00  0.00    +0.244 C 
ATOM      7  C   UNL     1      35.652 -22.046 -19.380  0.00  0.00    +0.181 C 
ENDROOT
BRANCH   3   8
ATOM      8  S   UNL     1      33.329 -22.861 -18.271  0.00  0.00    +0.065 S 
ATOM      9  O   UNL     1      33.470 -24.172 -18.882  0.00  0.00    -0.153 OA
ATOM     10  O   UNL     1      32.005 -22.306 -18.050  0.00  0.00    -0.153 OA
BRANCH   8  11
ATOM     11  C   UNL     1      34.160 -22.885 -16.752  0.00  0.00    +0.141 C 
ATOM     12  C   UNL     1      34.849 -23.993 -16.450  0.00  0.00    +0.021 C 
BRANCH  12  14
ATOM     13 CL   UNL     1      37.979 -24.793 -11.435  0.00  0.00    -0.082 Cl
ATOM     14  C   UNL     1      35.621 -24.190 -15.212  0.00  0.00    +0.001 C 
ATOM     15  C   UNL     1      37.006 -24.198 -15.269  0.00  0.00    +0.001 C 
ATOM     16  C   UNL     1      34.950 -24.364 -14.012  0.00  0.00    +0.001 C 
ATOM     17  C   UNL     1      37.738 -24.385 -14.097  0.00  0.00    +0.011 C 
ATOM     18  C   UNL     1      35.682 -24.551 -12.839  0.00  0.00    +0.011 C 
ATOM     19  C   UNL     1      37.077 -24.561 -12.882  0.00  0.00    +0.058 C 
ENDBRANCH  12  14
ENDBRANCH   8  11
ENDBRANCH   3   8
BRANCH   2  20
ATOM     20  C   UNL     1      36.390 -19.127 -21.751  0.00  0.00    +0.094 C 
BRANCH  20  22
ATOM     21  N   UNL     1      34.764 -15.817 -23.977  0.00  0.00    -0.307 N 
ATOM     22  C   UNL     1      35.405 -18.162 -22.404  0.00  0.00    +0.023 C 
ATOM     23  C   UNL     1      35.591 -18.137 -23.925  0.00  0.00    +0.023 C 
ATOM     24  C   UNL     1      35.574 -16.745 -21.845  0.00  0.00    +0.023 C 
ATOM     25  C   UNL     1      34.636 -17.147 -24.589  0.00  0.00    +0.091 C 
ATOM     26  C   UNL     1      34.623 -15.756 -22.518  0.00  0.00    +0.091 C 
BRANCH  21  28
ATOM     27  N   UNL     1      33.640 -12.488 -26.314  0.00  0.00    -0.242 NA
ATOM     28  C   UNL     1      34.391 -14.712 -24.752  0.00  0.00    +0.051 C 
ATOM     29  C   UNL     1      34.481 -13.408 -24.243  0.00  0.00    +0.035 C 
ATOM     30  C   UNL     1      33.915 -14.876 -26.062  0.00  0.00    +0.035 C 
ATOM     31  C   UNL     1      34.100 -12.348 -25.050  0.00  0.00    +0.100 C 
ATOM     32  C   UNL     1      33.558 -13.752 -26.788  0.00  0.00    +0.100 C 
ENDBRANCH  21  28
ENDBRANCH  20  22
ENDBRANCH   2  20
TORSDOF 6
ENDMDL
MODEL 7
REMARK VINA RESULT:     -10.4      4.046     10.671
REMARK  Name = 446345
REMARK  6 active torsions:
REMARK  status: ('A' for Active; 'I' for Inactive)
REMARK    1  A    between atoms: N_2  and  C_20
REMARK    2  A    between atoms: N_3  and  S_8
REMARK    3  A    between atoms: S_8  and  C_11
REMARK    4  A    between atoms: C_12  and  C_14
REMARK    5  A    between atoms: C_20  and  C_22
REMARK    6  A    between atoms: N_21  and  C_28
REMARK                            x       y       z     vdW  Elec       q    Type
REMARK                         _______ _______ _______ _____ _____    ______ ____
ROOT
ATOM      1  O   UNL     1      33.767 -19.429 -23.141  0.00  0.00    -0.273 OA
ATOM      2  N   UNL     1      35.778 -19.523 -21.990  0.00  0.00    -0.277 N 
ATOM      3  N   UNL     1      34.726 -21.546 -20.365  0.00  0.00    -0.144 NA
ATOM      4  C   UNL     1      36.610 -20.187 -20.992  0.00  0.00    +0.113 C 
ATOM      5  C   UNL     1      35.807 -20.700 -19.815  0.00  0.00    +0.118 C 
ATOM      6  C   UNL     1      34.445 -19.865 -22.206  0.00  0.00    +0.244 C 
ATOM      7  C   UNL     1      33.785 -20.755 -21.183  0.00  0.00    +0.181 C 
ENDROOT
BRANCH   3   8
ATOM      8  S   UNL     1      34.009 -22.648 -19.270  0.00  0.00    +0.065 S 
ATOM      9  O   UNL     1      34.103 -23.976 -19.852  0.00  0.00    -0.153 OA
ATOM     10  O   UNL     1      32.713 -22.117 -18.887  0.00  0.00    -0.153 OA
BRANCH   8  11
ATOM     11  C   UNL     1      35.041 -22.597 -17.880  0.00  0.00    +0.141 C 
ATOM     12  C   UNL     1      34.720 -23.393 -16.852  0.00  0.00    +0.021 C 
BRANCH  12  14
ATOM     13 CL   UNL     1      37.811 -23.791 -11.765  0.00  0.00    -0.082 Cl
ATOM     14  C   UNL     1      35.483 -23.491 -15.596  0.00  0.00    +0.001 C 
ATOM     15  C   UNL     1      36.834 -23.180 -15.595  0.00  0.00    +0.001 C 
ATOM     16  C   UNL     1      34.837 -23.893 -14.438  0.00  0.00    +0.001 C 
ATOM     17  C   UNL     1      37.556 -23.273 -14.406  0.00  0.00    +0.011 C 
ATOM     18  C   UNL     1      35.559 -23.986 -13.249  0.00  0.00    +0.011 C 
ATOM     19  C   UNL     1      36.920 -23.675 -13.233  0.00  0.00    +0.058 C 
ENDBRANCH  12  14
ENDBRANCH   8  11
ENDBRANCH   3   8
BRANCH   2  20
ATOM     20  C   UNL     1      36.468 -18.641 -22.920  0.00  0.00    +0.094 C 
BRANCH  20  22
ATOM     21  N   UNL     1      34.302 -14.978 -22.252  0.00  0.00    -0.307 N 
ATOM     22  C   UNL     1      36.146 -17.175 -22.645  0.00  0.00    +0.023 C 
ATOM     23  C   UNL     1      35.333 -17.027 -21.354  0.00  0.00    +0.023 C 
ATOM     24  C   UNL     1      35.370 -16.556 -23.811  0.00  0.00    +0.023 C 
ATOM     25  C   UNL     1      34.972 -15.567 -21.085  0.00  0.00    +0.091 C 
ATOM     26  C   UNL     1      35.004 -15.098 -23.534  0.00  0.00    +0.091 C 
BRANCH  21  28
ATOM     27  N   UNL     1      31.768 -11.672 -21.574  0.00  0.00    -0.242 NA
ATOM     28  C   UNL     1      33.461 -13.881 -22.027  0.00  0.00    +0.051 C 
ATOM     29  C   UNL     1      32.739 -13.756 -20.830  0.00  0.00    +0.035 C 
ATOM     30  C   UNL     1      33.314 -12.873 -22.992  0.00  0.00    +0.035 C 
ATOM     31  C   UNL     1      31.921 -12.652 -20.655  0.00  0.00    +0.100 C 
ATOM     32  C   UNL     1      32.470 -11.808 -22.722  0.00  0.00    +0.100 C 
ENDBRANCH  21  28
ENDBRANCH  20  22
ENDBRANCH   2  20
TORSDOF 6
ENDMDL
MODEL 8
REMARK VINA RESULT:     -10.4      2.778      4.412
REMARK  Name = 446345
REMARK  6 active torsions:
REMARK  status: ('A' for Active; 'I' for Inactive)
REMARK    1  A    between atoms: N_2  and  C_20
REMARK    2  A    between atoms: N_3  and  S_8
REMARK    3  A    between atoms: S_8  and  C_11
REMARK    4  A    between atoms: C_12  and  C_14
REMARK    5  A    between atoms: C_20  and  C_22
REMARK    6  A    between atoms: N_21  and  C_28
REMARK                            x       y       z     vdW  Elec       q    Type
REMARK                         _______ _______ _______ _____ _____    ______ ____
ROOT
ATOM      1  O   UNL     1      36.438 -17.876 -21.057  0.00  0.00    -0.273 OA
ATOM      2  N   UNL     1      35.837 -19.531 -22.565  0.00  0.00    -0.277 N 
ATOM      3  N   UNL     1      35.136 -17.555 -24.419  0.00  0.00    -0.144 NA
ATOM      4  C   UNL     1      35.413 -19.891 -23.914  0.00  0.00    +0.113 C 
ATOM      5  C   UNL     1      34.469 -18.872 -24.517  0.00  0.00    +0.118 C 
ATOM      6  C   UNL     1      35.939 -18.211 -22.136  0.00  0.00    +0.244 C 
ATOM      7  C   UNL     1      35.325 -17.148 -23.013  0.00  0.00    +0.181 C 
ENDROOT
BRANCH   3   8
ATOM      8  S   UNL     1      34.544 -16.339 -25.468  0.00  0.00    +0.065 S 
ATOM      9  O   UNL     1      33.467 -16.917 -26.254  0.00  0.00    -0.153 OA
ATOM     10  O   UNL     1      35.682 -15.734 -26.137  0.00  0.00    -0.153 OA
BRANCH   8  11
ATOM     11  C   UNL     1      33.857 -15.158 -24.404  0.00  0.00    +0.141 C 
ATOM     12  C   UNL     1      34.046 -13.870 -24.717  0.00  0.00    +0.021 C 
BRANCH  12  14
ATOM     13 CL   UNL     1      31.957  -9.260 -21.560  0.00  0.00    -0.082 Cl
ATOM     14  C   UNL     1      33.529 -12.732 -23.938  0.00  0.00    +0.001 C 
ATOM     15  C   UNL     1      33.829 -11.440 -24.342  0.00  0.00    +0.001 C 
ATOM     16  C   UNL     1      32.755 -12.973 -22.814  0.00  0.00    +0.001 C 
ATOM     17  C   UNL     1      33.341 -10.363 -23.604  0.00  0.00    +0.011 C 
ATOM     18  C   UNL     1      32.266 -11.895 -22.076  0.00  0.00    +0.011 C 
ATOM     19  C   UNL     1      32.560 -10.590 -22.472  0.00  0.00    +0.058 C 
ENDBRANCH  12  14
ENDBRANCH   8  11
ENDBRANCH   3   8
BRANCH   2  20
ATOM     20  C   UNL     1      36.378 -20.610 -21.751  0.00  0.00    +0.094 C 
BRANCH  20  22
ATOM     21  N   UNL     1      34.270 -22.287 -18.389  0.00  0.00    -0.307 N 
ATOM     22  C   UNL     1      35.629 -20.745 -20.428  0.00  0.00    +0.023 C 
ATOM     23  C   UNL     1      36.397 -21.645 -19.455  0.00  0.00    +0.023 C 
ATOM     24  C   UNL     1      34.224 -21.313 -20.651  0.00  0.00    +0.023 C 
ATOM     25  C   UNL     1      35.641 -21.819 -18.139  0.00  0.00    +0.091 C 
ATOM     26  C   UNL     1      33.474 -21.494 -19.331  0.00  0.00    +0.091 C 
BRANCH  21  28
ATOM     27  N   UNL     1      32.335 -24.381 -15.277  0.00  0.00    -0.242 NA
ATOM     28  C   UNL     1      33.628 -22.982 -17.357  0.00  0.00    +0.051 C 
ATOM     29  C   UNL     1      32.228 -23.040 -17.286  0.00  0.00    +0.035 C 
ATOM     30  C   UNL     1      34.365 -23.641 -16.361  0.00  0.00    +0.035 C 
ATOM     31  C   UNL     1      31.640 -23.740 -16.245  0.00  0.00    +0.100 C 
ATOM     32  C   UNL     1      33.683 -24.314 -15.361  0.00  0.00    +0.100 C 
ENDBRANCH  21  28
ENDBRANCH  20  22
ENDBRANCH   2  20
TORSDOF 6
ENDMDL
MODEL 9
REMARK VINA RESULT:     -10.3      6.753     10.749
REMARK  Name = 446345
REMARK  6 active torsions:
REMARK  status: ('A' for Active; 'I' for Inactive)
REMARK    1  A    between atoms: N_2  and  C_20
REMARK    2  A    between atoms: N_3  and  S_8
REMARK    3  A    between atoms: S_8  and  C_11
REMARK    4  A    between atoms: C_12  and  C_14
REMARK    5  A    between atoms: C_20  and  C_22
REMARK    6  A    between atoms: N_21  and  C_28
REMARK                            x       y       z     vdW  Elec       q    Type
REMARK                         _______ _______ _______ _____ _____    ______ ____
ROOT
ATOM      1  O   UNL     1      34.952 -11.303 -25.430  0.00  0.00    -0.273 OA
ATOM      2  N   UNL     1      33.412 -12.146 -23.916  0.00  0.00    -0.277 N 
ATOM      3  N   UNL     1      32.944  -9.549 -22.982  0.00  0.00    -0.144 NA
ATOM      4  C   UNL     1      32.385 -11.888 -22.912  0.00  0.00    +0.113 C 
ATOM      5  C   UNL     1      32.699 -10.678 -22.058  0.00  0.00    +0.118 C 
ATOM      6  C   UNL     1      34.188 -11.134 -24.475  0.00  0.00    +0.244 C 
ATOM      7  C   UNL     1      34.143  -9.781 -23.812  0.00  0.00    +0.181 C 
ENDROOT
BRANCH   3   8
ATOM      8  S   UNL     1      32.806  -7.985 -22.303  0.00  0.00    +0.065 S 
ATOM      9  O   UNL     1      33.444  -8.010 -20.998  0.00  0.00    -0.153 OA
ATOM     10  O   UNL     1      31.419  -7.568 -22.421  0.00  0.00    -0.153 OA
BRANCH   8  11
ATOM     11  C   UNL     1      33.758  -6.982 -23.346  0.00  0.00    +0.141 C 
ATOM     12  C   UNL     1      33.104  -6.263 -24.266  0.00  0.00    +0.021 C 
BRANCH  12  14
ATOM     13 CL   UNL     1      35.693  -2.571 -28.171  0.00  0.00    -0.082 Cl
ATOM     14  C   UNL     1      33.743  -5.351 -25.229  0.00  0.00    +0.001 C 
ATOM     15  C   UNL     1      33.069  -4.210 -25.637  0.00  0.00    +0.001 C 
ATOM     16  C   UNL     1      35.007  -5.651 -25.713  0.00  0.00    +0.001 C 
ATOM     17  C   UNL     1      33.674  -3.347 -26.549  0.00  0.00    +0.011 C 
ATOM     18  C   UNL     1      35.613  -4.787 -26.626  0.00  0.00    +0.011 C 
ATOM     19  C   UNL     1      34.946  -3.635 -27.044  0.00  0.00    +0.058 C 
ENDBRANCH  12  14
ENDBRANCH   8  11
ENDBRANCH   3   8
BRANCH   2  20
ATOM     20  C   UNL     1      33.433 -13.486 -24.485  0.00  0.00    +0.094 C 
BRANCH  20  22
ATOM     21  N   UNL     1      35.233 -16.851 -22.489  0.00  0.00    -0.307 N 
ATOM     22  C   UNL     1      34.445 -14.381 -23.776  0.00  0.00    +0.023 C 
ATOM     23  C   UNL     1      34.699 -15.661 -24.578  0.00  0.00    +0.023 C 
ATOM     24  C   UNL     1      33.961 -14.746 -22.369  0.00  0.00    +0.023 C 
ATOM     25  C   UNL     1      35.682 -16.585 -23.862  0.00  0.00    +0.091 C 
ATOM     26  C   UNL     1      34.944 -15.677 -21.659  0.00  0.00    +0.091 C 
BRANCH  21  28
ATOM     27  N   UNL     1      36.586 -20.406 -20.659  0.00  0.00    -0.242 NA
ATOM     28  C   UNL     1      35.682 -18.031 -21.882  0.00  0.00    +0.051 C 
ATOM     29  C   UNL     1      34.785 -19.052 -21.533  0.00  0.00    +0.035 C 
ATOM     30  C   UNL     1      37.043 -18.228 -21.602  0.00  0.00    +0.035 C 
ATOM     31  C   UNL     1      35.278 -20.200 -20.934  0.00  0.00    +0.100 C 
ATOM     32  C   UNL     1      37.437 -19.412 -21.001  0.00  0.00    +0.100 C 
ENDBRANCH  21  28
ENDBRANCH  20  22
ENDBRANCH   2  20
TORSDOF 6
ENDMDL
