MODEL 1
REMARK VINA RESULT:     -11.6      0.000      0.000
REMARK  Name = 445770
REMARK  5 active torsions:
REMARK  status: ('A' for Active; 'I' for Inactive)
REMARK    1  A    between atoms: N_2  and  C_17
REMARK    2  A    between atoms: C_3  and  C_5
REMARK    3  A    between atoms: C_6  and  S_11
REMARK    4  A    between atoms: S_11  and  N_14
REMARK    5  A    between atoms: C_17  and  C_23
REMARK                            x       y       z     vdW  Elec       q    Type
REMARK                         _______ _______ _______ _____ _____    ______ ____
ROOT
ATOM      1  O   UNL     1      37.510 -18.839 -21.819  0.00  0.00    -0.270 OA
ATOM      2  N   UNL     1      35.445 -18.287 -22.714  0.00  0.00    -0.297 N 
ATOM      3  C   UNL     1      36.280 -19.015 -21.860  0.00  0.00    +0.246 C 
ATOM      4  H   UNL     1      34.478 -18.478 -22.697  0.00  0.00    +0.150 HD
ENDROOT
BRANCH   3   5
ATOM      5  C   UNL     1      35.651 -20.026 -21.025  0.00  0.00    +0.053 C 
ATOM      6  C   UNL     1      34.443 -21.964 -19.423  0.00  0.00    +0.122 C 
ATOM      7  C   UNL     1      36.436 -20.871 -20.241  0.00  0.00    +0.006 C 
ATOM      8  C   UNL     1      34.261 -20.150 -21.009  0.00  0.00    +0.006 C 
ATOM      9  C   UNL     1      35.832 -21.840 -19.440  0.00  0.00    +0.020 C 
ATOM     10  C   UNL     1      33.657 -21.119 -20.207  0.00  0.00    +0.020 C 
BRANCH   6  11
ATOM     11  S   UNL     1      33.687 -23.176 -18.420  0.00  0.00    +0.057 S 
ATOM     12  O   UNL     1      33.821 -24.470 -19.075  0.00  0.00    -0.153 OA
ATOM     13  O   UNL     1      32.368 -22.695 -18.032  0.00  0.00    -0.153 OA
BRANCH  11  14
ATOM     14  N   UNL     1      34.708 -23.148 -17.049  0.00  0.00    -0.203 NA
ATOM     15  H   UNL     1      35.633 -23.490 -17.308  0.00  0.00    +0.144 HD
ATOM     16  H   UNL     1      34.316 -23.744 -16.321  0.00  0.00    +0.144 HD
ENDBRANCH  11  14
ENDBRANCH   6  11
ENDBRANCH   3   5
BRANCH   2  17
ATOM     17  C   UNL     1      35.922 -17.266 -23.621  0.00  0.00    +0.121 C 
BRANCH  17  23
ATOM     18  F   UNL     1      35.359 -15.993 -21.164  0.00  0.00    -0.202 F 
ATOM     19  F   UNL     1      34.830 -15.980 -25.882  0.00  0.00    -0.202 F 
ATOM     20  F   UNL     1      33.350 -13.696 -25.702  0.00  0.00    -0.199 F 
ATOM     21  F   UNL     1      33.882 -13.708 -20.997  0.00  0.00    -0.199 F 
ATOM     22  F   UNL     1      32.875 -12.557 -23.264  0.00  0.00    -0.199 F 
ATOM     23  C   UNL     1      35.106 -16.005 -23.524  0.00  0.00    +0.057 A 
ATOM     24  C   UNL     1      34.871 -15.435 -22.280  0.00  0.00    +0.170 A 
ATOM     25  C   UNL     1      34.601 -15.429 -24.681  0.00  0.00    +0.170 A 
ATOM     26  C   UNL     1      33.845 -14.260 -24.593  0.00  0.00    +0.197 A 
ATOM     27  C   UNL     1      34.114 -14.267 -22.192  0.00  0.00    +0.197 A 
ATOM     28  C   UNL     1      33.601 -13.679 -23.348  0.00  0.00    +0.199 A 
ENDBRANCH  17  23
ENDBRANCH   2  17
TORSDOF 5
ENDMDL
MODEL 2
REMARK VINA RESULT:     -11.6      0.014      2.129
REMARK  Name = 445770
REMARK  5 active torsions:
REMARK  status: ('A' for Active; 'I' for Inactive)
REMARK    1  A    between atoms: N_2  and  C_17
REMARK    2  A    between atoms: C_3  and  C_5
REMARK    3  A    between atoms: C_6  and  S_11
REMARK    4  A    between atoms: S_11  and  N_14
REMARK    5  A    between atoms: C_17  and  C_23
REMARK                            x       y       z     vdW  Elec       q    Type
REMARK                         _______ _______ _______ _____ _____    ______ ____
ROOT
ATOM      1  O   UNL     1      37.514 -18.838 -21.816  0.00  0.00    -0.270 OA
ATOM      2  N   UNL     1      35.451 -18.291 -22.721  0.00  0.00    -0.297 N 
ATOM      3  C   UNL     1      36.284 -19.017 -21.862  0.00  0.00    +0.246 C 
ATOM      4  H   UNL     1      34.485 -18.484 -22.707  0.00  0.00    +0.150 HD
ENDROOT
BRANCH   3   5
ATOM      5  C   UNL     1      35.653 -20.027 -21.028  0.00  0.00    +0.053 C 
ATOM      6  C   UNL     1      34.442 -21.965 -19.428  0.00  0.00    +0.122 C 
ATOM      7  C   UNL     1      36.437 -20.874 -20.245  0.00  0.00    +0.006 C 
ATOM      8  C   UNL     1      34.263 -20.149 -21.012  0.00  0.00    +0.006 C 
ATOM      9  C   UNL     1      35.831 -21.843 -19.445  0.00  0.00    +0.020 C 
ATOM     10  C   UNL     1      33.658 -21.118 -20.211  0.00  0.00    +0.020 C 
BRANCH   6  11
ATOM     11  S   UNL     1      33.683 -23.177 -18.426  0.00  0.00    +0.057 S 
ATOM     12  O   UNL     1      33.823 -24.471 -19.079  0.00  0.00    -0.153 OA
ATOM     13  O   UNL     1      32.362 -22.698 -18.046  0.00  0.00    -0.153 OA
BRANCH  11  14
ATOM     14  N   UNL     1      34.697 -23.143 -17.051  0.00  0.00    -0.203 NA
ATOM     15  H   UNL     1      34.613 -22.238 -16.588  0.00  0.00    +0.144 HD
ATOM     16  H   UNL     1      35.665 -23.289 -17.339  0.00  0.00    +0.144 HD
ENDBRANCH  11  14
ENDBRANCH   6  11
ENDBRANCH   3   5
BRANCH   2  17
ATOM     17  C   UNL     1      35.931 -17.271 -23.627  0.00  0.00    +0.121 C 
BRANCH  17  23
ATOM     18  F   UNL     1      34.835 -15.993 -25.895  0.00  0.00    -0.202 F 
ATOM     19  F   UNL     1      35.364 -15.992 -21.176  0.00  0.00    -0.202 F 
ATOM     20  F   UNL     1      33.882 -13.709 -21.017  0.00  0.00    -0.199 F 
ATOM     21  F   UNL     1      33.351 -13.713 -25.723  0.00  0.00    -0.199 F 
ATOM     22  F   UNL     1      32.873 -12.567 -23.286  0.00  0.00    -0.199 F 
ATOM     23  C   UNL     1      35.112 -16.011 -23.537  0.00  0.00    +0.057 A 
ATOM     24  C   UNL     1      34.605 -15.440 -24.696  0.00  0.00    +0.170 A 
ATOM     25  C   UNL     1      34.875 -15.439 -22.295  0.00  0.00    +0.170 A 
ATOM     26  C   UNL     1      34.116 -14.272 -22.210  0.00  0.00    +0.197 A 
ATOM     27  C   UNL     1      33.847 -14.272 -24.611  0.00  0.00    +0.197 A 
ATOM     28  C   UNL     1      33.601 -13.688 -23.368  0.00  0.00    +0.199 A 
ENDBRANCH  17  23
ENDBRANCH   2  17
TORSDOF 5
ENDMDL
MODEL 3
REMARK VINA RESULT:     -10.4      6.323     10.379
REMARK  Name = 445770
REMARK  5 active torsions:
REMARK  status: ('A' for Active; 'I' for Inactive)
REMARK    1  A    between atoms: N_2  and  C_17
REMARK    2  A    between atoms: C_3  and  C_5
REMARK    3  A    between atoms: C_6  and  S_11
REMARK    4  A    between atoms: S_11  and  N_14
REMARK    5  A    between atoms: C_17  and  C_23
REMARK                            x       y       z     vdW  Elec       q    Type
REMARK                         _______ _______ _______ _____ _____    ______ ____
ROOT
ATOM      1  O   UNL     1      33.733 -24.186 -18.956  0.00  0.00    -0.270 OA
ATOM      2  N   UNL     1      34.264 -22.912 -17.093  0.00  0.00    -0.297 N 
ATOM      3  C   UNL     1      34.161 -23.123 -18.473  0.00  0.00    +0.246 C 
ATOM      4  H   UNL     1      34.611 -22.046 -16.778  0.00  0.00    +0.150 HD
ENDROOT
BRANCH   3   5
ATOM      5  C   UNL     1      34.606 -22.043 -19.341  0.00  0.00    +0.053 C 
ATOM      6  C   UNL     1      35.459 -19.973 -21.004  0.00  0.00    +0.122 C 
ATOM      7  C   UNL     1      33.671 -21.285 -20.045  0.00  0.00    +0.006 C 
ATOM      8  C   UNL     1      35.967 -21.768 -19.468  0.00  0.00    +0.006 C 
ATOM      9  C   UNL     1      34.098 -20.250 -20.877  0.00  0.00    +0.020 C 
ATOM     10  C   UNL     1      36.394 -20.732 -20.300  0.00  0.00    +0.020 C 
BRANCH   6  11
ATOM     11  S   UNL     1      35.993 -18.677 -22.044  0.00  0.00    +0.057 S 
ATOM     12  O   UNL     1      35.624 -17.409 -21.431  0.00  0.00    -0.153 OA
ATOM     13  O   UNL     1      35.567 -18.974 -23.405  0.00  0.00    -0.153 OA
BRANCH  11  14
ATOM     14  N   UNL     1      37.690 -18.860 -21.947  0.00  0.00    -0.203 NA
ATOM     15  H   UNL     1      38.132 -18.336 -22.701  0.00  0.00    +0.144 HD
ATOM     16  H   UNL     1      37.931 -19.847 -22.032  0.00  0.00    +0.144 HD
ENDBRANCH  11  14
ENDBRANCH   6  11
ENDBRANCH   3   5
BRANCH   2  17
ATOM     17  C   UNL     1      33.885 -23.897 -16.104  0.00  0.00    +0.121 C 
BRANCH  17  23
ATOM     18  F   UNL     1      36.632 -23.526 -16.647  0.00  0.00    -0.202 F 
ATOM     19  F   UNL     1      33.309 -24.645 -13.445  0.00  0.00    -0.202 F 
ATOM     20  F   UNL     1      35.250 -24.983 -11.560  0.00  0.00    -0.199 F 
ATOM     21  F   UNL     1      38.563 -23.863 -14.752  0.00  0.00    -0.199 F 
ATOM     22  F   UNL     1      37.876 -24.593 -12.207  0.00  0.00    -0.199 F 
ATOM     23  C   UNL     1      34.955 -24.083 -15.061  0.00  0.00    +0.057 A 
ATOM     24  C   UNL     1      36.286 -23.882 -15.402  0.00  0.00    +0.170 A 
ATOM     25  C   UNL     1      34.595 -24.452 -13.773  0.00  0.00    +0.170 A 
ATOM     26  C   UNL     1      35.585 -24.625 -12.805  0.00  0.00    +0.197 A 
ATOM     27  C   UNL     1      37.275 -24.056 -14.435  0.00  0.00    +0.197 A 
ATOM     28  C   UNL     1      36.926 -24.427 -13.136  0.00  0.00    +0.199 A 
ENDBRANCH  17  23
ENDBRANCH   2  17
TORSDOF 5
ENDMDL
MODEL 4
REMARK VINA RESULT:     -10.4      6.301     10.185
REMARK  Name = 445770
REMARK  5 active torsions:
REMARK  status: ('A' for Active; 'I' for Inactive)
REMARK    1  A    between atoms: N_2  and  C_17
REMARK    2  A    between atoms: C_3  and  C_5
REMARK    3  A    between atoms: C_6  and  S_11
REMARK    4  A    between atoms: S_11  and  N_14
REMARK    5  A    between atoms: C_17  and  C_23
REMARK                            x       y       z     vdW  Elec       q    Type
REMARK                         _______ _______ _______ _____ _____    ______ ____
ROOT
ATOM      1  O   UNL     1      33.767 -24.165 -18.983  0.00  0.00    -0.270 OA
ATOM      2  N   UNL     1      34.290 -22.899 -17.114  0.00  0.00    -0.297 N 
ATOM      3  C   UNL     1      34.188 -23.102 -18.494  0.00  0.00    +0.246 C 
ATOM      4  H   UNL     1      34.633 -22.033 -16.794  0.00  0.00    +0.150 HD
ENDROOT
BRANCH   3   5
ATOM      5  C   UNL     1      34.626 -22.016 -19.356  0.00  0.00    +0.053 C 
ATOM      6  C   UNL     1      35.465 -19.931 -21.009  0.00  0.00    +0.122 C 
ATOM      7  C   UNL     1      35.986 -21.732 -19.485  0.00  0.00    +0.006 C 
ATOM      8  C   UNL     1      33.685 -21.257 -20.053  0.00  0.00    +0.006 C 
ATOM      9  C   UNL     1      36.405 -20.690 -20.311  0.00  0.00    +0.020 C 
ATOM     10  C   UNL     1      34.106 -20.214 -20.880  0.00  0.00    +0.020 C 
BRANCH   6  11
ATOM     11  S   UNL     1      35.990 -18.627 -22.045  0.00  0.00    +0.057 S 
ATOM     12  O   UNL     1      35.677 -17.363 -21.393  0.00  0.00    -0.153 OA
ATOM     13  O   UNL     1      35.503 -18.886 -23.392  0.00  0.00    -0.153 OA
BRANCH  11  14
ATOM     14  N   UNL     1      37.684 -18.853 -22.018  0.00  0.00    -0.203 NA
ATOM     15  H   UNL     1      38.141 -17.970 -21.793  0.00  0.00    +0.144 HD
ATOM     16  H   UNL     1      37.998 -19.175 -22.934  0.00  0.00    +0.144 HD
ENDBRANCH  11  14
ENDBRANCH   6  11
ENDBRANCH   3   5
BRANCH   2  17
ATOM     17  C   UNL     1      33.918 -23.891 -16.130  0.00  0.00    +0.121 C 
BRANCH  17  23
ATOM     18  F   UNL     1      33.329 -24.656 -13.476  0.00  0.00    -0.202 F 
ATOM     19  F   UNL     1      36.660 -23.465 -16.642  0.00  0.00    -0.202 F 
ATOM     20  F   UNL     1      38.578 -23.766 -14.727  0.00  0.00    -0.199 F 
ATOM     21  F   UNL     1      35.255 -24.958 -11.570  0.00  0.00    -0.199 F 
ATOM     22  F   UNL     1      37.881 -24.513 -12.192  0.00  0.00    -0.199 F 
ATOM     23  C   UNL     1      34.979 -24.058 -15.074  0.00  0.00    +0.057 A 
ATOM     24  C   UNL     1      34.613 -24.437 -13.790  0.00  0.00    +0.170 A 
ATOM     25  C   UNL     1      36.308 -23.831 -15.401  0.00  0.00    +0.170 A 
ATOM     26  C   UNL     1      37.292 -23.985 -14.424  0.00  0.00    +0.197 A 
ATOM     27  C   UNL     1      35.596 -24.591 -12.813  0.00  0.00    +0.197 A 
ATOM     28  C   UNL     1      36.936 -24.365 -13.129  0.00  0.00    +0.199 A 
ENDBRANCH  17  23
ENDBRANCH   2  17
TORSDOF 5
ENDMDL
MODEL 5
REMARK VINA RESULT:     -10.3      6.535     10.470
REMARK  Name = 445770
REMARK  5 active torsions:
REMARK  status: ('A' for Active; 'I' for Inactive)
REMARK    1  A    between atoms: N_2  and  C_17
REMARK    2  A    between atoms: C_3  and  C_5
REMARK    3  A    between atoms: C_6  and  S_11
REMARK    4  A    between atoms: S_11  and  N_14
REMARK    5  A    between atoms: C_17  and  C_23
REMARK                            x       y       z     vdW  Elec       q    Type
REMARK                         _______ _______ _______ _____ _____    ______ ____
ROOT
ATOM      1  O   UNL     1      33.709 -24.178 -18.766  0.00  0.00    -0.270 OA
ATOM      2  N   UNL     1      34.855 -23.166 -17.024  0.00  0.00    -0.297 N 
ATOM      3  C   UNL     1      34.391 -23.228 -18.343  0.00  0.00    +0.246 C 
ATOM      4  H   UNL     1      35.392 -22.385 -16.755  0.00  0.00    +0.150 HD
ENDROOT
BRANCH   3   5
ATOM      5  C   UNL     1      34.764 -22.135 -19.227  0.00  0.00    +0.053 C 
ATOM      6  C   UNL     1      35.480 -20.038 -20.921  0.00  0.00    +0.122 C 
ATOM      7  C   UNL     1      33.778 -21.420 -19.905  0.00  0.00    +0.006 C 
ATOM      8  C   UNL     1      36.109 -21.803 -19.395  0.00  0.00    +0.006 C 
ATOM      9  C   UNL     1      34.136 -20.371 -20.753  0.00  0.00    +0.020 C 
ATOM     10  C   UNL     1      36.466 -20.754 -20.242  0.00  0.00    +0.020 C 
BRANCH   6  11
ATOM     11  S   UNL     1      35.928 -18.725 -21.981  0.00  0.00    +0.057 S 
ATOM     12  O   UNL     1      35.513 -17.472 -21.367  0.00  0.00    -0.153 OA
ATOM     13  O   UNL     1      35.486 -19.051 -23.329  0.00  0.00    -0.153 OA
BRANCH  11  14
ATOM     14  N   UNL     1      37.633 -18.826 -21.921  0.00  0.00    -0.203 NA
ATOM     15  H   UNL     1      37.940 -18.828 -20.949  0.00  0.00    +0.144 HD
ATOM     16  H   UNL     1      38.038 -18.024 -22.404  0.00  0.00    +0.144 HD
ENDBRANCH  11  14
ENDBRANCH   6  11
ENDBRANCH   3   5
BRANCH   2  17
ATOM     17  C   UNL     1      34.589 -24.186 -16.034  0.00  0.00    +0.121 C 
BRANCH  17  23
ATOM     18  F   UNL     1      35.780 -22.291 -14.311  0.00  0.00    -0.202 F 
ATOM     19  F   UNL     1      35.870 -26.700 -16.071  0.00  0.00    -0.202 F 
ATOM     20  F   UNL     1      38.077 -27.248 -14.567  0.00  0.00    -0.199 F 
ATOM     21  F   UNL     1      37.985 -22.852 -12.809  0.00  0.00    -0.199 F 
ATOM     22  F   UNL     1      39.137 -25.329 -12.935  0.00  0.00    -0.199 F 
ATOM     23  C   UNL     1      35.807 -24.491 -15.203  0.00  0.00    +0.057 A 
ATOM     24  C   UNL     1      36.337 -23.508 -14.378  0.00  0.00    +0.170 A 
ATOM     25  C   UNL     1      36.383 -25.752 -15.274  0.00  0.00    +0.170 A 
ATOM     26  C   UNL     1      37.512 -26.036 -14.505  0.00  0.00    +0.197 A 
ATOM     27  C   UNL     1      37.466 -23.792 -13.610  0.00  0.00    +0.197 A 
ATOM     28  C   UNL     1      38.053 -25.056 -13.673  0.00  0.00    +0.199 A 
ENDBRANCH  17  23
ENDBRANCH   2  17
TORSDOF 5
ENDMDL
MODEL 6
REMARK VINA RESULT:     -10.2      6.572     10.590
REMARK  Name = 445770
REMARK  5 active torsions:
REMARK  status: ('A' for Active; 'I' for Inactive)
REMARK    1  A    between atoms: N_2  and  C_17
REMARK    2  A    between atoms: C_3  and  C_5
REMARK    3  A    between atoms: C_6  and  S_11
REMARK    4  A    between atoms: S_11  and  N_14
REMARK    5  A    between atoms: C_17  and  C_23
REMARK                            x       y       z     vdW  Elec       q    Type
REMARK                         _______ _______ _______ _____ _____    ______ ____
ROOT
ATOM      1  O   UNL     1      33.102 -23.499 -18.319  0.00  0.00    -0.270 OA
ATOM      2  N   UNL     1      35.051 -23.274 -17.085  0.00  0.00    -0.297 N 
ATOM      3  C   UNL     1      34.211 -22.959 -18.158  0.00  0.00    +0.246 C 
ATOM      4  H   UNL     1      35.917 -22.808 -17.019  0.00  0.00    +0.150 HD
ENDROOT
BRANCH   3   5
ATOM      5  C   UNL     1      34.700 -21.978 -19.115  0.00  0.00    +0.053 C 
ATOM      6  C   UNL     1      35.637 -20.097 -20.949  0.00  0.00    +0.122 C 
ATOM      7  C   UNL     1      36.068 -21.734 -19.225  0.00  0.00    +0.006 C 
ATOM      8  C   UNL     1      33.799 -21.282 -19.921  0.00  0.00    +0.006 C 
ATOM      9  C   UNL     1      36.537 -20.793 -20.142  0.00  0.00    +0.020 C 
ATOM     10  C   UNL     1      34.268 -20.341 -20.839  0.00  0.00    +0.020 C 
BRANCH   6  11
ATOM     11  S   UNL     1      36.223 -18.920 -22.097  0.00  0.00    +0.057 S 
ATOM     12  O   UNL     1      35.588 -19.172 -23.383  0.00  0.00    -0.153 OA
ATOM     13  O   UNL     1      37.676 -18.873 -22.006  0.00  0.00    -0.153 OA
BRANCH  11  14
ATOM     14  N   UNL     1      35.583 -17.478 -21.442  0.00  0.00    -0.203 NA
ATOM     15  H   UNL     1      35.431 -17.598 -20.441  0.00  0.00    +0.144 HD
ATOM     16  H   UNL     1      34.696 -17.262 -21.897  0.00  0.00    +0.144 HD
ENDBRANCH  11  14
ENDBRANCH   6  11
ENDBRANCH   3   5
BRANCH   2  17
ATOM     17  C   UNL     1      34.718 -24.244 -16.066  0.00  0.00    +0.121 C 
BRANCH  17  23
ATOM     18  F   UNL     1      35.984 -26.768 -16.145  0.00  0.00    -0.202 F 
ATOM     19  F   UNL     1      35.865 -22.417 -14.247  0.00  0.00    -0.202 F 
ATOM     20  F   UNL     1      38.017 -23.043 -12.694  0.00  0.00    -0.199 F 
ATOM     21  F   UNL     1      38.138 -27.380 -14.591  0.00  0.00    -0.199 F 
ATOM     22  F   UNL     1      39.157 -25.521 -12.863  0.00  0.00    -0.199 F 
ATOM     23  C   UNL     1      35.907 -24.587 -15.209  0.00  0.00    +0.057 A 
ATOM     24  C   UNL     1      36.478 -25.850 -15.303  0.00  0.00    +0.170 A 
ATOM     25  C   UNL     1      36.416 -23.636 -14.337  0.00  0.00    +0.170 A 
ATOM     26  C   UNL     1      37.518 -23.952 -13.542  0.00  0.00    +0.197 A 
ATOM     27  C   UNL     1      37.578 -26.166 -14.508  0.00  0.00    +0.197 A 
ATOM     28  C   UNL     1      38.100 -25.218 -13.627  0.00  0.00    +0.199 A 
ENDBRANCH  17  23
ENDBRANCH   2  17
TORSDOF 5
ENDMDL
MODEL 7
REMARK VINA RESULT:     -10.2      9.182     11.154
REMARK  Name = 445770
REMARK  5 active torsions:
REMARK  status: ('A' for Active; 'I' for Inactive)
REMARK    1  A    between atoms: N_2  and  C_17
REMARK    2  A    between atoms: C_3  and  C_5
REMARK    3  A    between atoms: C_6  and  S_11
REMARK    4  A    between atoms: S_11  and  N_14
REMARK    5  A    between atoms: C_17  and  C_23
REMARK                            x       y       z     vdW  Elec       q    Type
REMARK                         _______ _______ _______ _____ _____    ______ ____
ROOT
ATOM      1  O   UNL     1      35.127 -25.132 -11.539  0.00  0.00    -0.270 OA
ATOM      2  N   UNL     1      34.415 -24.082 -13.478  0.00  0.00    -0.297 N 
ATOM      3  C   UNL     1      35.364 -24.751 -12.698  0.00  0.00    +0.246 C 
ATOM      4  H   UNL     1      34.670 -23.807 -14.389  0.00  0.00    +0.150 HD
ENDROOT
BRANCH   3   5
ATOM      5  C   UNL     1      36.675 -24.966 -13.292  0.00  0.00    +0.053 C 
ATOM      6  C   UNL     1      39.187 -25.378 -14.433  0.00  0.00    +0.122 C 
ATOM      7  C   UNL     1      37.650 -25.676 -12.593  0.00  0.00    +0.006 C 
ATOM      8  C   UNL     1      36.955 -24.460 -14.562  0.00  0.00    +0.006 C 
ATOM      9  C   UNL     1      38.906 -25.882 -13.163  0.00  0.00    +0.020 C 
ATOM     10  C   UNL     1      38.212 -24.667 -15.132  0.00  0.00    +0.020 C 
BRANCH   6  11
ATOM     11  S   UNL     1      40.759 -25.636 -15.147  0.00  0.00    +0.057 S 
ATOM     12  O   UNL     1      41.568 -24.445 -14.930  0.00  0.00    -0.153 OA
ATOM     13  O   UNL     1      40.571 -26.147 -16.498  0.00  0.00    -0.153 OA
BRANCH  11  14
ATOM     14  N   UNL     1      41.361 -26.896 -14.161  0.00  0.00    -0.203 NA
ATOM     15  H   UNL     1      42.315 -26.679 -13.877  0.00  0.00    +0.144 HD
ATOM     16  H   UNL     1      41.353 -27.771 -14.686  0.00  0.00    +0.144 HD
ENDBRANCH  11  14
ENDBRANCH   6  11
ENDBRANCH   3   5
BRANCH   2  17
ATOM     17  C   UNL     1      33.078 -23.773 -13.021  0.00  0.00    +0.121 C 
BRANCH  17  23
ATOM     18  F   UNL     1      33.588 -22.487 -15.483  0.00  0.00    -0.202 F 
ATOM     19  F   UNL     1      30.558 -25.031 -12.858  0.00  0.00    -0.202 F 
ATOM     20  F   UNL     1      28.765 -25.002 -14.912  0.00  0.00    -0.199 F 
ATOM     21  F   UNL     1      31.789 -22.468 -17.532  0.00  0.00    -0.199 F 
ATOM     22  F   UNL     1      29.376 -23.724 -17.250  0.00  0.00    -0.199 F 
ATOM     23  C   UNL     1      32.088 -23.759 -14.154  0.00  0.00    +0.057 A 
ATOM     24  C   UNL     1      32.409 -23.106 -15.337  0.00  0.00    +0.170 A 
ATOM     25  C   UNL     1      30.867 -24.400 -14.000  0.00  0.00    +0.170 A 
ATOM     26  C   UNL     1      29.947 -24.389 -15.050  0.00  0.00    +0.197 A 
ATOM     27  C   UNL     1      31.489 -23.094 -16.385  0.00  0.00    +0.197 A 
ATOM     28  C   UNL     1      30.259 -23.735 -16.243  0.00  0.00    +0.199 A 
ENDBRANCH  17  23
ENDBRANCH   2  17
TORSDOF 5
ENDMDL
MODEL 8
REMARK VINA RESULT:     -10.2      9.296     11.113
REMARK  Name = 445770
REMARK  5 active torsions:
REMARK  status: ('A' for Active; 'I' for Inactive)
REMARK    1  A    between atoms: N_2  and  C_17
REMARK    2  A    between atoms: C_3  and  C_5
REMARK    3  A    between atoms: C_6  and  S_11
REMARK    4  A    between atoms: S_11  and  N_14
REMARK    5  A    between atoms: C_17  and  C_23
REMARK                            x       y       z     vdW  Elec       q    Type
REMARK                         _______ _______ _______ _____ _____    ______ ____
ROOT
ATOM      1  O   UNL     1      35.071 -25.068 -11.571  0.00  0.00    -0.270 OA
ATOM      2  N   UNL     1      34.385 -23.961 -13.489  0.00  0.00    -0.297 N 
ATOM      3  C   UNL     1      35.319 -24.666 -12.721  0.00  0.00    +0.246 C 
ATOM      4  H   UNL     1      34.648 -23.671 -14.393  0.00  0.00    +0.150 HD
ENDROOT
BRANCH   3   5
ATOM      5  C   UNL     1      36.626 -24.894 -13.317  0.00  0.00    +0.053 C 
ATOM      6  C   UNL     1      39.133 -25.331 -14.460  0.00  0.00    +0.122 C 
ATOM      7  C   UNL     1      37.545 -25.730 -12.683  0.00  0.00    +0.006 C 
ATOM      8  C   UNL     1      36.960 -24.275 -14.522  0.00  0.00    +0.006 C 
ATOM      9  C   UNL     1      38.799 -25.948 -13.255  0.00  0.00    +0.020 C 
ATOM     10  C   UNL     1      38.214 -24.495 -15.094  0.00  0.00    +0.020 C 
BRANCH   6  11
ATOM     11  S   UNL     1      40.701 -25.605 -15.177  0.00  0.00    +0.057 S 
ATOM     12  O   UNL     1      41.505 -24.402 -15.007  0.00  0.00    -0.153 OA
ATOM     13  O   UNL     1      40.508 -26.163 -16.507  0.00  0.00    -0.153 OA
BRANCH  11  14
ATOM     14  N   UNL     1      41.318 -26.826 -14.152  0.00  0.00    -0.203 NA
ATOM     15  H   UNL     1      41.382 -26.470 -13.199  0.00  0.00    +0.144 HD
ATOM     16  H   UNL     1      42.245 -27.104 -14.474  0.00  0.00    +0.144 HD
ENDBRANCH  11  14
ENDBRANCH   6  11
ENDBRANCH   3   5
BRANCH   2  17
ATOM     17  C   UNL     1      33.054 -23.636 -13.028  0.00  0.00    +0.121 C 
BRANCH  17  23
ATOM     18  F   UNL     1      30.685 -25.148 -12.750  0.00  0.00    -0.202 F 
ATOM     19  F   UNL     1      33.353 -22.381 -15.537  0.00  0.00    -0.202 F 
ATOM     20  F   UNL     1      31.504 -22.616 -17.528  0.00  0.00    -0.199 F 
ATOM     21  F   UNL     1      28.842 -25.372 -14.746  0.00  0.00    -0.199 F 
ATOM     22  F   UNL     1      29.248 -24.108 -17.137  0.00  0.00    -0.199 F 
ATOM     23  C   UNL     1      32.034 -23.763 -14.128  0.00  0.00    +0.057 A 
ATOM     24  C   UNL     1      30.892 -24.524 -13.918  0.00  0.00    +0.170 A 
ATOM     25  C   UNL     1      32.250 -23.116 -15.336  0.00  0.00    +0.170 A 
ATOM     26  C   UNL     1      31.306 -23.233 -16.356  0.00  0.00    +0.197 A 
ATOM     27  C   UNL     1      29.948 -24.641 -14.938  0.00  0.00    +0.197 A 
ATOM     28  C   UNL     1      30.154 -23.996 -16.157  0.00  0.00    +0.199 A 
ENDBRANCH  17  23
ENDBRANCH   2  17
TORSDOF 5
ENDMDL
MODEL 9
REMARK VINA RESULT:     -10.1      1.099      2.074
REMARK  Name = 445770
REMARK  5 active torsions:
REMARK  status: ('A' for Active; 'I' for Inactive)
REMARK    1  A    between atoms: N_2  and  C_17
REMARK    2  A    between atoms: C_3  and  C_5
REMARK    3  A    between atoms: C_6  and  S_11
REMARK    4  A    between atoms: S_11  and  N_14
REMARK    5  A    between atoms: C_17  and  C_23
REMARK                            x       y       z     vdW  Elec       q    Type
REMARK                         _______ _______ _______ _____ _____    ______ ____
ROOT
ATOM      1  O   UNL     1      37.444 -19.034 -22.209  0.00  0.00    -0.270 OA
ATOM      2  N   UNL     1      35.712 -17.596 -21.658  0.00  0.00    -0.297 N 
ATOM      3  C   UNL     1      36.366 -18.832 -21.623  0.00  0.00    +0.246 C 
ATOM      4  H   UNL     1      34.860 -17.505 -21.172  0.00  0.00    +0.150 HD
ENDROOT
BRANCH   3   5
ATOM      5  C   UNL     1      35.714 -19.903 -20.886  0.00  0.00    +0.053 C 
ATOM      6  C   UNL     1      34.464 -21.958 -19.472  0.00  0.00    +0.122 C 
ATOM      7  C   UNL     1      34.328 -20.050 -20.948  0.00  0.00    +0.006 C 
ATOM      8  C   UNL     1      36.475 -20.783 -20.116  0.00  0.00    +0.006 C 
ATOM      9  C   UNL     1      33.703 -21.077 -20.241  0.00  0.00    +0.020 C 
ATOM     10  C   UNL     1      35.850 -21.811 -19.409  0.00  0.00    +0.020 C 
BRANCH   6  11
ATOM     11  S   UNL     1      33.682 -23.244 -18.588  0.00  0.00    +0.057 S 
ATOM     12  O   UNL     1      33.831 -24.481 -19.342  0.00  0.00    -0.153 OA
ATOM     13  O   UNL     1      32.355 -22.792 -18.195  0.00  0.00    -0.153 OA
BRANCH  11  14
ATOM     14  N   UNL     1      34.669 -23.329 -17.195  0.00  0.00    -0.203 NA
ATOM     15  H   UNL     1      35.484 -22.729 -17.319  0.00  0.00    +0.144 HD
ATOM     16  H   UNL     1      34.974 -24.292 -17.053  0.00  0.00    +0.144 HD
ENDBRANCH  11  14
ENDBRANCH   6  11
ENDBRANCH   3   5
BRANCH   2  17
ATOM     17  C   UNL     1      36.220 -16.442 -22.367  0.00  0.00    +0.121 C 
BRANCH  17  23
ATOM     18  F   UNL     1      35.059 -13.871 -22.491  0.00  0.00    -0.202 F 
ATOM     19  F   UNL     1      35.509 -18.150 -24.497  0.00  0.00    -0.202 F 
ATOM     20  F   UNL     1      33.835 -17.377 -26.506  0.00  0.00    -0.199 F 
ATOM     21  F   UNL     1      33.390 -13.108 -24.507  0.00  0.00    -0.199 F 
ATOM     22  F   UNL     1      32.775 -14.858 -26.516  0.00  0.00    -0.199 F 
ATOM     23  C   UNL     1      35.297 -16.017 -23.478  0.00  0.00    +0.057 A 
ATOM     24  C   UNL     1      34.764 -14.735 -23.472  0.00  0.00    +0.170 A 
ATOM     25  C   UNL     1      34.993 -16.913 -24.493  0.00  0.00    +0.170 A 
ATOM     26  C   UNL     1      34.138 -16.520 -25.523  0.00  0.00    +0.197 A 
ATOM     27  C   UNL     1      33.909 -14.343 -24.501  0.00  0.00    +0.197 A 
ATOM     28  C   UNL     1      33.596 -15.235 -25.527  0.00  0.00    +0.199 A 
ENDBRANCH  17  23
ENDBRANCH   2  17
TORSDOF 5
ENDMDL
