MODEL 1
REMARK VINA RESULT:     -11.5      0.000      0.000
REMARK  Name = 54766013
REMARK  5 active torsions:
REMARK  status: ('A' for Active; 'I' for Inactive)
REMARK    1  A    between atoms: C_3  and  C_11
REMARK    2  A    between atoms: C_4  and  C_18
REMARK    3  A    between atoms: C_5  and  C_24
REMARK    4  A    between atoms: C_24  and  N_25
REMARK    5  A    between atoms: N_25  and  C_28
REMARK                            x       y       z     vdW  Elec       q    Type
REMARK                         _______ _______ _______ _____ _____    ______ ____
ROOT
ATOM      1  N   UNL     1      33.377 -23.011 -15.144  0.00  0.00    -0.315 N 
ATOM      2  N   UNL     1      34.148 -24.552 -13.744  0.00  0.00    -0.317 N 
ATOM      3  C   UNL     1      35.053 -24.335 -14.752  0.00  0.00    +0.063 C 
ATOM      4  C   UNL     1      34.597 -23.382 -15.633  0.00  0.00    +0.085 C 
ATOM      5  C   UNL     1      33.149 -23.739 -14.010  0.00  0.00    +0.164 C 
ATOM      6  H   UNL     1      32.772 -22.340 -15.537  0.00  0.00    +0.148 HD
ATOM      7  H   UNL     1      34.228 -25.179 -12.988  0.00  0.00    +0.148 HD
ENDROOT
BRANCH   3  11
ATOM      8  N   UNL     1      38.655 -25.205 -14.305  0.00  0.00    -0.170 N 
ATOM      9  N   UNL     1      39.861 -24.814 -13.820  0.00  0.00    -0.150 NA
ATOM     10  N   UNL     1      40.039 -26.872 -14.799  0.00  0.00    -0.206 NA
ATOM     11  C   UNL     1      36.329 -25.076 -14.802  0.00  0.00    +0.031 C 
ATOM     12  C   UNL     1      37.436 -24.524 -14.261  0.00  0.00    +0.092 C 
ATOM     13  C   UNL     1      36.463 -26.394 -15.428  0.00  0.00    +0.006 C 
ATOM     14  C   UNL     1      38.794 -26.462 -14.898  0.00  0.00    +0.157 C 
ATOM     15  C   UNL     1      37.636 -27.051 -15.472  0.00  0.00    +0.036 C 
ATOM     16  C   UNL     1      40.642 -25.844 -14.143  0.00  0.00    +0.219 C 
ENDBRANCH   3  11
BRANCH   4  18
ATOM     17  N   UNL     1      34.307 -22.711 -17.867  0.00  0.00    -0.409 NA
ATOM     18  C   UNL     1      35.166 -22.815 -16.829  0.00  0.00    +0.127 C 
ATOM     19  C   UNL     1      36.492 -22.414 -16.877  0.00  0.00    +0.086 C 
ATOM     20  C   UNL     1      34.804 -22.180 -19.007  0.00  0.00    +0.109 C 
ATOM     21  C   UNL     1      36.965 -21.872 -18.067  0.00  0.00    -0.016 C 
ATOM     22  C   UNL     1      36.112 -21.749 -19.157  0.00  0.00    +0.023 C 
ATOM     23  C   UNL     1      33.859 -22.064 -20.158  0.00  0.00    +0.066 C 
ENDBRANCH   4  18
BRANCH   5  24
ATOM     24  C   UNL     1      31.909 -23.577 -13.229  0.00  0.00    +0.128 C 
BRANCH  24  25
ATOM     25  N   UNL     1      30.845 -24.429 -13.734  0.00  0.00    -0.328 N 
ATOM     26  H   UNL     1      30.656 -25.270 -13.260  0.00  0.00    +0.147 HD
BRANCH  25  28
ATOM     27  F   UNL     1      30.047 -26.400 -15.506  0.00  0.00    -0.203 F 
ATOM     28  C   UNL     1      30.088 -24.119 -14.846  0.00  0.00    +0.073 C 
ATOM     29  C   UNL     1      29.695 -25.125 -15.728  0.00  0.00    +0.153 C 
ATOM     30  C   UNL     1      29.717 -22.796 -15.089  0.00  0.00    +0.017 C 
ATOM     31  C   UNL     1      28.930 -24.811 -16.851  0.00  0.00    +0.031 C 
ATOM     32  C   UNL     1      28.952 -22.480 -16.212  0.00  0.00    +0.001 C 
ATOM     33  C   UNL     1      28.559 -23.488 -17.093  0.00  0.00    +0.002 C 
ENDBRANCH  25  28
ENDBRANCH  24  25
ENDBRANCH   5  24
TORSDOF 5
ENDMDL
MODEL 2
REMARK VINA RESULT:     -11.4      2.936      7.641
REMARK  Name = 54766013
REMARK  5 active torsions:
REMARK  status: ('A' for Active; 'I' for Inactive)
REMARK    1  A    between atoms: C_3  and  C_11
REMARK    2  A    between atoms: C_4  and  C_18
REMARK    3  A    between atoms: C_5  and  C_24
REMARK    4  A    between atoms: C_24  and  N_25
REMARK    5  A    between atoms: N_25  and  C_28
REMARK                            x       y       z     vdW  Elec       q    Type
REMARK                         _______ _______ _______ _____ _____    ______ ____
ROOT
ATOM      1  N   UNL     1      37.062 -22.693 -17.006  0.00  0.00    -0.315 N 
ATOM      2  N   UNL     1      34.971 -22.451 -17.713  0.00  0.00    -0.317 N 
ATOM      3  C   UNL     1      34.996 -23.194 -16.560  0.00  0.00    +0.063 C 
ATOM      4  C   UNL     1      36.283 -23.357 -16.102  0.00  0.00    +0.085 C 
ATOM      5  C   UNL     1      36.232 -22.165 -17.955  0.00  0.00    +0.164 C 
ATOM      6  H   UNL     1      38.043 -22.608 -16.979  0.00  0.00    +0.148 HD
ATOM      7  H   UNL     1      34.184 -22.190 -18.244  0.00  0.00    +0.148 HD
ENDROOT
BRANCH   3  11
ATOM      8  N   UNL     1      31.381 -23.948 -16.022  0.00  0.00    -0.170 N 
ATOM      9  N   UNL     1      30.116 -23.813 -16.494  0.00  0.00    -0.150 NA
ATOM     10  N   UNL     1      30.101 -24.990 -14.535  0.00  0.00    -0.206 NA
ATOM     11  C   UNL     1      33.750 -23.710 -15.960  0.00  0.00    +0.031 C 
ATOM     12  C   UNL     1      32.573 -23.476 -16.577  0.00  0.00    +0.092 C 
ATOM     13  C   UNL     1      33.721 -24.463 -14.703  0.00  0.00    +0.006 C 
ATOM     14  C   UNL     1      31.341 -24.669 -14.826  0.00  0.00    +0.157 C 
ATOM     15  C   UNL     1      32.574 -24.918 -14.167  0.00  0.00    +0.036 C 
ATOM     16  C   UNL     1      29.400 -24.452 -15.569  0.00  0.00    +0.219 C 
ENDBRANCH   3  11
BRANCH   4  18
ATOM     17  N   UNL     1      36.893 -23.294 -13.831  0.00  0.00    -0.409 NA
ATOM     18  C   UNL     1      36.826 -24.041 -14.955  0.00  0.00    +0.127 C 
ATOM     19  C   UNL     1      37.234 -25.364 -15.033  0.00  0.00    +0.086 C 
ATOM     20  C   UNL     1      37.395 -23.903 -12.734  0.00  0.00    +0.109 C 
ATOM     21  C   UNL     1      37.744 -25.955 -13.882  0.00  0.00    -0.016 C 
ATOM     22  C   UNL     1      37.829 -25.219 -12.707  0.00  0.00    +0.023 C 
ATOM     23  C   UNL     1      37.473 -23.081 -11.490  0.00  0.00    +0.066 C 
ENDBRANCH   4  18
BRANCH   5  24
ATOM     24  C   UNL     1      36.759 -21.380 -19.086  0.00  0.00    +0.128 C 
BRANCH  24  25
ATOM     25  N   UNL     1      35.688 -20.835 -19.904  0.00  0.00    -0.328 N 
ATOM     26  H   UNL     1      34.759 -21.052 -19.661  0.00  0.00    +0.147 HD
BRANCH  25  28
ATOM     27  F   UNL     1      33.661 -20.323 -21.717  0.00  0.00    -0.203 F 
ATOM     28  C   UNL     1      35.907 -20.031 -21.004  0.00  0.00    +0.073 C 
ATOM     29  C   UNL     1      34.874 -19.784 -21.908  0.00  0.00    +0.153 C 
ATOM     30  C   UNL     1      37.166 -19.465 -21.213  0.00  0.00    +0.017 C 
ATOM     31  C   UNL     1      35.097 -18.971 -23.018  0.00  0.00    +0.031 C 
ATOM     32  C   UNL     1      37.389 -18.652 -22.324  0.00  0.00    +0.001 C 
ATOM     33  C   UNL     1      36.355 -18.405 -23.227  0.00  0.00    +0.002 C 
ENDBRANCH  25  28
ENDBRANCH  24  25
ENDBRANCH   5  24
TORSDOF 5
ENDMDL
MODEL 3
REMARK VINA RESULT:     -11.2      2.542      7.289
REMARK  Name = 54766013
REMARK  5 active torsions:
REMARK  status: ('A' for Active; 'I' for Inactive)
REMARK    1  A    between atoms: C_3  and  C_11
REMARK    2  A    between atoms: C_4  and  C_18
REMARK    3  A    between atoms: C_5  and  C_24
REMARK    4  A    between atoms: C_24  and  N_25
REMARK    5  A    between atoms: N_25  and  C_28
REMARK                            x       y       z     vdW  Elec       q    Type
REMARK                         _______ _______ _______ _____ _____    ______ ____
ROOT
ATOM      1  N   UNL     1      35.265 -23.547 -14.563  0.00  0.00    -0.315 N 
ATOM      2  N   UNL     1      33.439 -24.188 -13.474  0.00  0.00    -0.317 N 
ATOM      3  C   UNL     1      33.134 -23.910 -14.782  0.00  0.00    +0.063 C 
ATOM      4  C   UNL     1      34.251 -23.511 -15.478  0.00  0.00    +0.085 C 
ATOM      5  C   UNL     1      34.730 -23.959 -13.374  0.00  0.00    +0.164 C 
ATOM      6  H   UNL     1      36.208 -23.319 -14.729  0.00  0.00    +0.148 HD
ATOM      7  H   UNL     1      32.826 -24.491 -12.765  0.00  0.00    +0.148 HD
ENDROOT
BRANCH   3  11
ATOM      8  N   UNL     1      29.877 -23.129 -16.427  0.00  0.00    -0.170 N 
ATOM      9  N   UNL     1      29.144 -22.209 -17.104  0.00  0.00    -0.150 NA
ATOM     10  N   UNL     1      27.922 -24.116 -16.803  0.00  0.00    -0.206 NA
ATOM     11  C   UNL     1      31.755 -24.051 -15.289  0.00  0.00    +0.031 C 
ATOM     12  C   UNL     1      31.184 -23.020 -15.947  0.00  0.00    +0.092 C 
ATOM     13  C   UNL     1      30.955 -25.265 -15.102  0.00  0.00    +0.006 C 
ATOM     14  C   UNL     1      29.106 -24.281 -16.257  0.00  0.00    +0.157 C 
ATOM     15  C   UNL     1      29.697 -25.372 -15.564  0.00  0.00    +0.036 C 
ATOM     16  C   UNL     1      27.994 -22.851 -17.300  0.00  0.00    +0.219 C 
ENDBRANCH   3  11
BRANCH   4  18
ATOM     17  N   UNL     1      35.600 -22.444 -17.082  0.00  0.00    -0.409 NA
ATOM     18  C   UNL     1      34.451 -23.117 -16.850  0.00  0.00    +0.127 C 
ATOM     19  C   UNL     1      33.521 -23.426 -17.831  0.00  0.00    +0.086 C 
ATOM     20  C   UNL     1      35.824 -22.061 -18.359  0.00  0.00    +0.109 C 
ATOM     21  C   UNL     1      33.788 -23.014 -19.132  0.00  0.00    -0.016 C 
ATOM     22  C   UNL     1      34.958 -22.319 -19.410  0.00  0.00    +0.023 C 
ATOM     23  C   UNL     1      37.090 -21.315 -18.621  0.00  0.00    +0.066 C 
ENDBRANCH   4  18
BRANCH   5  24
ATOM     24  C   UNL     1      35.563 -24.107 -12.167  0.00  0.00    +0.128 C 
BRANCH  24  25
ATOM     25  N   UNL     1      36.288 -25.367 -12.169  0.00  0.00    -0.328 N 
ATOM     26  H   UNL     1      36.020 -26.060 -11.525  0.00  0.00    +0.147 HD
BRANCH  25  28
ATOM     27  F   UNL     1      38.760 -24.172 -11.824  0.00  0.00    -0.203 F 
ATOM     28  C   UNL     1      37.334 -25.639 -13.028  0.00  0.00    +0.073 C 
ATOM     29  C   UNL     1      38.573 -25.027 -12.839  0.00  0.00    +0.153 C 
ATOM     30  C   UNL     1      37.150 -26.528 -14.089  0.00  0.00    +0.017 C 
ATOM     31  C   UNL     1      39.628 -25.303 -13.707  0.00  0.00    +0.031 C 
ATOM     32  C   UNL     1      38.206 -26.804 -14.958  0.00  0.00    +0.001 C 
ATOM     33  C   UNL     1      39.445 -26.192 -14.767  0.00  0.00    +0.002 C 
ENDBRANCH  25  28
ENDBRANCH  24  25
ENDBRANCH   5  24
TORSDOF 5
ENDMDL
MODEL 4
REMARK VINA RESULT:     -11.2      3.084      6.482
REMARK  Name = 54766013
REMARK  5 active torsions:
REMARK  status: ('A' for Active; 'I' for Inactive)
REMARK    1  A    between atoms: C_3  and  C_11
REMARK    2  A    between atoms: C_4  and  C_18
REMARK    3  A    between atoms: C_5  and  C_24
REMARK    4  A    between atoms: C_24  and  N_25
REMARK    5  A    between atoms: N_25  and  C_28
REMARK                            x       y       z     vdW  Elec       q    Type
REMARK                         _______ _______ _______ _____ _____    ______ ____
ROOT
ATOM      1  N   UNL     1      33.107 -22.780 -17.895  0.00  0.00    -0.315 N 
ATOM      2  N   UNL     1      35.325 -22.769 -17.794  0.00  0.00    -0.317 N 
ATOM      3  C   UNL     1      34.806 -23.388 -16.686  0.00  0.00    +0.063 C 
ATOM      4  C   UNL     1      33.431 -23.407 -16.726  0.00  0.00    +0.085 C 
ATOM      5  C   UNL     1      34.276 -22.414 -18.503  0.00  0.00    +0.164 C 
ATOM      6  H   UNL     1      32.198 -22.620 -18.238  0.00  0.00    +0.148 HD
ATOM      7  H   UNL     1      36.275 -22.622 -18.012  0.00  0.00    +0.148 HD
ENDROOT
BRANCH   3  11
ATOM      8  N   UNL     1      37.079 -23.590 -13.733  0.00  0.00    -0.170 N 
ATOM      9  N   UNL     1      37.714 -22.908 -12.746  0.00  0.00    -0.150 NA
ATOM     10  N   UNL     1      38.206 -25.135 -12.601  0.00  0.00    -0.206 NA
ATOM     11  C   UNL     1      35.688 -23.934 -15.635  0.00  0.00    +0.031 C 
ATOM     12  C   UNL     1      36.234 -23.095 -14.730  0.00  0.00    +0.092 C 
ATOM     13  C   UNL     1      36.017 -25.358 -15.529  0.00  0.00    +0.006 C 
ATOM     14  C   UNL     1      37.398 -24.945 -13.621  0.00  0.00    +0.157 C 
ATOM     15  C   UNL     1      36.830 -25.836 -14.570  0.00  0.00    +0.036 C 
ATOM     16  C   UNL     1      38.366 -23.877 -12.107  0.00  0.00    +0.219 C 
ENDBRANCH   3  11
BRANCH   4  18
ATOM     17  N   UNL     1      31.164 -23.807 -16.245  0.00  0.00    -0.409 NA
ATOM     18  C   UNL     1      32.441 -23.930 -15.819  0.00  0.00    +0.127 C 
ATOM     19  C   UNL     1      32.803 -24.512 -14.614  0.00  0.00    +0.086 C 
ATOM     20  C   UNL     1      30.207 -24.289 -15.422  0.00  0.00    +0.109 C 
ATOM     21  C   UNL     1      31.789 -24.996 -13.795  0.00  0.00    -0.016 C 
ATOM     22  C   UNL     1      30.464 -24.887 -14.199  0.00  0.00    +0.023 C 
ATOM     23  C   UNL     1      28.795 -24.154 -15.888  0.00  0.00    +0.066 C 
ENDBRANCH   4  18
BRANCH   5  24
ATOM     24  C   UNL     1      34.280 -21.709 -19.797  0.00  0.00    +0.128 C 
BRANCH  24  25
ATOM     25  N   UNL     1      35.466 -20.883 -19.952  0.00  0.00    -0.328 N 
ATOM     26  H   UNL     1      36.131 -20.881 -19.227  0.00  0.00    +0.147 HD
BRANCH  25  28
ATOM     27  F   UNL     1      37.784 -19.386 -20.163  0.00  0.00    -0.203 F 
ATOM     28  C   UNL     1      35.706 -20.099 -21.063  0.00  0.00    +0.073 C 
ATOM     29  C   UNL     1      36.879 -19.351 -21.152  0.00  0.00    +0.153 C 
ATOM     30  C   UNL     1      34.770 -20.054 -22.098  0.00  0.00    +0.017 C 
ATOM     31  C   UNL     1      37.120 -18.560 -22.275  0.00  0.00    +0.031 C 
ATOM     32  C   UNL     1      35.011 -19.263 -23.221  0.00  0.00    +0.001 C 
ATOM     33  C   UNL     1      36.185 -18.516 -23.310  0.00  0.00    +0.002 C 
ENDBRANCH  25  28
ENDBRANCH  24  25
ENDBRANCH   5  24
TORSDOF 5
ENDMDL
MODEL 5
REMARK VINA RESULT:     -11.2      3.046      7.793
REMARK  Name = 54766013
REMARK  5 active torsions:
REMARK  status: ('A' for Active; 'I' for Inactive)
REMARK    1  A    between atoms: C_3  and  C_11
REMARK    2  A    between atoms: C_4  and  C_18
REMARK    3  A    between atoms: C_5  and  C_24
REMARK    4  A    between atoms: C_24  and  N_25
REMARK    5  A    between atoms: N_25  and  C_28
REMARK                            x       y       z     vdW  Elec       q    Type
REMARK                         _______ _______ _______ _____ _____    ______ ____
ROOT
ATOM      1  N   UNL     1      36.877 -22.574 -17.591  0.00  0.00    -0.315 N 
ATOM      2  N   UNL     1      34.859 -22.239 -18.454  0.00  0.00    -0.317 N 
ATOM      3  C   UNL     1      34.753 -22.851 -17.231  0.00  0.00    +0.063 C 
ATOM      4  C   UNL     1      35.992 -23.069 -16.675  0.00  0.00    +0.085 C 
ATOM      5  C   UNL     1      36.152 -22.086 -18.642  0.00  0.00    +0.164 C 
ATOM      6  H   UNL     1      37.859 -22.569 -17.509  0.00  0.00    +0.148 HD
ATOM      7  H   UNL     1      34.129 -21.973 -19.059  0.00  0.00    +0.148 HD
ENDROOT
BRANCH   3  11
ATOM      8  N   UNL     1      31.058 -23.064 -16.755  0.00  0.00    -0.170 N 
ATOM      9  N   UNL     1      29.835 -22.717 -17.231  0.00  0.00    -0.150 NA
ATOM     10  N   UNL     1      29.612 -23.955 -15.323  0.00  0.00    -0.206 NA
ATOM     11  C   UNL     1      33.435 -23.193 -16.663  0.00  0.00    +0.031 C 
ATOM     12  C   UNL     1      32.316 -22.758 -17.280  0.00  0.00    +0.092 C 
ATOM     13  C   UNL     1      33.272 -23.983 -15.439  0.00  0.00    +0.006 C 
ATOM     14  C   UNL     1      30.891 -23.817 -15.590  0.00  0.00    +0.157 C 
ATOM     15  C   UNL     1      32.062 -24.278 -14.932  0.00  0.00    +0.036 C 
ATOM     16  C   UNL     1      29.017 -23.275 -16.340  0.00  0.00    +0.219 C 
ENDBRANCH   3  11
BRANCH   4  18
ATOM     17  N   UNL     1      36.688 -24.986 -15.506  0.00  0.00    -0.409 NA
ATOM     18  C   UNL     1      36.407 -23.667 -15.431  0.00  0.00    +0.127 C 
ATOM     19  C   UNL     1      36.504 -22.917 -14.269  0.00  0.00    +0.086 C 
ATOM     20  C   UNL     1      37.084 -25.582 -14.358  0.00  0.00    +0.109 C 
ATOM     21  C   UNL     1      36.915 -23.566 -13.110  0.00  0.00    -0.016 C 
ATOM     22  C   UNL     1      37.212 -24.923 -13.146  0.00  0.00    +0.023 C 
ATOM     23  C   UNL     1      37.394 -27.040 -14.435  0.00  0.00    +0.066 C 
ENDBRANCH   4  18
BRANCH   5  24
ATOM     24  C   UNL     1      36.810 -21.475 -19.811  0.00  0.00    +0.128 C 
BRANCH  24  25
ATOM     25  N   UNL     1      36.346 -20.116 -20.035  0.00  0.00    -0.328 N 
ATOM     26  H   UNL     1      36.231 -19.528 -19.254  0.00  0.00    +0.147 HD
BRANCH  25  28
ATOM     27  F   UNL     1      33.902 -20.600 -21.239  0.00  0.00    -0.203 F 
ATOM     28  C   UNL     1      36.059 -19.608 -21.286  0.00  0.00    +0.073 C 
ATOM     29  C   UNL     1      34.822 -19.863 -21.878  0.00  0.00    +0.153 C 
ATOM     30  C   UNL     1      37.009 -18.840 -21.960  0.00  0.00    +0.017 C 
ATOM     31  C   UNL     1      34.533 -19.350 -23.142  0.00  0.00    +0.031 C 
ATOM     32  C   UNL     1      36.721 -18.326 -23.225  0.00  0.00    +0.001 C 
ATOM     33  C   UNL     1      35.483 -18.581 -23.816  0.00  0.00    +0.002 C 
ENDBRANCH  25  28
ENDBRANCH  24  25
ENDBRANCH   5  24
TORSDOF 5
ENDMDL
MODEL 6
REMARK VINA RESULT:     -10.7      8.523     12.474
REMARK  Name = 54766013
REMARK  5 active torsions:
REMARK  status: ('A' for Active; 'I' for Inactive)
REMARK    1  A    between atoms: C_3  and  C_11
REMARK    2  A    between atoms: C_4  and  C_18
REMARK    3  A    between atoms: C_5  and  C_24
REMARK    4  A    between atoms: C_24  and  N_25
REMARK    5  A    between atoms: N_25  and  C_28
REMARK                            x       y       z     vdW  Elec       q    Type
REMARK                         _______ _______ _______ _____ _____    ______ ____
ROOT
ATOM      1  N   UNL     1      35.558 -16.491 -23.461  0.00  0.00    -0.315 N 
ATOM      2  N   UNL     1      34.990 -16.236 -21.329  0.00  0.00    -0.317 N 
ATOM      3  C   UNL     1      34.385 -15.274 -22.097  0.00  0.00    +0.063 C 
ATOM      4  C   UNL     1      34.722 -15.411 -23.423  0.00  0.00    +0.085 C 
ATOM      5  C   UNL     1      35.690 -16.954 -22.181  0.00  0.00    +0.164 C 
ATOM      6  H   UNL     1      35.986 -16.868 -24.263  0.00  0.00    +0.148 HD
ATOM      7  H   UNL     1      34.918 -16.363 -20.355  0.00  0.00    +0.148 HD
ENDROOT
BRANCH   3  11
ATOM      8  N   UNL     1      32.407 -12.147 -21.605  0.00  0.00    -0.170 N 
ATOM      9  N   UNL     1      32.029 -10.954 -22.130  0.00  0.00    -0.150 NA
ATOM     10  N   UNL     1      31.098 -11.230 -20.061  0.00  0.00    -0.206 NA
ATOM     11  C   UNL     1      33.501 -14.260 -21.489  0.00  0.00    +0.031 C 
ATOM     12  C   UNL     1      33.234 -13.124 -22.166  0.00  0.00    +0.092 C 
ATOM     13  C   UNL     1      32.898 -14.418 -20.162  0.00  0.00    +0.006 C 
ATOM     14  C   UNL     1      31.826 -12.288 -20.343  0.00  0.00    +0.157 C 
ATOM     15  C   UNL     1      32.102 -13.479 -19.620  0.00  0.00    +0.036 C 
ATOM     16  C   UNL     1      31.254 -10.456 -21.169  0.00  0.00    +0.219 C 
ENDBRANCH   3  11
BRANCH   4  18
ATOM     17  N   UNL     1      34.605 -13.340 -24.530  0.00  0.00    -0.409 NA
ATOM     18  C   UNL     1      34.354 -14.666 -24.601  0.00  0.00    +0.127 C 
ATOM     19  C   UNL     1      33.794 -15.292 -25.703  0.00  0.00    +0.086 C 
ATOM     20  C   UNL     1      34.276 -12.607 -25.617  0.00  0.00    +0.109 C 
ATOM     21  C   UNL     1      33.471 -14.504 -26.803  0.00  0.00    -0.016 C 
ATOM     22  C   UNL     1      33.713 -13.136 -26.768  0.00  0.00    +0.023 C 
ATOM     23  C   UNL     1      34.550 -11.141 -25.544  0.00  0.00    +0.066 C 
ENDBRANCH   4  18
BRANCH   5  24
ATOM     24  C   UNL     1      36.532 -18.122 -21.870  0.00  0.00    +0.128 C 
BRANCH  24  25
ATOM     25  N   UNL     1      35.871 -19.367 -22.224  0.00  0.00    -0.328 N 
ATOM     26  H   UNL     1      35.936 -19.682 -23.154  0.00  0.00    +0.147 HD
BRANCH  25  28
ATOM     27  F   UNL     1      37.159 -21.073 -20.467  0.00  0.00    -0.203 F 
ATOM     28  C   UNL     1      35.155 -20.130 -21.323  0.00  0.00    +0.073 C 
ATOM     29  C   UNL     1      35.821 -20.984 -20.445  0.00  0.00    +0.153 C 
ATOM     30  C   UNL     1      33.762 -20.046 -21.293  0.00  0.00    +0.017 C 
ATOM     31  C   UNL     1      35.097 -21.754 -19.535  0.00  0.00    +0.031 C 
ATOM     32  C   UNL     1      33.038 -20.816 -20.383  0.00  0.00    +0.001 C 
ATOM     33  C   UNL     1      33.705 -21.670 -19.504  0.00  0.00    +0.002 C 
ENDBRANCH  25  28
ENDBRANCH  24  25
ENDBRANCH   5  24
TORSDOF 5
ENDMDL
MODEL 7
REMARK VINA RESULT:     -10.4     11.366     15.457
REMARK  Name = 54766013
REMARK  5 active torsions:
REMARK  status: ('A' for Active; 'I' for Inactive)
REMARK    1  A    between atoms: C_3  and  C_11
REMARK    2  A    between atoms: C_4  and  C_18
REMARK    3  A    between atoms: C_5  and  C_24
REMARK    4  A    between atoms: C_24  and  N_25
REMARK    5  A    between atoms: N_25  and  C_28
REMARK                            x       y       z     vdW  Elec       q    Type
REMARK                         _______ _______ _______ _____ _____    ______ ____
ROOT
ATOM      1  N   UNL     1      33.120 -14.153 -23.814  0.00  0.00    -0.315 N 
ATOM      2  N   UNL     1      33.913 -12.756 -25.347  0.00  0.00    -0.317 N 
ATOM      3  C   UNL     1      33.649 -12.079 -24.183  0.00  0.00    +0.063 C 
ATOM      4  C   UNL     1      33.157 -12.925 -23.217  0.00  0.00    +0.085 C 
ATOM      5  C   UNL     1      33.584 -14.003 -25.092  0.00  0.00    +0.164 C 
ATOM      6  H   UNL     1      32.816 -14.994 -23.400  0.00  0.00    +0.148 HD
ATOM      7  H   UNL     1      34.271 -12.389 -26.188  0.00  0.00    +0.148 HD
ENDROOT
BRANCH   3  11
ATOM      8  N   UNL     1      33.102  -8.439 -23.571  0.00  0.00    -0.170 N 
ATOM      9  N   UNL     1      32.225  -7.476 -23.188  0.00  0.00    -0.150 NA
ATOM     10  N   UNL     1      34.248  -6.539 -23.693  0.00  0.00    -0.206 NA
ATOM     11  C   UNL     1      33.895 -10.628 -24.074  0.00  0.00    +0.031 C 
ATOM     12  C   UNL     1      32.894  -9.817 -23.672  0.00  0.00    +0.092 C 
ATOM     13  C   UNL     1      35.184 -10.009 -24.397  0.00  0.00    +0.006 C 
ATOM     14  C   UNL     1      34.326  -7.838 -23.873  0.00  0.00    +0.157 C 
ATOM     15  C   UNL     1      35.386  -8.683 -24.300  0.00  0.00    +0.036 C 
ATOM     16  C   UNL     1      32.962  -6.370 -23.280  0.00  0.00    +0.219 C 
ENDBRANCH   3  11
BRANCH   4  18
ATOM     17  N   UNL     1      32.405 -11.427 -21.567  0.00  0.00    -0.409 NA
ATOM     18  C   UNL     1      32.736 -12.705 -21.856  0.00  0.00    +0.127 C 
ATOM     19  C   UNL     1      32.683 -13.746 -20.942  0.00  0.00    +0.086 C 
ATOM     20  C   UNL     1      32.003 -11.183 -20.300  0.00  0.00    +0.109 C 
ATOM     21  C   UNL     1      32.264 -13.454 -19.648  0.00  0.00    -0.016 C 
ATOM     22  C   UNL     1      31.916 -12.152 -19.313  0.00  0.00    +0.023 C 
ATOM     23  C   UNL     1      31.638  -9.772 -19.975  0.00  0.00    +0.066 C 
ENDBRANCH   4  18
BRANCH   5  24
ATOM     24  C   UNL     1      33.675 -15.149 -26.015  0.00  0.00    +0.128 C 
BRANCH  24  25
ATOM     25  N   UNL     1      34.881 -15.927 -25.782  0.00  0.00    -0.328 N 
ATOM     26  H   UNL     1      35.709 -15.652 -26.237  0.00  0.00    +0.147 HD
BRANCH  25  28
ATOM     27  F   UNL     1      35.857 -15.740 -23.199  0.00  0.00    -0.203 F 
ATOM     28  C   UNL     1      34.922 -17.034 -24.958  0.00  0.00    +0.073 C 
ATOM     29  C   UNL     1      35.418 -16.921 -23.659  0.00  0.00    +0.153 C 
ATOM     30  C   UNL     1      34.469 -18.268 -25.426  0.00  0.00    +0.017 C 
ATOM     31  C   UNL     1      35.460 -18.039 -22.828  0.00  0.00    +0.031 C 
ATOM     32  C   UNL     1      34.511 -19.387 -24.595  0.00  0.00    +0.001 C 
ATOM     33  C   UNL     1      35.006 -19.273 -23.295  0.00  0.00    +0.002 C 
ENDBRANCH  25  28
ENDBRANCH  24  25
ENDBRANCH   5  24
TORSDOF 5
ENDMDL
MODEL 8
REMARK VINA RESULT:     -10.2      3.632      7.880
REMARK  Name = 54766013
REMARK  5 active torsions:
REMARK  status: ('A' for Active; 'I' for Inactive)
REMARK    1  A    between atoms: C_3  and  C_11
REMARK    2  A    between atoms: C_4  and  C_18
REMARK    3  A    between atoms: C_5  and  C_24
REMARK    4  A    between atoms: C_24  and  N_25
REMARK    5  A    between atoms: N_25  and  C_28
REMARK                            x       y       z     vdW  Elec       q    Type
REMARK                         _______ _______ _______ _____ _____    ______ ____
ROOT
ATOM      1  N   UNL     1      35.053 -21.732 -19.201  0.00  0.00    -0.315 N 
ATOM      2  N   UNL     1      32.851 -21.919 -18.980  0.00  0.00    -0.317 N 
ATOM      3  C   UNL     1      33.483 -22.489 -17.904  0.00  0.00    +0.063 C 
ATOM      4  C   UNL     1      34.850 -22.385 -18.019  0.00  0.00    +0.085 C 
ATOM      5  C   UNL     1      33.824 -21.472 -19.743  0.00  0.00    +0.164 C 
ATOM      6  H   UNL     1      35.924 -21.491 -19.592  0.00  0.00    +0.148 HD
ATOM      7  H   UNL     1      31.882 -21.858 -19.145  0.00  0.00    +0.148 HD
ENDROOT
BRANCH   3  11
ATOM      8  N   UNL     1      30.818 -24.354 -16.076  0.00  0.00    -0.170 N 
ATOM      9  N   UNL     1      29.654 -25.046 -16.171  0.00  0.00    -0.150 NA
ATOM     10  N   UNL     1      30.321 -24.931 -13.989  0.00  0.00    -0.206 NA
ATOM     11  C   UNL     1      32.712 -23.112 -16.810  0.00  0.00    +0.031 C 
ATOM     12  C   UNL     1      31.567 -23.765 -17.098  0.00  0.00    +0.092 C 
ATOM     13  C   UNL     1      33.123 -23.045 -15.405  0.00  0.00    +0.006 C 
ATOM     14  C   UNL     1      31.200 -24.300 -14.734  0.00  0.00    +0.157 C 
ATOM     15  C   UNL     1      32.403 -23.612 -14.420  0.00  0.00    +0.036 C 
ATOM     16  C   UNL     1      29.409 -25.363 -14.901  0.00  0.00    +0.219 C 
ENDBRANCH   3  11
BRANCH   4  18
ATOM     17  N   UNL     1      35.674 -23.934 -16.453  0.00  0.00    -0.409 NA
ATOM     18  C   UNL     1      35.931 -22.817 -17.170  0.00  0.00    +0.127 C 
ATOM     19  C   UNL     1      37.129 -22.122 -17.119  0.00  0.00    +0.086 C 
ATOM     20  C   UNL     1      36.667 -24.372 -15.647  0.00  0.00    +0.109 C 
ATOM     21  C   UNL     1      38.126 -22.604 -16.278  0.00  0.00    -0.016 C 
ATOM     22  C   UNL     1      37.899 -23.750 -15.525  0.00  0.00    +0.023 C 
ATOM     23  C   UNL     1      36.387 -25.604 -14.852  0.00  0.00    +0.066 C 
ENDBRANCH   4  18
BRANCH   5  24
ATOM     24  C   UNL     1      33.687 -20.770 -21.032  0.00  0.00    +0.128 C 
BRANCH  24  25
ATOM     25  N   UNL     1      34.921 -20.104 -21.412  0.00  0.00    -0.328 N 
ATOM     26  H   UNL     1      35.738 -20.310 -20.904  0.00  0.00    +0.147 HD
BRANCH  25  28
ATOM     27  F   UNL     1      35.969 -17.575 -21.005  0.00  0.00    -0.203 F 
ATOM     28  C   UNL     1      35.006 -19.196 -22.448  0.00  0.00    +0.073 C 
ATOM     29  C   UNL     1      35.536 -17.926 -22.225  0.00  0.00    +0.153 C 
ATOM     30  C   UNL     1      34.558 -19.550 -23.722  0.00  0.00    +0.017 C 
ATOM     31  C   UNL     1      35.621 -17.010 -23.273  0.00  0.00    +0.031 C 
ATOM     32  C   UNL     1      34.643 -18.634 -24.771  0.00  0.00    +0.001 C 
ATOM     33  C   UNL     1      35.174 -17.364 -24.546  0.00  0.00    +0.002 C 
ENDBRANCH  25  28
ENDBRANCH  24  25
ENDBRANCH   5  24
TORSDOF 5
ENDMDL
MODEL 9
REMARK VINA RESULT:     -10.0      2.706      6.696
REMARK  Name = 54766013
REMARK  5 active torsions:
REMARK  status: ('A' for Active; 'I' for Inactive)
REMARK    1  A    between atoms: C_3  and  C_11
REMARK    2  A    between atoms: C_4  and  C_18
REMARK    3  A    between atoms: C_5  and  C_24
REMARK    4  A    between atoms: C_24  and  N_25
REMARK    5  A    between atoms: N_25  and  C_28
REMARK                            x       y       z     vdW  Elec       q    Type
REMARK                         _______ _______ _______ _____ _____    ______ ____
ROOT
ATOM      1  N   UNL     1      37.253 -24.801 -15.670  0.00  0.00    -0.315 N 
ATOM      2  N   UNL     1      35.246 -25.600 -15.156  0.00  0.00    -0.317 N 
ATOM      3  C   UNL     1      35.121 -24.430 -15.862  0.00  0.00    +0.063 C 
ATOM      4  C   UNL     1      36.353 -23.916 -16.193  0.00  0.00    +0.085 C 
ATOM      5  C   UNL     1      36.542 -25.795 -15.057  0.00  0.00    +0.164 C 
ATOM      6  H   UNL     1      38.234 -24.736 -15.725  0.00  0.00    +0.148 HD
ATOM      7  H   UNL     1      34.523 -26.167 -14.801  0.00  0.00    +0.148 HD
ENDROOT
BRANCH   3  11
ATOM      8  N   UNL     1      31.544 -23.416 -15.541  0.00  0.00    -0.170 N 
ATOM      9  N   UNL     1      30.444 -23.387 -14.746  0.00  0.00    -0.150 NA
ATOM     10  N   UNL     1      29.977 -22.427 -16.767  0.00  0.00    -0.206 NA
ATOM     11  C   UNL     1      33.793 -23.871 -16.181  0.00  0.00    +0.031 C 
ATOM     12  C   UNL     1      32.811 -23.932 -15.257  0.00  0.00    +0.092 C 
ATOM     13  C   UNL     1      33.474 -23.255 -17.472  0.00  0.00    +0.006 C 
ATOM     14  C   UNL     1      31.229 -22.825 -16.767  0.00  0.00    +0.157 C 
ATOM     15  C   UNL     1      32.255 -22.758 -17.748  0.00  0.00    +0.036 C 
ATOM     16  C   UNL     1      29.547 -22.789 -15.528  0.00  0.00    +0.219 C 
ENDBRANCH   3  11
BRANCH   4  18
ATOM     17  N   UNL     1      36.206 -22.615 -18.146  0.00  0.00    -0.409 NA
ATOM     18  C   UNL     1      36.750 -22.733 -16.915  0.00  0.00    +0.127 C 
ATOM     19  C   UNL     1      37.620 -21.808 -16.359  0.00  0.00    +0.086 C 
ATOM     20  C   UNL     1      36.553 -21.516 -18.853  0.00  0.00    +0.109 C 
ATOM     21  C   UNL     1      37.952 -20.691 -17.118  0.00  0.00    -0.016 C 
ATOM     22  C   UNL     1      37.413 -20.534 -18.389  0.00  0.00    +0.023 C 
ATOM     23  C   UNL     1      35.955 -21.382 -20.215  0.00  0.00    +0.066 C 
ENDBRANCH   4  18
BRANCH   5  24
ATOM     24  C   UNL     1      37.218 -26.920 -14.386  0.00  0.00    +0.128 C 
BRANCH  24  25
ATOM     25  N   UNL     1      37.280 -26.725 -12.947  0.00  0.00    -0.328 N 
ATOM     26  H   UNL     1      37.361 -27.519 -12.371  0.00  0.00    +0.147 HD
BRANCH  25  28
ATOM     27  F   UNL     1      39.431 -24.989 -13.091  0.00  0.00    -0.203 F 
ATOM     28  C   UNL     1      37.231 -25.482 -12.347  0.00  0.00    +0.073 C 
ATOM     29  C   UNL     1      38.325 -24.621 -12.429  0.00  0.00    +0.153 C 
ATOM     30  C   UNL     1      36.084 -25.089 -11.655  0.00  0.00    +0.017 C 
ATOM     31  C   UNL     1      38.273 -23.367 -11.822  0.00  0.00    +0.031 C 
ATOM     32  C   UNL     1      36.033 -23.834 -11.047  0.00  0.00    +0.001 C 
ATOM     33  C   UNL     1      37.127 -22.973 -11.131  0.00  0.00    +0.002 C 
ENDBRANCH  25  28
ENDBRANCH  24  25
ENDBRANCH   5  24
TORSDOF 5
ENDMDL
