MODEL 1
REMARK VINA RESULT:     -11.5      0.000      0.000
REMARK  Name = 44472635
REMARK  7 active torsions:
REMARK  status: ('A' for Active; 'I' for Inactive)
REMARK    1  A    between atoms: C_1  and  C_21
REMARK    2  A    between atoms: C_4  and  N_8
REMARK    3  A    between atoms: C_9  and  C_14
REMARK    4  A    between atoms: C_21  and  C_24
REMARK    5  A    between atoms: C_23  and  C_29
REMARK    6  A    between atoms: C_29  and  C_30
REMARK    7  A    between atoms: C_29  and  O_36
REMARK                            x       y       z     vdW  Elec       q    Type
REMARK                         _______ _______ _______ _____ _____    ______ ____
ROOT
ATOM      1  C   UNL     1      32.680 -12.244 -22.368  0.00  0.00    -0.024 C 
ATOM      2  C   UNL     1      33.423 -12.361 -23.543  0.00  0.00    -0.003 C 
ATOM      3  C   UNL     1      32.678 -13.284 -21.438  0.00  0.00    -0.003 C 
ATOM      4  C   UNL     1      34.162 -14.557 -22.857  0.00  0.00    +0.050 C 
ATOM      5  C   UNL     1      34.164 -13.517 -23.788  0.00  0.00    +0.014 C 
ATOM      6  C   UNL     1      33.419 -14.440 -21.682  0.00  0.00    +0.014 C 
ENDROOT
BRANCH   4   8
ATOM      7  O   UNL     1      35.330 -16.570 -20.947  0.00  0.00    -0.273 OA
ATOM      8  N   UNL     1      34.914 -15.730 -23.105  0.00  0.00    -0.283 N 
ATOM      9  C   UNL     1      35.426 -16.618 -22.170  0.00  0.00    +0.245 C 
ATOM     10  H   UNL     1      35.094 -15.939 -24.050  0.00  0.00    +0.155 HD
BRANCH   9  14
ATOM     11  O   UNL     1      37.844 -18.343 -20.469  0.00  0.00    -0.269 OA
ATOM     12  N   UNL     1      36.120 -18.874 -21.940  0.00  0.00    -0.237 N 
ATOM     13  N   UNL     1      34.875 -20.895 -21.712  0.00  0.00    -0.233 NA
ATOM     14  C   UNL     1      36.165 -17.739 -22.837  0.00  0.00    +0.158 C 
ATOM     15  C   UNL     1      35.437 -18.234 -24.079  0.00  0.00    +0.037 C 
ATOM     16  C   UNL     1      34.455 -19.285 -23.556  0.00  0.00    +0.064 C 
ATOM     17  C   UNL     1      35.145 -19.790 -22.326  0.00  0.00    +0.115 C 
ATOM     18  C   UNL     1      36.945 -19.083 -20.853  0.00  0.00    +0.256 C 
ATOM     19  C   UNL     1      36.637 -20.350 -20.141  0.00  0.00    +0.079 C 
ATOM     20  C   UNL     1      35.655 -21.137 -20.606  0.00  0.00    +0.105 C 
ENDBRANCH   9  14
ENDBRANCH   4   8
BRANCH   1  21
ATOM     21  C   UNL     1      31.886 -11.009 -22.107  0.00  0.00    +0.005 C 
BRANCH  21  24
ATOM     22  N   UNL     1      32.454  -8.693 -22.784  0.00  0.00    +0.388 N 
ATOM     23  C   UNL     1      33.091  -7.514 -22.177  0.00  0.00    -0.030 C 
ATOM     24  C   UNL     1      32.769  -9.795 -21.864  0.00  0.00    -0.057 C 
ATOM     25  C   UNL     1      32.958  -7.714 -20.667  0.00  0.00    -0.021 C 
ATOM     26  C   UNL     1      32.563  -9.175 -20.490  0.00  0.00    -0.023 C 
ATOM     27  H   UNL     1      32.841  -8.874 -23.709  0.00  0.00    -0.084 HD
ATOM     28  H   UNL     1      31.450  -8.568 -22.912  0.00  0.00    -0.084 HD
BRANCH  23  29
ATOM     29  C   UNL     1      32.457  -6.218 -22.662  0.00  0.00    +0.113 C 
BRANCH  29  30
ATOM     30  C   UNL     1      33.125  -5.686 -23.909  0.00  0.00    +0.002 C 
ATOM     31  C   UNL     1      32.503  -4.694 -24.667  0.00  0.00    -0.002 C 
ATOM     32  C   UNL     1      34.366  -6.188 -24.303  0.00  0.00    -0.002 C 
ATOM     33  C   UNL     1      33.120  -4.205 -25.818  0.00  0.00    -0.000 C 
ATOM     34  C   UNL     1      34.983  -5.700 -25.454  0.00  0.00    -0.000 C 
ATOM     35  C   UNL     1      34.360  -4.708 -26.212  0.00  0.00    -0.000 C 
ENDBRANCH  29  30
BRANCH  29  36
ATOM     36  O   UNL     1      31.071  -6.430 -22.931  0.00  0.00    -0.382 OA
ATOM     37  H   UNL     1      30.872  -7.377 -22.871  0.00  0.00    +0.211 HD
ENDBRANCH  29  36
ENDBRANCH  23  29
ENDBRANCH  21  24
ENDBRANCH   1  21
TORSDOF 7
ENDMDL
MODEL 2
REMARK VINA RESULT:     -11.5      4.433      8.548
REMARK  Name = 44472635
REMARK  7 active torsions:
REMARK  status: ('A' for Active; 'I' for Inactive)
REMARK    1  A    between atoms: C_1  and  C_21
REMARK    2  A    between atoms: C_4  and  N_8
REMARK    3  A    between atoms: C_9  and  C_14
REMARK    4  A    between atoms: C_21  and  C_24
REMARK    5  A    between atoms: C_23  and  C_29
REMARK    6  A    between atoms: C_29  and  C_30
REMARK    7  A    between atoms: C_29  and  O_36
REMARK                            x       y       z     vdW  Elec       q    Type
REMARK                         _______ _______ _______ _____ _____    ______ ____
ROOT
ATOM      1  C   UNL     1      35.758 -19.795 -21.262  0.00  0.00    -0.024 C 
ATOM      2  C   UNL     1      36.626 -20.559 -20.482  0.00  0.00    -0.003 C 
ATOM      3  C   UNL     1      34.380 -19.999 -21.173  0.00  0.00    -0.003 C 
ATOM      4  C   UNL     1      34.740 -21.728 -19.525  0.00  0.00    +0.050 C 
ATOM      5  C   UNL     1      36.118 -21.526 -19.614  0.00  0.00    +0.014 C 
ATOM      6  C   UNL     1      33.871 -20.964 -20.305  0.00  0.00    +0.014 C 
ENDROOT
BRANCH   4   8
ATOM      7  O   UNL     1      35.500 -22.405 -16.692  0.00  0.00    -0.273 OA
ATOM      8  N   UNL     1      34.224 -22.708 -18.645  0.00  0.00    -0.283 N 
ATOM      9  C   UNL     1      34.625 -22.968 -17.342  0.00  0.00    +0.245 C 
ATOM     10  H   UNL     1      33.496 -23.269 -18.998  0.00  0.00    +0.155 HD
BRANCH   9  14
ATOM     11  O   UNL     1      36.211 -25.664 -15.952  0.00  0.00    -0.269 OA
ATOM     12  N   UNL     1      34.369 -24.342 -15.426  0.00  0.00    -0.237 N 
ATOM     13  N   UNL     1      33.828 -23.814 -13.164  0.00  0.00    -0.233 NA
ATOM     14  C   UNL     1      33.828 -24.089 -16.744  0.00  0.00    +0.158 C 
ATOM     15  C   UNL     1      32.391 -23.672 -16.467  0.00  0.00    +0.037 C 
ATOM     16  C   UNL     1      32.432 -23.048 -15.070  0.00  0.00    +0.064 C 
ATOM     17  C   UNL     1      33.588 -23.758 -14.433  0.00  0.00    +0.115 C 
ATOM     18  C   UNL     1      35.491 -25.094 -15.140  0.00  0.00    +0.256 C 
ATOM     19  C   UNL     1      35.776 -25.160 -13.683  0.00  0.00    +0.079 C 
ATOM     20  C   UNL     1      34.951 -24.533 -12.830  0.00  0.00    +0.105 C 
ENDBRANCH   9  14
ENDBRANCH   4   8
BRANCH   1  21
ATOM     21  C   UNL     1      36.301 -18.764 -22.192  0.00  0.00    +0.005 C 
BRANCH  21  24
ATOM     22  N   UNL     1      35.211 -16.605 -21.645  0.00  0.00    +0.388 N 
ATOM     23  C   UNL     1      34.467 -15.558 -22.361  0.00  0.00    -0.030 C 
ATOM     24  C   UNL     1      35.255 -17.734 -22.586  0.00  0.00    -0.057 C 
ATOM     25  C   UNL     1      34.867 -15.707 -23.829  0.00  0.00    -0.021 C 
ATOM     26  C   UNL     1      35.552 -17.066 -23.921  0.00  0.00    -0.023 C 
ATOM     27  H   UNL     1      34.726 -16.870 -20.788  0.00  0.00    -0.084 HD
ATOM     28  H   UNL     1      36.141 -16.297 -21.365  0.00  0.00    -0.084 HD
BRANCH  23  29
ATOM     29  C   UNL     1      34.764 -14.173 -21.803  0.00  0.00    +0.113 C 
BRANCH  29  30
ATOM     30  C   UNL     1      33.516 -13.329 -21.677  0.00  0.00    +0.002 C 
ATOM     31  C   UNL     1      33.050 -12.602 -22.773  0.00  0.00    -0.002 C 
ATOM     32  C   UNL     1      32.831 -13.275 -20.463  0.00  0.00    -0.002 C 
ATOM     33  C   UNL     1      31.900 -11.823 -22.656  0.00  0.00    -0.000 C 
ATOM     34  C   UNL     1      31.680 -12.495 -20.345  0.00  0.00    -0.000 C 
ATOM     35  C   UNL     1      31.215 -11.770 -21.442  0.00  0.00    -0.000 C 
ENDBRANCH  29  30
BRANCH  29  36
ATOM     36  O   UNL     1      35.377 -14.292 -20.520  0.00  0.00    -0.382 OA
ATOM     37  H   UNL     1      35.071 -13.572 -19.947  0.00  0.00    +0.211 HD
ENDBRANCH  29  36
ENDBRANCH  23  29
ENDBRANCH  21  24
ENDBRANCH   1  21
TORSDOF 7
ENDMDL
MODEL 3
REMARK VINA RESULT:     -11.4      4.898      9.364
REMARK  Name = 44472635
REMARK  7 active torsions:
REMARK  status: ('A' for Active; 'I' for Inactive)
REMARK    1  A    between atoms: C_1  and  C_21
REMARK    2  A    between atoms: C_4  and  N_8
REMARK    3  A    between atoms: C_9  and  C_14
REMARK    4  A    between atoms: C_21  and  C_24
REMARK    5  A    between atoms: C_23  and  C_29
REMARK    6  A    between atoms: C_29  and  C_30
REMARK    7  A    between atoms: C_29  and  O_36
REMARK                            x       y       z     vdW  Elec       q    Type
REMARK                         _______ _______ _______ _____ _____    ______ ____
ROOT
ATOM      1  C   UNL     1      35.943 -20.387 -20.667  0.00  0.00    -0.024 C 
ATOM      2  C   UNL     1      34.589 -20.718 -20.612  0.00  0.00    -0.003 C 
ATOM      3  C   UNL     1      36.843 -20.987 -19.786  0.00  0.00    -0.003 C 
ATOM      4  C   UNL     1      35.036 -22.247 -18.796  0.00  0.00    +0.050 C 
ATOM      5  C   UNL     1      34.135 -21.648 -19.677  0.00  0.00    +0.014 C 
ATOM      6  C   UNL     1      36.390 -21.917 -18.851  0.00  0.00    +0.014 C 
ENDROOT
BRANCH   4   8
ATOM      7  O   UNL     1      35.310 -22.298 -15.798  0.00  0.00    -0.273 OA
ATOM      8  N   UNL     1      34.576 -23.191 -17.847  0.00  0.00    -0.283 N 
ATOM      9  C   UNL     1      34.740 -23.153 -16.470  0.00  0.00    +0.245 C 
ATOM     10  H   UNL     1      34.082 -23.964 -18.206  0.00  0.00    +0.155 HD
BRANCH   9  14
ATOM     11  O   UNL     1      36.625 -25.896 -15.671  0.00  0.00    -0.269 OA
ATOM     12  N   UNL     1      34.914 -24.681 -14.665  0.00  0.00    -0.237 N 
ATOM     13  N   UNL     1      34.851 -24.351 -12.304  0.00  0.00    -0.233 NA
ATOM     14  C   UNL     1      34.104 -24.342 -15.816  0.00  0.00    +0.158 C 
ATOM     15  C   UNL     1      32.750 -23.997 -15.212  0.00  0.00    +0.037 C 
ATOM     16  C   UNL     1      33.074 -23.484 -13.807  0.00  0.00    +0.064 C 
ATOM     17  C   UNL     1      34.349 -24.204 -13.485  0.00  0.00    +0.115 C 
ATOM     18  C   UNL     1      36.082 -25.416 -14.682  0.00  0.00    +0.256 C 
ATOM     19  C   UNL     1      36.668 -25.587 -13.327  0.00  0.00    +0.079 C 
ATOM     20  C   UNL     1      36.031 -25.057 -12.272  0.00  0.00    +0.105 C 
ENDBRANCH   9  14
ENDBRANCH   4   8
BRANCH   1  21
ATOM     21  C   UNL     1      36.428 -19.392 -21.666  0.00  0.00    +0.005 C 
BRANCH  21  24
ATOM     22  N   UNL     1      35.462 -17.345 -22.677  0.00  0.00    +0.388 N 
ATOM     23  C   UNL     1      34.539 -17.013 -23.774  0.00  0.00    -0.030 C 
ATOM     24  C   UNL     1      35.295 -18.792 -22.482  0.00  0.00    -0.057 C 
ATOM     25  C   UNL     1      34.564 -18.225 -24.705  0.00  0.00    -0.021 C 
ATOM     26  C   UNL     1      35.234 -19.334 -23.903  0.00  0.00    -0.023 C 
ATOM     27  H   UNL     1      35.212 -16.836 -21.830  0.00  0.00    -0.084 HD
ATOM     28  H   UNL     1      36.425 -17.091 -22.892  0.00  0.00    -0.084 HD
BRANCH  23  29
ATOM     29  C   UNL     1      34.935 -15.720 -24.472  0.00  0.00    +0.113 C 
BRANCH  29  30
ATOM     30  C   UNL     1      34.279 -14.509 -23.847  0.00  0.00    +0.002 C 
ATOM     31  C   UNL     1      34.155 -13.327 -24.577  0.00  0.00    -0.002 C 
ATOM     32  C   UNL     1      33.799 -14.574 -22.539  0.00  0.00    -0.002 C 
ATOM     33  C   UNL     1      33.551 -12.211 -24.000  0.00  0.00    -0.000 C 
ATOM     34  C   UNL     1      33.195 -13.458 -21.961  0.00  0.00    -0.000 C 
ATOM     35  C   UNL     1      33.071 -12.276 -22.692  0.00  0.00    -0.000 C 
ENDBRANCH  29  30
BRANCH  29  36
ATOM     36  O   UNL     1      36.353 -15.559 -24.422  0.00  0.00    -0.382 OA
ATOM     37  H   UNL     1      36.645 -15.032 -25.182  0.00  0.00    +0.211 HD
ENDBRANCH  29  36
ENDBRANCH  23  29
ENDBRANCH  21  24
ENDBRANCH   1  21
TORSDOF 7
ENDMDL
MODEL 4
REMARK VINA RESULT:     -11.2      4.777      9.347
REMARK  Name = 44472635
REMARK  7 active torsions:
REMARK  status: ('A' for Active; 'I' for Inactive)
REMARK    1  A    between atoms: C_1  and  C_21
REMARK    2  A    between atoms: C_4  and  N_8
REMARK    3  A    between atoms: C_9  and  C_14
REMARK    4  A    between atoms: C_21  and  C_24
REMARK    5  A    between atoms: C_23  and  C_29
REMARK    6  A    between atoms: C_29  and  C_30
REMARK    7  A    between atoms: C_29  and  O_36
REMARK                            x       y       z     vdW  Elec       q    Type
REMARK                         _______ _______ _______ _____ _____    ______ ____
ROOT
ATOM      1  C   UNL     1      35.581 -20.565 -20.545  0.00  0.00    -0.024 C 
ATOM      2  C   UNL     1      36.386 -21.231 -19.621  0.00  0.00    -0.003 C 
ATOM      3  C   UNL     1      34.209 -20.816 -20.582  0.00  0.00    -0.003 C 
ATOM      4  C   UNL     1      34.448 -22.397 -18.772  0.00  0.00    +0.050 C 
ATOM      5  C   UNL     1      35.820 -22.148 -18.734  0.00  0.00    +0.014 C 
ATOM      6  C   UNL     1      33.642 -21.731 -19.696  0.00  0.00    +0.014 C 
ENDROOT
BRANCH   4   8
ATOM      7  O   UNL     1      31.809 -22.339 -17.322  0.00  0.00    -0.273 OA
ATOM      8  N   UNL     1      33.873 -23.326 -17.872  0.00  0.00    -0.283 N 
ATOM      9  C   UNL     1      32.644 -23.235 -17.234  0.00  0.00    +0.245 C 
ATOM     10  H   UNL     1      34.407 -24.130 -17.677  0.00  0.00    +0.155 HD
BRANCH   9  14
ATOM     11  O   UNL     1      35.262 -25.172 -16.185  0.00  0.00    -0.269 OA
ATOM     12  N   UNL     1      33.310 -24.329 -15.239  0.00  0.00    -0.237 N 
ATOM     13  N   UNL     1      33.236 -23.639 -12.958  0.00  0.00    -0.233 NA
ATOM     14  C   UNL     1      32.398 -24.427 -16.359  0.00  0.00    +0.158 C 
ATOM     15  C   UNL     1      31.024 -24.375 -15.708  0.00  0.00    +0.037 C 
ATOM     16  C   UNL     1      31.235 -23.563 -14.426  0.00  0.00    +0.064 C 
ATOM     17  C   UNL     1      32.673 -23.837 -14.104  0.00  0.00    +0.115 C 
ATOM     18  C   UNL     1      34.639 -24.703 -15.239  0.00  0.00    +0.256 C 
ATOM     19  C   UNL     1      35.295 -24.475 -13.926  0.00  0.00    +0.079 C 
ATOM     20  C   UNL     1      34.569 -23.974 -12.914  0.00  0.00    +0.105 C 
ENDBRANCH   9  14
ENDBRANCH   4   8
BRANCH   1  21
ATOM     21  C   UNL     1      36.186 -19.588 -21.494  0.00  0.00    +0.005 C 
BRANCH  21  24
ATOM     22  N   UNL     1      35.340 -17.525 -22.578  0.00  0.00    +0.388 N 
ATOM     23  C   UNL     1      34.553 -17.174 -23.770  0.00  0.00    -0.030 C 
ATOM     24  C   UNL     1      35.155 -18.975 -22.428  0.00  0.00    -0.057 C 
ATOM     25  C   UNL     1      34.690 -18.370 -24.713  0.00  0.00    -0.021 C 
ATOM     26  C   UNL     1      35.264 -19.492 -23.856  0.00  0.00    -0.023 C 
ATOM     27  H   UNL     1      34.991 -17.031 -21.758  0.00  0.00    -0.084 HD
ATOM     28  H   UNL     1      36.322 -17.266 -22.673  0.00  0.00    -0.084 HD
BRANCH  23  29
ATOM     29  C   UNL     1      35.025 -15.869 -24.394  0.00  0.00    +0.113 C 
BRANCH  29  30
ATOM     30  C   UNL     1      34.345 -14.664 -23.784  0.00  0.00    +0.002 C 
ATOM     31  C   UNL     1      33.933 -14.696 -22.451  0.00  0.00    -0.002 C 
ATOM     32  C   UNL     1      34.128 -13.521 -24.553  0.00  0.00    -0.002 C 
ATOM     33  C   UNL     1      33.306 -13.585 -21.889  0.00  0.00    -0.000 C 
ATOM     34  C   UNL     1      33.500 -12.410 -23.991  0.00  0.00    -0.000 C 
ATOM     35  C   UNL     1      33.089 -12.442 -22.658  0.00  0.00    -0.000 C 
ENDBRANCH  29  30
BRANCH  29  36
ATOM     36  O   UNL     1      36.437 -15.739 -24.230  0.00  0.00    -0.382 OA
ATOM     37  H   UNL     1      36.637 -15.537 -23.303  0.00  0.00    +0.211 HD
ENDBRANCH  29  36
ENDBRANCH  23  29
ENDBRANCH  21  24
ENDBRANCH   1  21
TORSDOF 7
ENDMDL
MODEL 5
REMARK VINA RESULT:     -11.2      4.723      8.721
REMARK  Name = 44472635
REMARK  7 active torsions:
REMARK  status: ('A' for Active; 'I' for Inactive)
REMARK    1  A    between atoms: C_1  and  C_21
REMARK    2  A    between atoms: C_4  and  N_8
REMARK    3  A    between atoms: C_9  and  C_14
REMARK    4  A    between atoms: C_21  and  C_24
REMARK    5  A    between atoms: C_23  and  C_29
REMARK    6  A    between atoms: C_29  and  C_30
REMARK    7  A    between atoms: C_29  and  O_36
REMARK                            x       y       z     vdW  Elec       q    Type
REMARK                         _______ _______ _______ _____ _____    ______ ____
ROOT
ATOM      1  C   UNL     1      35.950 -19.931 -21.078  0.00  0.00    -0.024 C 
ATOM      2  C   UNL     1      34.570 -20.129 -21.015  0.00  0.00    -0.003 C 
ATOM      3  C   UNL     1      36.800 -20.690 -20.273  0.00  0.00    -0.003 C 
ATOM      4  C   UNL     1      34.892 -21.845 -19.345  0.00  0.00    +0.050 C 
ATOM      5  C   UNL     1      34.041 -21.085 -20.149  0.00  0.00    +0.014 C 
ATOM      6  C   UNL     1      36.272 -21.647 -19.408  0.00  0.00    +0.014 C 
ENDROOT
BRANCH   4   8
ATOM      7  O   UNL     1      35.504 -22.413 -16.452  0.00  0.00    -0.273 OA
ATOM      8  N   UNL     1      34.356 -22.815 -18.466  0.00  0.00    -0.283 N 
ATOM      9  C   UNL     1      34.688 -23.025 -17.135  0.00  0.00    +0.245 C 
ATOM     10  H   UNL     1      33.668 -23.411 -18.843  0.00  0.00    +0.155 HD
BRANCH   9  14
ATOM     11  O   UNL     1      36.278 -25.755 -15.819  0.00  0.00    -0.269 OA
ATOM     12  N   UNL     1      34.448 -24.435 -15.244  0.00  0.00    -0.237 N 
ATOM     13  N   UNL     1      33.937 -23.951 -12.965  0.00  0.00    -0.233 NA
ATOM     14  C   UNL     1      33.893 -24.153 -16.550  0.00  0.00    +0.158 C 
ATOM     15  C   UNL     1      32.461 -23.736 -16.247  0.00  0.00    +0.037 C 
ATOM     16  C   UNL     1      32.522 -23.140 -14.838  0.00  0.00    +0.064 C 
ATOM     17  C   UNL     1      33.682 -23.869 -14.229  0.00  0.00    +0.115 C 
ATOM     18  C   UNL     1      35.570 -25.198 -14.987  0.00  0.00    +0.256 C 
ATOM     19  C   UNL     1      35.872 -25.295 -13.535  0.00  0.00    +0.079 C 
ATOM     20  C   UNL     1      35.061 -24.682 -12.659  0.00  0.00    +0.105 C 
ENDBRANCH   9  14
ENDBRANCH   4   8
BRANCH   1  21
ATOM     21  C   UNL     1      36.516 -18.907 -22.003  0.00  0.00    +0.005 C 
BRANCH  21  24
ATOM     22  N   UNL     1      35.410 -16.713 -22.335  0.00  0.00    +0.388 N 
ATOM     23  C   UNL     1      34.615 -16.050 -23.380  0.00  0.00    -0.030 C 
ATOM     24  C   UNL     1      35.434 -18.128 -22.733  0.00  0.00    -0.057 C 
ATOM     25  C   UNL     1      34.953 -16.789 -24.676  0.00  0.00    -0.021 C 
ATOM     26  C   UNL     1      35.659 -18.066 -24.237  0.00  0.00    -0.023 C 
ATOM     27  H   UNL     1      34.969 -16.603 -21.423  0.00  0.00    -0.084 HD
ATOM     28  H   UNL     1      36.346 -16.318 -22.251  0.00  0.00    -0.084 HD
BRANCH  23  29
ATOM     29  C   UNL     1      34.910 -14.559 -23.453  0.00  0.00    +0.113 C 
BRANCH  29  30
ATOM     30  C   UNL     1      34.362 -13.929 -24.713  0.00  0.00    +0.002 C 
ATOM     31  C   UNL     1      34.422 -12.546 -24.886  0.00  0.00    -0.002 C 
ATOM     32  C   UNL     1      33.794 -14.731 -25.704  0.00  0.00    -0.002 C 
ATOM     33  C   UNL     1      33.916 -11.965 -26.048  0.00  0.00    -0.000 C 
ATOM     34  C   UNL     1      33.287 -14.151 -26.866  0.00  0.00    -0.000 C 
ATOM     35  C   UNL     1      33.348 -12.767 -27.039  0.00  0.00    -0.000 C 
ENDBRANCH  29  30
BRANCH  29  36
ATOM     36  O   UNL     1      34.345 -13.900 -22.320  0.00  0.00    -0.382 OA
ATOM     37  H   UNL     1      33.576 -13.380 -22.599  0.00  0.00    +0.211 HD
ENDBRANCH  29  36
ENDBRANCH  23  29
ENDBRANCH  21  24
ENDBRANCH   1  21
TORSDOF 7
ENDMDL
MODEL 6
REMARK VINA RESULT:     -11.1      6.018     10.707
REMARK  Name = 44472635
REMARK  7 active torsions:
REMARK  status: ('A' for Active; 'I' for Inactive)
REMARK    1  A    between atoms: C_1  and  C_21
REMARK    2  A    between atoms: C_4  and  N_8
REMARK    3  A    between atoms: C_9  and  C_14
REMARK    4  A    between atoms: C_21  and  C_24
REMARK    5  A    between atoms: C_23  and  C_29
REMARK    6  A    between atoms: C_29  and  C_30
REMARK    7  A    between atoms: C_29  and  O_36
REMARK                            x       y       z     vdW  Elec       q    Type
REMARK                         _______ _______ _______ _____ _____    ______ ____
ROOT
ATOM      1  C   UNL     1      33.792 -21.766 -19.373  0.00  0.00    -0.024 C 
ATOM      2  C   UNL     1      32.811 -22.334 -18.561  0.00  0.00    -0.003 C 
ATOM      3  C   UNL     1      35.141 -21.943 -19.063  0.00  0.00    -0.003 C 
ATOM      4  C   UNL     1      34.527 -23.258 -17.133  0.00  0.00    +0.050 C 
ATOM      5  C   UNL     1      33.177 -23.080 -17.441  0.00  0.00    +0.014 C 
ATOM      6  C   UNL     1      35.508 -22.689 -17.944  0.00  0.00    +0.014 C 
ENDROOT
BRANCH   4   8
ATOM      7  O   UNL     1      35.974 -22.435 -14.624  0.00  0.00    -0.273 OA
ATOM      8  N   UNL     1      34.899 -24.015 -15.997  0.00  0.00    -0.283 N 
ATOM      9  C   UNL     1      35.572 -23.569 -14.868  0.00  0.00    +0.245 C 
ATOM     10  H   UNL     1      34.653 -24.969 -16.010  0.00  0.00    +0.155 HD
BRANCH   9  14
ATOM     11  O   UNL     1      36.901 -26.551 -15.895  0.00  0.00    -0.269 OA
ATOM     12  N   UNL     1      37.137 -25.151 -14.050  0.00  0.00    -0.237 N 
ATOM     13  N   UNL     1      39.243 -24.876 -12.967  0.00  0.00    -0.233 NA
ATOM     14  C   UNL     1      35.778 -24.683 -13.886  0.00  0.00    +0.158 C 
ATOM     15  C   UNL     1      35.744 -24.181 -12.449  0.00  0.00    +0.037 C 
ATOM     16  C   UNL     1      37.183 -23.749 -12.157  0.00  0.00    +0.064 C 
ATOM     17  C   UNL     1      37.978 -24.635 -13.068  0.00  0.00    +0.115 C 
ATOM     18  C   UNL     1      37.581 -26.030 -15.019  0.00  0.00    +0.256 C 
ATOM     19  C   UNL     1      39.036 -26.309 -14.910  0.00  0.00    +0.079 C 
ATOM     20  C   UNL     1      39.739 -25.729 -13.925  0.00  0.00    +0.105 C 
ENDBRANCH   9  14
ENDBRANCH   4   8
BRANCH   1  21
ATOM     21  C   UNL     1      33.401 -20.966 -20.569  0.00  0.00    +0.005 C 
BRANCH  21  24
ATOM     22  N   UNL     1      34.431 -19.135 -21.884  0.00  0.00    +0.388 N 
ATOM     23  C   UNL     1      35.785 -18.714 -22.276  0.00  0.00    -0.030 C 
ATOM     24  C   UNL     1      34.604 -20.502 -21.373  0.00  0.00    -0.057 C 
ATOM     25  C   UNL     1      36.722 -19.361 -21.256  0.00  0.00    -0.021 C 
ATOM     26  C   UNL     1      35.875 -20.408 -20.541  0.00  0.00    -0.023 C 
ATOM     27  H   UNL     1      33.805 -19.127 -22.688  0.00  0.00    -0.084 HD
ATOM     28  H   UNL     1      34.017 -18.511 -21.192  0.00  0.00    -0.084 HD
BRANCH  23  29
ATOM     29  C   UNL     1      35.914 -17.198 -22.323  0.00  0.00    +0.113 C 
BRANCH  29  30
ATOM     30  C   UNL     1      35.229 -16.603 -23.532  0.00  0.00    +0.002 C 
ATOM     31  C   UNL     1      34.767 -15.288 -23.497  0.00  0.00    -0.002 C 
ATOM     32  C   UNL     1      35.059 -17.371 -24.685  0.00  0.00    -0.002 C 
ATOM     33  C   UNL     1      34.135 -14.740 -24.612  0.00  0.00    -0.000 C 
ATOM     34  C   UNL     1      34.426 -16.824 -25.801  0.00  0.00    -0.000 C 
ATOM     35  C   UNL     1      33.965 -15.508 -25.765  0.00  0.00    -0.000 C 
ENDBRANCH  29  30
BRANCH  29  36
ATOM     36  O   UNL     1      35.348 -16.630 -21.141  0.00  0.00    -0.382 OA
ATOM     37  H   UNL     1      35.840 -16.942 -20.366  0.00  0.00    +0.211 HD
ENDBRANCH  29  36
ENDBRANCH  23  29
ENDBRANCH  21  24
ENDBRANCH   1  21
TORSDOF 7
ENDMDL
MODEL 7
REMARK VINA RESULT:     -11.0      7.355     12.025
REMARK  Name = 44472635
REMARK  7 active torsions:
REMARK  status: ('A' for Active; 'I' for Inactive)
REMARK    1  A    between atoms: C_1  and  C_21
REMARK    2  A    between atoms: C_4  and  N_8
REMARK    3  A    between atoms: C_9  and  C_14
REMARK    4  A    between atoms: C_21  and  C_24
REMARK    5  A    between atoms: C_23  and  C_29
REMARK    6  A    between atoms: C_29  and  C_30
REMARK    7  A    between atoms: C_29  and  O_36
REMARK                            x       y       z     vdW  Elec       q    Type
REMARK                         _______ _______ _______ _____ _____    ______ ____
ROOT
ATOM      1  C   UNL     1      34.277 -23.015 -18.137  0.00  0.00    -0.024 C 
ATOM      2  C   UNL     1      35.541 -22.628 -17.692  0.00  0.00    -0.003 C 
ATOM      3  C   UNL     1      33.478 -23.835 -17.339  0.00  0.00    -0.003 C 
ATOM      4  C   UNL     1      35.207 -23.880 -15.652  0.00  0.00    +0.050 C 
ATOM      5  C   UNL     1      36.006 -23.061 -16.450  0.00  0.00    +0.014 C 
ATOM      6  C   UNL     1      33.942 -24.267 -16.097  0.00  0.00    +0.014 C 
ENDROOT
BRANCH   4   8
ATOM      7  O   UNL     1      33.778 -24.145 -13.015  0.00  0.00    -0.273 OA
ATOM      8  N   UNL     1      35.678 -24.319 -14.392  0.00  0.00    -0.283 N 
ATOM      9  C   UNL     1      34.960 -24.415 -13.209  0.00  0.00    +0.245 C 
ATOM     10  H   UNL     1      36.625 -24.586 -14.351  0.00  0.00    +0.155 HD
BRANCH   9  14
ATOM     11  O   UNL     1      36.819 -27.258 -13.625  0.00  0.00    -0.269 OA
ATOM     12  N   UNL     1      37.136 -25.170 -12.647  0.00  0.00    -0.237 N 
ATOM     13  N   UNL     1      39.255 -24.078 -12.717  0.00  0.00    -0.233 NA
ATOM     14  C   UNL     1      35.822 -24.925 -12.093  0.00  0.00    +0.158 C 
ATOM     15  C   UNL     1      36.071 -23.854 -11.040  0.00  0.00    +0.037 C 
ATOM     16  C   UNL     1      37.298 -23.092 -11.548  0.00  0.00    +0.064 C 
ATOM     17  C   UNL     1      38.017 -24.134 -12.350  0.00  0.00    +0.115 C 
ATOM     18  C   UNL     1      37.523 -26.293 -13.352  0.00  0.00    +0.256 C 
ATOM     19  C   UNL     1      38.944 -26.234 -13.780  0.00  0.00    +0.079 C 
ATOM     20  C   UNL     1      39.682 -25.165 -13.444  0.00  0.00    +0.105 C 
ENDBRANCH   9  14
ENDBRANCH   4   8
BRANCH   1  21
ATOM     21  C   UNL     1      33.780 -22.555 -19.466  0.00  0.00    +0.005 C 
BRANCH  21  24
ATOM     22  N   UNL     1      35.404 -21.021 -20.541  0.00  0.00    +0.388 N 
ATOM     23  C   UNL     1      35.412 -19.644 -21.056  0.00  0.00    -0.030 C 
ATOM     24  C   UNL     1      34.163 -21.114 -19.758  0.00  0.00    -0.057 C 
ATOM     25  C   UNL     1      33.947 -19.307 -21.335  0.00  0.00    -0.021 C 
ATOM     26  C   UNL     1      33.144 -20.393 -20.629  0.00  0.00    -0.023 C 
ATOM     27  H   UNL     1      36.216 -21.188 -19.948  0.00  0.00    -0.084 HD
ATOM     28  H   UNL     1      35.445 -21.714 -21.287  0.00  0.00    -0.084 HD
BRANCH  23  29
ATOM     29  C   UNL     1      36.297 -19.507 -22.287  0.00  0.00    +0.113 C 
BRANCH  29  30
ATOM     30  C   UNL     1      35.689 -18.596 -23.330  0.00  0.00    +0.002 C 
ATOM     31  C   UNL     1      34.972 -19.138 -24.396  0.00  0.00    -0.002 C 
ATOM     32  C   UNL     1      35.847 -17.214 -23.226  0.00  0.00    -0.002 C 
ATOM     33  C   UNL     1      34.412 -18.298 -25.358  0.00  0.00    -0.000 C 
ATOM     34  C   UNL     1      35.287 -16.374 -24.188  0.00  0.00    -0.000 C 
ATOM     35  C   UNL     1      34.569 -16.916 -25.254  0.00  0.00    -0.000 C 
ENDBRANCH  29  30
BRANCH  29  36
ATOM     36  O   UNL     1      37.574 -18.992 -21.907  0.00  0.00    -0.382 OA
ATOM     37  H   UNL     1      37.683 -19.077 -20.947  0.00  0.00    +0.211 HD
ENDBRANCH  29  36
ENDBRANCH  23  29
ENDBRANCH  21  24
ENDBRANCH   1  21
TORSDOF 7
ENDMDL
MODEL 8
REMARK VINA RESULT:     -10.8      5.947     13.153
REMARK  Name = 44472635
REMARK  7 active torsions:
REMARK  status: ('A' for Active; 'I' for Inactive)
REMARK    1  A    between atoms: C_1  and  C_21
REMARK    2  A    between atoms: C_4  and  N_8
REMARK    3  A    between atoms: C_9  and  C_14
REMARK    4  A    between atoms: C_21  and  C_24
REMARK    5  A    between atoms: C_23  and  C_29
REMARK    6  A    between atoms: C_29  and  C_30
REMARK    7  A    between atoms: C_29  and  O_36
REMARK                            x       y       z     vdW  Elec       q    Type
REMARK                         _______ _______ _______ _____ _____    ______ ____
ROOT
ATOM      1  C   UNL     1      34.276 -22.191 -19.466  0.00  0.00    -0.024 C 
ATOM      2  C   UNL     1      33.361 -21.326 -20.066  0.00  0.00    -0.003 C 
ATOM      3  C   UNL     1      35.645 -21.971 -19.617  0.00  0.00    -0.003 C 
ATOM      4  C   UNL     1      35.185 -20.022 -20.967  0.00  0.00    +0.050 C 
ATOM      5  C   UNL     1      33.815 -20.242 -20.817  0.00  0.00    +0.014 C 
ATOM      6  C   UNL     1      36.100 -20.887 -20.366  0.00  0.00    +0.014 C 
ENDROOT
BRANCH   4   8
ATOM      7  O   UNL     1      34.319 -19.013 -23.668  0.00  0.00    -0.273 OA
ATOM      8  N   UNL     1      35.646 -18.922 -21.728  0.00  0.00    -0.283 N 
ATOM      9  C   UNL     1      35.200 -18.512 -22.976  0.00  0.00    +0.245 C 
ATOM     10  H   UNL     1      36.368 -18.386 -21.324  0.00  0.00    +0.155 HD
BRANCH   9  14
ATOM     11  O   UNL     1      35.109 -17.598 -26.274  0.00  0.00    -0.269 OA
ATOM     12  N   UNL     1      35.020 -16.503 -24.222  0.00  0.00    -0.237 N 
ATOM     13  N   UNL     1      33.663 -14.566 -23.910  0.00  0.00    -0.233 NA
ATOM     14  C   UNL     1      35.946 -17.299 -23.446  0.00  0.00    +0.158 C 
ATOM     15  C   UNL     1      36.320 -16.385 -22.288  0.00  0.00    +0.037 C 
ATOM     16  C   UNL     1      35.100 -15.479 -22.102  0.00  0.00    +0.064 C 
ATOM     17  C   UNL     1      34.513 -15.440 -23.480  0.00  0.00    +0.115 C 
ATOM     18  C   UNL     1      34.683 -16.709 -25.545  0.00  0.00    +0.256 C 
ATOM     19  C   UNL     1      33.704 -15.710 -26.046  0.00  0.00    +0.079 C 
ATOM     20  C   UNL     1      33.278 -14.744 -25.218  0.00  0.00    +0.105 C 
ENDBRANCH   9  14
ENDBRANCH   4   8
BRANCH   1  21
ATOM     21  C   UNL     1      33.791 -23.352 -18.665  0.00  0.00    +0.005 C 
BRANCH  21  24
ATOM     22  N   UNL     1      32.440 -23.118 -16.600  0.00  0.00    +0.388 N 
ATOM     23  C   UNL     1      32.658 -23.213 -15.148  0.00  0.00    -0.030 C 
ATOM     24  C   UNL     1      33.793 -23.065 -17.173  0.00  0.00    -0.057 C 
ATOM     25  C   UNL     1      33.920 -24.060 -14.983  0.00  0.00    -0.021 C 
ATOM     26  C   UNL     1      34.555 -24.108 -16.368  0.00  0.00    -0.023 C 
ATOM     27  H   UNL     1      31.918 -22.272 -16.830  0.00  0.00    -0.084 HD
ATOM     28  H   UNL     1      31.895 -23.899 -16.962  0.00  0.00    -0.084 HD
BRANCH  23  29
ATOM     29  C   UNL     1      31.450 -23.802 -14.433  0.00  0.00    +0.113 C 
BRANCH  29  30
ATOM     30  C   UNL     1      30.184 -23.671 -15.249  0.00  0.00    +0.002 C 
ATOM     31  C   UNL     1      29.747 -24.737 -16.036  0.00  0.00    -0.002 C 
ATOM     32  C   UNL     1      29.453 -22.484 -15.216  0.00  0.00    -0.002 C 
ATOM     33  C   UNL     1      28.580 -24.616 -16.789  0.00  0.00    -0.000 C 
ATOM     34  C   UNL     1      28.285 -22.362 -15.970  0.00  0.00    -0.000 C 
ATOM     35  C   UNL     1      27.848 -23.429 -16.756  0.00  0.00    -0.000 C 
ENDBRANCH  29  30
BRANCH  29  36
ATOM     36  O   UNL     1      31.682 -25.182 -14.151  0.00  0.00    -0.382 OA
ATOM     37  H   UNL     1      30.835 -25.624 -13.985  0.00  0.00    +0.211 HD
ENDBRANCH  29  36
ENDBRANCH  23  29
ENDBRANCH  21  24
ENDBRANCH   1  21
TORSDOF 7
ENDMDL
MODEL 9
REMARK VINA RESULT:     -10.7      7.362     11.880
REMARK  Name = 44472635
REMARK  7 active torsions:
REMARK  status: ('A' for Active; 'I' for Inactive)
REMARK    1  A    between atoms: C_1  and  C_21
REMARK    2  A    between atoms: C_4  and  N_8
REMARK    3  A    between atoms: C_9  and  C_14
REMARK    4  A    between atoms: C_21  and  C_24
REMARK    5  A    between atoms: C_23  and  C_29
REMARK    6  A    between atoms: C_29  and  C_30
REMARK    7  A    between atoms: C_29  and  O_36
REMARK                            x       y       z     vdW  Elec       q    Type
REMARK                         _______ _______ _______ _____ _____    ______ ____
ROOT
ATOM      1  C   UNL     1      34.548 -22.867 -18.044  0.00  0.00    -0.024 C 
ATOM      2  C   UNL     1      35.827 -22.325 -17.919  0.00  0.00    -0.003 C 
ATOM      3  C   UNL     1      34.095 -23.805 -17.117  0.00  0.00    -0.003 C 
ATOM      4  C   UNL     1      36.199 -23.658 -15.939  0.00  0.00    +0.050 C 
ATOM      5  C   UNL     1      36.653 -22.720 -16.867  0.00  0.00    +0.014 C 
ATOM      6  C   UNL     1      34.920 -24.200 -16.064  0.00  0.00    +0.014 C 
ENDROOT
BRANCH   4   8
ATOM      7  O   UNL     1      39.195 -23.911 -15.791  0.00  0.00    -0.273 OA
ATOM      8  N   UNL     1      37.036 -24.060 -14.870  0.00  0.00    -0.283 N 
ATOM      9  C   UNL     1      38.420 -24.156 -14.872  0.00  0.00    +0.245 C 
ATOM     10  H   UNL     1      36.582 -24.298 -14.029  0.00  0.00    +0.155 HD
BRANCH   9  14
ATOM     11  O   UNL     1      38.235 -22.099 -12.143  0.00  0.00    -0.269 OA
ATOM     12  N   UNL     1      37.890 -24.361 -12.570  0.00  0.00    -0.237 N 
ATOM     13  N   UNL     1      36.182 -25.587 -11.445  0.00  0.00    -0.233 NA
ATOM     14  C   UNL     1      38.932 -24.619 -13.541  0.00  0.00    +0.158 C 
ATOM     15  C   UNL     1      39.097 -26.131 -13.495  0.00  0.00    +0.037 C 
ATOM     16  C   UNL     1      37.722 -26.656 -13.073  0.00  0.00    +0.064 C 
ATOM     17  C   UNL     1      37.172 -25.515 -12.272  0.00  0.00    +0.115 C 
ATOM     18  C   UNL     1      37.631 -23.149 -11.960  0.00  0.00    +0.256 C 
ATOM     19  C   UNL     1      36.492 -23.223 -11.009  0.00  0.00    +0.079 C 
ATOM     20  C   UNL     1      35.870 -24.398 -10.828  0.00  0.00    +0.105 C 
ENDBRANCH   9  14
ENDBRANCH   4   8
BRANCH   1  21
ATOM     21  C   UNL     1      33.667 -22.446 -19.171  0.00  0.00    +0.005 C 
BRANCH  21  24
ATOM     22  N   UNL     1      35.209 -20.939 -20.393  0.00  0.00    +0.388 N 
ATOM     23  C   UNL     1      35.136 -19.638 -21.075  0.00  0.00    -0.030 C 
ATOM     24  C   UNL     1      33.955 -21.027 -19.631  0.00  0.00    -0.057 C 
ATOM     25  C   UNL     1      33.660 -19.446 -21.425  0.00  0.00    -0.021 C 
ATOM     26  C   UNL     1      32.915 -20.494 -20.606  0.00  0.00    -0.023 C 
ATOM     27  H   UNL     1      36.014 -20.972 -19.767  0.00  0.00    -0.084 HD
ATOM     28  H   UNL     1      35.322 -21.713 -21.047  0.00  0.00    -0.084 HD
BRANCH  23  29
ATOM     29  C   UNL     1      36.046 -19.587 -22.294  0.00  0.00    +0.113 C 
BRANCH  29  30
ATOM     30  C   UNL     1      35.539 -18.627 -23.346  0.00  0.00    +0.002 C 
ATOM     31  C   UNL     1      35.778 -17.259 -23.217  0.00  0.00    -0.002 C 
ATOM     32  C   UNL     1      34.829 -19.110 -24.446  0.00  0.00    -0.002 C 
ATOM     33  C   UNL     1      35.310 -16.374 -24.187  0.00  0.00    -0.000 C 
ATOM     34  C   UNL     1      34.360 -18.225 -25.417  0.00  0.00    -0.000 C 
ATOM     35  C   UNL     1      34.600 -16.857 -25.288  0.00  0.00    -0.000 C 
ENDBRANCH  29  30
BRANCH  29  36
ATOM     36  O   UNL     1      37.359 -19.192 -21.898  0.00  0.00    -0.382 OA
ATOM     37  H   UNL     1      37.854 -18.890 -22.676  0.00  0.00    +0.211 HD
ENDBRANCH  29  36
ENDBRANCH  23  29
ENDBRANCH  21  24
ENDBRANCH   1  21
TORSDOF 7
ENDMDL
