MODEL 1
REMARK VINA RESULT:     -11.2      0.000      0.000
REMARK  Name = 25195365
REMARK  5 active torsions:
REMARK  status: ('A' for Active; 'I' for Inactive)
REMARK    1  A    between atoms: C_1  and  C_3
REMARK    2  A    between atoms: C_1  and  C_17
REMARK    3  A    between atoms: C_4  and  C_9
REMARK    4  A    between atoms: C_6  and  O_15
REMARK    5  A    between atoms: C_18  and  C_23
REMARK                            x       y       z     vdW  Elec       q    Type
REMARK                         _______ _______ _______ _____ _____    ______ ____
ROOT
ATOM      1  C   UNL     1      33.176 -23.193 -17.865  0.00  0.00    +0.086 C 
ATOM      2  C   UNL     1      31.797 -22.846 -17.271  0.00  0.00    +0.019 C 
ENDROOT
BRANCH   1   3
ATOM      3  C   UNL     1      33.624 -22.214 -18.897  0.00  0.00    -0.007 C 
ATOM      4  C   UNL     1      34.460 -20.383 -20.828  0.00  0.00    +0.034 C 
ATOM      5  C   UNL     1      34.984 -22.044 -19.155  0.00  0.00    +0.034 C 
ATOM      6  C   UNL     1      35.403 -21.128 -20.120  0.00  0.00    +0.138 C 
ATOM      7  C   UNL     1      32.682 -21.467 -19.605  0.00  0.00    -0.003 C 
ATOM      8  C   UNL     1      33.100 -20.552 -20.571  0.00  0.00    +0.003 C 
BRANCH   4   9
ATOM      9  C   UNL     1      34.872 -19.427 -21.833  0.00  0.00    +0.003 C 
ATOM     10  C   UNL     1      34.812 -19.766 -23.186  0.00  0.00    +0.000 C 
ATOM     11  C   UNL     1      35.330 -18.166 -21.451  0.00  0.00    +0.000 C 
ATOM     12  C   UNL     1      35.208 -18.845 -24.154  0.00  0.00    +0.000 C 
ATOM     13  C   UNL     1      35.727 -17.244 -22.420  0.00  0.00    +0.000 C 
ATOM     14  C   UNL     1      35.666 -17.584 -23.771  0.00  0.00    +0.000 C 
ENDBRANCH   4   9
BRANCH   6  15
ATOM     15  O   UNL     1      36.738 -20.984 -20.353  0.00  0.00    -0.471 OA
ATOM     16  C   UNL     1      37.509 -20.354 -19.331  0.00  0.00    +0.252 C 
ENDBRANCH   6  15
ENDBRANCH   1   3
BRANCH   1  17
ATOM     17  C   UNL     1      34.165 -23.345 -16.767  0.00  0.00    -0.087 C 
ATOM     18  C   UNL     1      34.949 -23.476 -15.865  0.00  0.00    -0.076 C 
BRANCH  18  23
ATOM     19  N   UNL     1      38.100 -23.360 -13.908  0.00  0.00    -0.336 NA
ATOM     20  N   UNL     1      36.383 -24.374 -12.555  0.00  0.00    -0.317 NA
ATOM     21  N   UNL     1      34.193 -24.658 -13.402  0.00  0.00    -0.334 N 
ATOM     22  N   UNL     1      38.560 -24.087 -11.725  0.00  0.00    -0.283 N 
ATOM     23  C   UNL     1      35.877 -23.638 -14.789  0.00  0.00    +0.179 C 
ATOM     24  C   UNL     1      37.190 -23.227 -14.895  0.00  0.00    +0.120 C 
ATOM     25  C   UNL     1      35.527 -24.210 -13.584  0.00  0.00    +0.186 C 
ATOM     26  C   UNL     1      37.698 -22.592 -16.150  0.00  0.00    +0.064 C 
ATOM     27  C   UNL     1      37.635 -23.933 -12.782  0.00  0.00    +0.196 C 
ATOM     28  H   UNL     1      33.925 -25.069 -12.549  0.00  0.00    +0.144 HD
ATOM     29  H   UNL     1      33.537 -24.556 -14.129  0.00  0.00    +0.144 HD
ATOM     30  H   UNL     1      39.489 -23.782 -11.836  0.00  0.00    +0.156 HD
ATOM     31  H   UNL     1      38.275 -24.500 -10.878  0.00  0.00    +0.156 HD
ENDBRANCH  18  23
ENDBRANCH   1  17
TORSDOF 5
ENDMDL
MODEL 2
REMARK VINA RESULT:     -11.2      4.248      6.910
REMARK  Name = 25195365
REMARK  5 active torsions:
REMARK  status: ('A' for Active; 'I' for Inactive)
REMARK    1  A    between atoms: C_1  and  C_3
REMARK    2  A    between atoms: C_1  and  C_17
REMARK    3  A    between atoms: C_4  and  C_9
REMARK    4  A    between atoms: C_6  and  O_15
REMARK    5  A    between atoms: C_18  and  C_23
REMARK                            x       y       z     vdW  Elec       q    Type
REMARK                         _______ _______ _______ _____ _____    ______ ____
ROOT
ATOM      1  C   UNL     1      36.317 -18.393 -22.641  0.00  0.00    +0.086 C 
ATOM      2  C   UNL     1      36.348 -19.023 -24.047  0.00  0.00    +0.019 C 
ENDROOT
BRANCH   1   3
ATOM      3  C   UNL     1      35.585 -17.095 -22.605  0.00  0.00    -0.007 C 
ATOM      4  C   UNL     1      34.214 -14.666 -22.536  0.00  0.00    +0.034 C 
ATOM      5  C   UNL     1      35.204 -16.474 -23.795  0.00  0.00    +0.034 C 
ATOM      6  C   UNL     1      34.519 -15.259 -23.761  0.00  0.00    +0.138 C 
ATOM      7  C   UNL     1      35.280 -16.500 -21.381  0.00  0.00    -0.003 C 
ATOM      8  C   UNL     1      34.595 -15.286 -21.346  0.00  0.00    +0.003 C 
BRANCH   4   9
ATOM      9  C   UNL     1      33.505 -13.406 -22.478  0.00  0.00    +0.003 C 
ATOM     10  C   UNL     1      33.826 -12.383 -23.371  0.00  0.00    +0.000 C 
ATOM     11  C   UNL     1      32.501 -13.213 -21.529  0.00  0.00    +0.000 C 
ATOM     12  C   UNL     1      33.142 -11.169 -23.316  0.00  0.00    +0.000 C 
ATOM     13  C   UNL     1      31.817 -11.998 -21.474  0.00  0.00    +0.000 C 
ATOM     14  C   UNL     1      32.138 -10.977 -22.367  0.00  0.00    +0.000 C 
ENDBRANCH   4   9
BRANCH   6  15
ATOM     15  O   UNL     1      34.158 -14.676 -24.939  0.00  0.00    -0.471 OA
ATOM     16  C   UNL     1      33.739 -15.544 -25.989  0.00  0.00    +0.252 C 
ENDBRANCH   6  15
ENDBRANCH   1   3
BRANCH   1  17
ATOM     17  C   UNL     1      35.770 -19.375 -21.669  0.00  0.00    -0.087 C 
ATOM     18  C   UNL     1      35.308 -20.170 -20.896  0.00  0.00    -0.076 C 
BRANCH  18  23
ATOM     19  N   UNL     1      35.062 -22.692 -18.184  0.00  0.00    -0.336 NA
ATOM     20  N   UNL     1      32.862 -22.313 -19.093  0.00  0.00    -0.317 NA
ATOM     21  N   UNL     1      32.538 -20.771 -20.857  0.00  0.00    -0.334 N 
ATOM     22  N   UNL     1      33.197 -23.840 -17.342  0.00  0.00    -0.283 N 
ATOM     23  C   UNL     1      34.754 -21.118 -19.979  0.00  0.00    +0.179 C 
ATOM     24  C   UNL     1      35.540 -21.790 -19.066  0.00  0.00    +0.120 C 
ATOM     25  C   UNL     1      33.409 -21.423 -19.946  0.00  0.00    +0.186 C 
ATOM     26  C   UNL     1      37.015 -21.552 -18.999  0.00  0.00    +0.064 C 
ATOM     27  C   UNL     1      33.733 -22.902 -18.251  0.00  0.00    +0.196 C 
ATOM     28  H   UNL     1      31.575 -20.975 -20.849  0.00  0.00    +0.144 HD
ATOM     29  H   UNL     1      32.898 -20.115 -21.497  0.00  0.00    +0.144 HD
ATOM     30  H   UNL     1      33.787 -24.300 -16.704  0.00  0.00    +0.156 HD
ATOM     31  H   UNL     1      32.231 -24.032 -17.346  0.00  0.00    +0.156 HD
ENDBRANCH  18  23
ENDBRANCH   1  17
TORSDOF 5
ENDMDL
MODEL 3
REMARK VINA RESULT:     -10.7      4.061      7.006
REMARK  Name = 25195365
REMARK  5 active torsions:
REMARK  status: ('A' for Active; 'I' for Inactive)
REMARK    1  A    between atoms: C_1  and  C_3
REMARK    2  A    between atoms: C_1  and  C_17
REMARK    3  A    between atoms: C_4  and  C_9
REMARK    4  A    between atoms: C_6  and  O_15
REMARK    5  A    between atoms: C_18  and  C_23
REMARK                            x       y       z     vdW  Elec       q    Type
REMARK                         _______ _______ _______ _____ _____    ______ ____
ROOT
ATOM      1  C   UNL     1      36.372 -18.353 -22.661  0.00  0.00    +0.086 C 
ATOM      2  C   UNL     1      36.440 -18.959 -24.076  0.00  0.00    +0.019 C 
ENDROOT
BRANCH   1   3
ATOM      3  C   UNL     1      35.622 -17.065 -22.619  0.00  0.00    -0.007 C 
ATOM      4  C   UNL     1      34.219 -14.655 -22.539  0.00  0.00    +0.034 C 
ATOM      5  C   UNL     1      35.237 -16.442 -23.806  0.00  0.00    +0.034 C 
ATOM      6  C   UNL     1      34.536 -15.237 -23.767  0.00  0.00    +0.138 C 
ATOM      7  C   UNL     1      35.306 -16.482 -21.392  0.00  0.00    -0.003 C 
ATOM      8  C   UNL     1      34.604 -15.278 -21.351  0.00  0.00    +0.003 C 
BRANCH   4   9
ATOM      9  C   UNL     1      33.493 -13.405 -22.475  0.00  0.00    +0.003 C 
ATOM     10  C   UNL     1      32.492 -13.227 -21.519  0.00  0.00    +0.000 C 
ATOM     11  C   UNL     1      33.793 -12.377 -23.368  0.00  0.00    +0.000 C 
ATOM     12  C   UNL     1      31.793 -12.023 -21.456  0.00  0.00    +0.000 C 
ATOM     13  C   UNL     1      33.093 -11.172 -23.306  0.00  0.00    +0.000 C 
ATOM     14  C   UNL     1      32.094 -10.995 -22.350  0.00  0.00    +0.000 C 
ENDBRANCH   4   9
BRANCH   6  15
ATOM     15  O   UNL     1      34.171 -14.650 -24.942  0.00  0.00    -0.471 OA
ATOM     16  C   UNL     1      33.825 -15.519 -26.019  0.00  0.00    +0.252 C 
ENDBRANCH   6  15
ENDBRANCH   1   3
BRANCH   1  17
ATOM     17  C   UNL     1      35.818 -19.358 -21.717  0.00  0.00    -0.087 C 
ATOM     18  C   UNL     1      35.379 -20.159 -20.937  0.00  0.00    -0.076 C 
BRANCH  18  23
ATOM     19  N   UNL     1      32.968 -22.251 -19.043  0.00  0.00    -0.336 NA
ATOM     20  N   UNL     1      35.195 -22.725 -18.252  0.00  0.00    -0.317 NA
ATOM     21  N   UNL     1      37.064 -21.613 -19.181  0.00  0.00    -0.334 N 
ATOM     22  N   UNL     1      33.332 -23.822 -17.339  0.00  0.00    -0.283 N 
ATOM     23  C   UNL     1      34.857 -21.108 -20.003  0.00  0.00    +0.179 C 
ATOM     24  C   UNL     1      33.505 -21.366 -19.908  0.00  0.00    +0.120 C 
ATOM     25  C   UNL     1      35.662 -21.824 -19.141  0.00  0.00    +0.186 C 
ATOM     26  C   UNL     1      32.524 -20.655 -20.785  0.00  0.00    +0.064 C 
ATOM     27  C   UNL     1      33.858 -22.886 -18.257  0.00  0.00    +0.196 C 
ATOM     28  H   UNL     1      37.655 -22.114 -18.574  0.00  0.00    +0.144 HD
ATOM     29  H   UNL     1      37.445 -20.964 -19.816  0.00  0.00    +0.144 HD
ATOM     30  H   UNL     1      32.362 -23.980 -17.299  0.00  0.00    +0.156 HD
ATOM     31  H   UNL     1      33.937 -24.316 -16.739  0.00  0.00    +0.156 HD
ENDBRANCH  18  23
ENDBRANCH   1  17
TORSDOF 5
ENDMDL
MODEL 4
REMARK VINA RESULT:     -10.1      5.072      8.317
REMARK  Name = 25195365
REMARK  5 active torsions:
REMARK  status: ('A' for Active; 'I' for Inactive)
REMARK    1  A    between atoms: C_1  and  C_3
REMARK    2  A    between atoms: C_1  and  C_17
REMARK    3  A    between atoms: C_4  and  C_9
REMARK    4  A    between atoms: C_6  and  O_15
REMARK    5  A    between atoms: C_18  and  C_23
REMARK                            x       y       z     vdW  Elec       q    Type
REMARK                         _______ _______ _______ _____ _____    ______ ____
ROOT
ATOM      1  C   UNL     1      35.007 -17.634 -24.765  0.00  0.00    +0.086 C 
ATOM      2  C   UNL     1      33.994 -18.344 -25.683  0.00  0.00    +0.019 C 
ENDROOT
BRANCH   1   3
ATOM      3  C   UNL     1      34.628 -16.223 -24.467  0.00  0.00    -0.007 C 
ATOM      4  C   UNL     1      33.918 -13.583 -23.909  0.00  0.00    +0.034 C 
ATOM      5  C   UNL     1      34.013 -15.443 -25.447  0.00  0.00    +0.034 C 
ATOM      6  C   UNL     1      33.659 -14.123 -25.168  0.00  0.00    +0.138 C 
ATOM      7  C   UNL     1      34.887 -15.682 -23.208  0.00  0.00    -0.003 C 
ATOM      8  C   UNL     1      34.532 -14.363 -22.928  0.00  0.00    +0.003 C 
BRANCH   4   9
ATOM      9  C   UNL     1      33.559 -12.216 -23.598  0.00  0.00    +0.003 C 
ATOM     10  C   UNL     1      32.557 -11.953 -22.665  0.00  0.00    +0.000 C 
ATOM     11  C   UNL     1      34.216 -11.161 -24.233  0.00  0.00    +0.000 C 
ATOM     12  C   UNL     1      32.211 -10.635 -22.365  0.00  0.00    +0.000 C 
ATOM     13  C   UNL     1      33.870  -9.843 -23.933  0.00  0.00    +0.000 C 
ATOM     14  C   UNL     1      32.868  -9.581 -23.000  0.00  0.00    +0.000 C 
ENDBRANCH   4   9
BRANCH   6  15
ATOM     15  O   UNL     1      33.058 -13.384 -26.144  0.00  0.00    -0.471 OA
ATOM     16  C   UNL     1      33.652 -13.420 -27.440  0.00  0.00    +0.252 C 
ENDBRANCH   6  15
ENDBRANCH   1   3
BRANCH   1  17
ATOM     17  C   UNL     1      35.205 -18.436 -23.530  0.00  0.00    -0.087 C 
ATOM     18  C   UNL     1      35.342 -19.092 -22.533  0.00  0.00    -0.076 C 
BRANCH  18  23
ATOM     19  N   UNL     1      34.547 -21.302 -19.659  0.00  0.00    -0.336 NA
ATOM     20  N   UNL     1      36.891 -20.748 -19.587  0.00  0.00    -0.317 NA
ATOM     21  N   UNL     1      37.849 -19.350 -21.236  0.00  0.00    -0.334 N 
ATOM     22  N   UNL     1      35.929 -22.135 -17.956  0.00  0.00    -0.283 N 
ATOM     23  C   UNL     1      35.502 -19.877 -21.348  0.00  0.00    +0.179 C 
ATOM     24  C   UNL     1      34.443 -20.550 -20.775  0.00  0.00    +0.120 C 
ATOM     25  C   UNL     1      36.714 -20.014 -20.704  0.00  0.00    +0.186 C 
ATOM     26  C   UNL     1      33.074 -20.483 -21.374  0.00  0.00    +0.064 C 
ATOM     27  C   UNL     1      35.782 -21.357 -19.125  0.00  0.00    +0.196 C 
ATOM     28  H   UNL     1      38.723 -19.436 -20.791  0.00  0.00    +0.144 HD
ATOM     29  H   UNL     1      37.762 -18.804 -22.051  0.00  0.00    +0.144 HD
ATOM     30  H   UNL     1      35.151 -22.602 -17.575  0.00  0.00    +0.156 HD
ATOM     31  H   UNL     1      36.810 -22.211 -17.523  0.00  0.00    +0.156 HD
ENDBRANCH  18  23
ENDBRANCH   1  17
TORSDOF 5
ENDMDL
MODEL 5
REMARK VINA RESULT:     -10.0      4.885      8.084
REMARK  Name = 25195365
REMARK  5 active torsions:
REMARK  status: ('A' for Active; 'I' for Inactive)
REMARK    1  A    between atoms: C_1  and  C_3
REMARK    2  A    between atoms: C_1  and  C_17
REMARK    3  A    between atoms: C_4  and  C_9
REMARK    4  A    between atoms: C_6  and  O_15
REMARK    5  A    between atoms: C_18  and  C_23
REMARK                            x       y       z     vdW  Elec       q    Type
REMARK                         _______ _______ _______ _____ _____    ______ ____
ROOT
ATOM      1  C   UNL     1      34.924 -17.551 -24.852  0.00  0.00    +0.086 C 
ATOM      2  C   UNL     1      33.878 -18.240 -25.750  0.00  0.00    +0.019 C 
ENDROOT
BRANCH   1   3
ATOM      3  C   UNL     1      34.572 -16.138 -24.535  0.00  0.00    -0.007 C 
ATOM      4  C   UNL     1      33.913 -13.493 -23.942  0.00  0.00    +0.034 C 
ATOM      5  C   UNL     1      34.851 -15.615 -23.272  0.00  0.00    +0.034 C 
ATOM      6  C   UNL     1      34.522 -14.293 -22.975  0.00  0.00    +0.138 C 
ATOM      7  C   UNL     1      33.962 -15.337 -25.501  0.00  0.00    -0.003 C 
ATOM      8  C   UNL     1      33.633 -14.015 -25.205  0.00  0.00    +0.003 C 
BRANCH   4   9
ATOM      9  C   UNL     1      33.562 -12.119 -23.655  0.00  0.00    +0.003 C 
ATOM     10  C   UNL     1      32.542 -11.834 -22.747  0.00  0.00    +0.000 C 
ATOM     11  C   UNL     1      34.243 -11.077 -24.286  0.00  0.00    +0.000 C 
ATOM     12  C   UNL     1      32.204 -10.510 -22.469  0.00  0.00    +0.000 C 
ATOM     13  C   UNL     1      33.904  -9.753 -24.009  0.00  0.00    +0.000 C 
ATOM     14  C   UNL     1      32.885  -9.470 -23.101  0.00  0.00    +0.000 C 
ENDBRANCH   4   9
BRANCH   6  15
ATOM     15  O   UNL     1      34.808 -13.807 -21.734  0.00  0.00    -0.471 OA
ATOM     16  C   UNL     1      34.522 -14.657 -20.625  0.00  0.00    +0.252 C 
ENDBRANCH   6  15
ENDBRANCH   1   3
BRANCH   1  17
ATOM     17  C   UNL     1      35.141 -18.366 -23.629  0.00  0.00    -0.087 C 
ATOM     18  C   UNL     1      35.339 -19.020 -22.640  0.00  0.00    -0.076 C 
BRANCH  18  23
ATOM     19  N   UNL     1      34.752 -21.243 -19.727  0.00  0.00    -0.336 NA
ATOM     20  N   UNL     1      37.077 -20.611 -19.765  0.00  0.00    -0.317 NA
ATOM     21  N   UNL     1      37.910 -19.188 -21.460  0.00  0.00    -0.334 N 
ATOM     22  N   UNL     1      36.238 -22.022 -18.087  0.00  0.00    -0.283 N 
ATOM     23  C   UNL     1      35.579 -19.794 -21.462  0.00  0.00    +0.179 C 
ATOM     24  C   UNL     1      34.571 -20.500 -20.838  0.00  0.00    +0.120 C 
ATOM     25  C   UNL     1      36.824 -19.888 -20.875  0.00  0.00    +0.186 C 
ATOM     26  C   UNL     1      33.175 -20.482 -21.374  0.00  0.00    +0.064 C 
ATOM     27  C   UNL     1      36.011 -21.254 -19.250  0.00  0.00    +0.196 C 
ATOM     28  H   UNL     1      38.806 -19.242 -21.056  0.00  0.00    +0.144 HD
ATOM     29  H   UNL     1      37.767 -18.649 -22.271  0.00  0.00    +0.144 HD
ATOM     30  H   UNL     1      35.496 -22.513 -17.669  0.00  0.00    +0.156 HD
ATOM     31  H   UNL     1      37.141 -22.066 -17.695  0.00  0.00    +0.156 HD
ENDBRANCH  18  23
ENDBRANCH   1  17
TORSDOF 5
ENDMDL
MODEL 6
REMARK VINA RESULT:     -10.0      4.213      7.001
REMARK  Name = 25195365
REMARK  5 active torsions:
REMARK  status: ('A' for Active; 'I' for Inactive)
REMARK    1  A    between atoms: C_1  and  C_3
REMARK    2  A    between atoms: C_1  and  C_17
REMARK    3  A    between atoms: C_4  and  C_9
REMARK    4  A    between atoms: C_6  and  O_15
REMARK    5  A    between atoms: C_18  and  C_23
REMARK                            x       y       z     vdW  Elec       q    Type
REMARK                         _______ _______ _______ _____ _____    ______ ____
ROOT
ATOM      1  C   UNL     1      35.799 -18.610 -23.750  0.00  0.00    +0.086 C 
ATOM      2  C   UNL     1      35.392 -19.310 -25.061  0.00  0.00    +0.019 C 
ENDROOT
BRANCH   1   3
ATOM      3  C   UNL     1      35.287 -17.212 -23.657  0.00  0.00    -0.007 C 
ATOM      4  C   UNL     1      34.330 -14.598 -23.486  0.00  0.00    +0.034 C 
ATOM      5  C   UNL     1      35.305 -16.542 -22.434  0.00  0.00    +0.034 C 
ATOM      6  C   UNL     1      34.826 -15.234 -22.348  0.00  0.00    +0.138 C 
ATOM      7  C   UNL     1      34.790 -16.575 -24.794  0.00  0.00    -0.003 C 
ATOM      8  C   UNL     1      34.312 -15.268 -24.709  0.00  0.00    +0.003 C 
BRANCH   4   9
ATOM      9  C   UNL     1      33.828 -13.242 -23.418  0.00  0.00    +0.003 C 
ATOM     10  C   UNL     1      32.781 -12.928 -22.551  0.00  0.00    +0.000 C 
ATOM     11  C   UNL     1      34.390 -12.249 -24.220  0.00  0.00    +0.000 C 
ATOM     12  C   UNL     1      32.298 -11.622 -22.485  0.00  0.00    +0.000 C 
ATOM     13  C   UNL     1      33.906 -10.942 -24.155  0.00  0.00    +0.000 C 
ATOM     14  C   UNL     1      32.860 -10.630 -23.287  0.00  0.00    +0.000 C 
ENDBRANCH   4   9
BRANCH   6  15
ATOM     15  O   UNL     1      34.857 -14.602 -21.140  0.00  0.00    -0.471 OA
ATOM     16  C   UNL     1      34.009 -15.119 -20.118  0.00  0.00    +0.252 C 
ENDBRANCH   6  15
ENDBRANCH   1   3
BRANCH   1  17
ATOM     17  C   UNL     1      35.378 -19.442 -22.592  0.00  0.00    -0.087 C 
ATOM     18  C   UNL     1      35.059 -20.121 -21.654  0.00  0.00    -0.076 C 
BRANCH  18  23
ATOM     19  N   UNL     1      35.324 -22.281 -18.647  0.00  0.00    -0.336 NA
ATOM     20  N   UNL     1      32.992 -21.931 -19.150  0.00  0.00    -0.317 NA
ATOM     21  N   UNL     1      32.345 -20.606 -20.998  0.00  0.00    -0.334 N 
ATOM     22  N   UNL     1      33.648 -23.244 -17.317  0.00  0.00    -0.283 N 
ATOM     23  C   UNL     1      34.686 -20.928 -20.534  0.00  0.00    +0.179 C 
ATOM     24  C   UNL     1      35.629 -21.513 -19.714  0.00  0.00    +0.120 C 
ATOM     25  C   UNL     1      33.370 -21.174 -20.200  0.00  0.00    +0.186 C 
ATOM     26  C   UNL     1      37.091 -21.324 -19.967  0.00  0.00    +0.064 C 
ATOM     27  C   UNL     1      34.006 -22.446 -18.426  0.00  0.00    +0.196 C 
ATOM     28  H   UNL     1      31.400 -20.771 -20.776  0.00  0.00    +0.144 HD
ATOM     29  H   UNL     1      32.579 -20.047 -21.774  0.00  0.00    +0.144 HD
ATOM     30  H   UNL     1      34.347 -23.645 -16.754  0.00  0.00    +0.156 HD
ATOM     31  H   UNL     1      32.698 -23.398 -17.108  0.00  0.00    +0.156 HD
ENDBRANCH  18  23
ENDBRANCH   1  17
TORSDOF 5
ENDMDL
MODEL 7
REMARK VINA RESULT:     -10.0      4.765      8.742
REMARK  Name = 25195365
REMARK  5 active torsions:
REMARK  status: ('A' for Active; 'I' for Inactive)
REMARK    1  A    between atoms: C_1  and  C_3
REMARK    2  A    between atoms: C_1  and  C_17
REMARK    3  A    between atoms: C_4  and  C_9
REMARK    4  A    between atoms: C_6  and  O_15
REMARK    5  A    between atoms: C_18  and  C_23
REMARK                            x       y       z     vdW  Elec       q    Type
REMARK                         _______ _______ _______ _____ _____    ______ ____
ROOT
ATOM      1  C   UNL     1      36.748 -21.979 -18.227  0.00  0.00    +0.086 C 
ATOM      2  C   UNL     1      37.643 -21.186 -17.256  0.00  0.00    +0.019 C 
ENDROOT
BRANCH   1   3
ATOM      3  C   UNL     1      35.507 -22.495 -17.581  0.00  0.00    -0.007 C 
ATOM      4  C   UNL     1      33.186 -23.460 -16.372  0.00  0.00    +0.034 C 
ATOM      5  C   UNL     1      35.515 -22.834 -16.228  0.00  0.00    +0.034 C 
ATOM      6  C   UNL     1      34.354 -23.317 -15.623  0.00  0.00    +0.138 C 
ATOM      7  C   UNL     1      34.339 -22.639 -18.329  0.00  0.00    -0.003 C 
ATOM      8  C   UNL     1      33.178 -23.121 -17.725  0.00  0.00    +0.003 C 
BRANCH   4   9
ATOM      9  C   UNL     1      31.971 -23.960 -15.765  0.00  0.00    +0.003 C 
ATOM     10  C   UNL     1      30.730 -23.507 -16.212  0.00  0.00    +0.000 C 
ATOM     11  C   UNL     1      32.041 -24.896 -14.732  0.00  0.00    +0.000 C 
ATOM     12  C   UNL     1      29.559 -23.989 -15.628  0.00  0.00    +0.000 C 
ATOM     13  C   UNL     1      30.869 -25.377 -14.148  0.00  0.00    +0.000 C 
ATOM     14  C   UNL     1      29.629 -24.924 -14.596  0.00  0.00    +0.000 C 
ENDBRANCH   4   9
BRANCH   6  15
ATOM     15  O   UNL     1      34.389 -23.639 -14.299  0.00  0.00    -0.471 OA
ATOM     16  C   UNL     1      35.629 -24.116 -13.781  0.00  0.00    +0.252 C 
ENDBRANCH   6  15
ENDBRANCH   1   3
BRANCH   1  17
ATOM     17  C   UNL     1      36.455 -21.146 -19.423  0.00  0.00    -0.087 C 
ATOM     18  C   UNL     1      36.198 -20.484 -20.392  0.00  0.00    -0.076 C 
BRANCH  18  23
ATOM     19  N   UNL     1      34.272 -18.931 -23.158  0.00  0.00    -0.336 NA
ATOM     20  N   UNL     1      36.557 -18.175 -23.284  0.00  0.00    -0.317 NA
ATOM     21  N   UNL     1      38.158 -18.916 -21.708  0.00  0.00    -0.334 N 
ATOM     22  N   UNL     1      34.959 -17.447 -24.842  0.00  0.00    -0.283 N 
ATOM     23  C   UNL     1      35.885 -19.696 -21.544  0.00  0.00    +0.179 C 
ATOM     24  C   UNL     1      34.612 -19.659 -22.074  0.00  0.00    +0.120 C 
ATOM     25  C   UNL     1      36.826 -18.927 -22.196  0.00  0.00    +0.186 C 
ATOM     26  C   UNL     1      33.500 -20.448 -21.461  0.00  0.00    +0.064 C 
ATOM     27  C   UNL     1      35.278 -18.223 -23.705  0.00  0.00    +0.196 C 
ATOM     28  H   UNL     1      38.843 -18.373 -22.160  0.00  0.00    +0.144 HD
ATOM     29  H   UNL     1      38.395 -19.451 -20.916  0.00  0.00    +0.144 HD
ATOM     30  H   UNL     1      34.040 -17.445 -25.192  0.00  0.00    +0.156 HD
ATOM     31  H   UNL     1      35.657 -16.909 -25.282  0.00  0.00    +0.156 HD
ENDBRANCH  18  23
ENDBRANCH   1  17
TORSDOF 5
ENDMDL
MODEL 8
REMARK VINA RESULT:      -9.7      9.382     12.643
REMARK  Name = 25195365
REMARK  5 active torsions:
REMARK  status: ('A' for Active; 'I' for Inactive)
REMARK    1  A    between atoms: C_1  and  C_3
REMARK    2  A    between atoms: C_1  and  C_17
REMARK    3  A    between atoms: C_4  and  C_9
REMARK    4  A    between atoms: C_6  and  O_15
REMARK    5  A    between atoms: C_18  and  C_23
REMARK                            x       y       z     vdW  Elec       q    Type
REMARK                         _______ _______ _______ _____ _____    ______ ____
ROOT
ATOM      1  C   UNL     1      31.860 -11.745 -21.091  0.00  0.00    +0.086 C 
ATOM      2  C   UNL     1      31.977 -11.596 -19.562  0.00  0.00    +0.019 C 
ENDROOT
BRANCH   1   3
ATOM      3  C   UNL     1      32.160 -10.479 -21.820  0.00  0.00    -0.007 C 
ATOM      4  C   UNL     1      32.724  -8.112 -23.184  0.00  0.00    +0.034 C 
ATOM      5  C   UNL     1      32.018  -9.251 -21.174  0.00  0.00    +0.034 C 
ATOM      6  C   UNL     1      32.299  -8.067 -21.856  0.00  0.00    +0.138 C 
ATOM      7  C   UNL     1      32.584 -10.523 -23.148  0.00  0.00    -0.003 C 
ATOM      8  C   UNL     1      32.866  -9.340 -23.830  0.00  0.00    +0.003 C 
BRANCH   4   9
ATOM      9  C   UNL     1      33.020  -6.896 -23.910  0.00  0.00    +0.003 C 
ATOM     10  C   UNL     1      32.025  -5.937 -24.101  0.00  0.00    +0.000 C 
ATOM     11  C   UNL     1      34.302  -6.682 -24.419  0.00  0.00    +0.000 C 
ATOM     12  C   UNL     1      32.311  -4.765 -24.801  0.00  0.00    +0.000 C 
ATOM     13  C   UNL     1      34.587  -5.509 -25.119  0.00  0.00    +0.000 C 
ATOM     14  C   UNL     1      33.591  -4.551 -25.309  0.00  0.00    +0.000 C 
ENDBRANCH   4   9
BRANCH   6  15
ATOM     15  O   UNL     1      32.153  -6.881 -21.200  0.00  0.00    -0.471 OA
ATOM     16  C   UNL     1      33.191  -6.509 -20.296  0.00  0.00    +0.252 C 
ENDBRANCH   6  15
ENDBRANCH   1   3
BRANCH   1  17
ATOM     17  C   UNL     1      32.712 -12.873 -21.547  0.00  0.00    -0.087 C 
ATOM     18  C   UNL     1      33.383 -13.795 -21.926  0.00  0.00    -0.076 C 
BRANCH  18  23
ATOM     19  N   UNL     1      35.135 -16.146 -24.201  0.00  0.00    -0.336 NA
ATOM     20  N   UNL     1      35.532 -16.829 -21.924  0.00  0.00    -0.317 NA
ATOM     21  N   UNL     1      34.601 -15.611 -20.123  0.00  0.00    -0.334 N 
ATOM     22  N   UNL     1      36.451 -18.028 -23.721  0.00  0.00    -0.283 N 
ATOM     23  C   UNL     1      34.178 -14.893 -22.382  0.00  0.00    +0.179 C 
ATOM     24  C   UNL     1      34.393 -15.125 -23.725  0.00  0.00    +0.120 C 
ATOM     25  C   UNL     1      34.778 -15.786 -21.520  0.00  0.00    +0.186 C 
ATOM     26  C   UNL     1      33.797 -14.230 -24.765  0.00  0.00    +0.064 C 
ATOM     27  C   UNL     1      35.667 -16.947 -23.259  0.00  0.00    +0.196 C 
ATOM     28  H   UNL     1      35.021 -16.238 -19.492  0.00  0.00    +0.144 HD
ATOM     29  H   UNL     1      34.057 -14.862 -19.787  0.00  0.00    +0.144 HD
ATOM     30  H   UNL     1      36.583 -18.163 -24.686  0.00  0.00    +0.156 HD
ATOM     31  H   UNL     1      36.865 -18.646 -23.075  0.00  0.00    +0.156 HD
ENDBRANCH  18  23
ENDBRANCH   1  17
TORSDOF 5
ENDMDL
MODEL 9
REMARK VINA RESULT:      -9.6      8.322     12.336
REMARK  Name = 25195365
REMARK  5 active torsions:
REMARK  status: ('A' for Active; 'I' for Inactive)
REMARK    1  A    between atoms: C_1  and  C_3
REMARK    2  A    between atoms: C_1  and  C_17
REMARK    3  A    between atoms: C_4  and  C_9
REMARK    4  A    between atoms: C_6  and  O_15
REMARK    5  A    between atoms: C_18  and  C_23
REMARK                            x       y       z     vdW  Elec       q    Type
REMARK                         _______ _______ _______ _____ _____    ______ ____
ROOT
ATOM      1  C   UNL     1      33.679 -13.987 -25.758  0.00  0.00    +0.086 C 
ATOM      2  C   UNL     1      34.395 -13.916 -27.121  0.00  0.00    +0.019 C 
ENDROOT
BRANCH   1   3
ATOM      3  C   UNL     1      34.209 -15.070 -24.882  0.00  0.00    -0.007 C 
ATOM      4  C   UNL     1      35.201 -17.099 -23.243  0.00  0.00    +0.034 C 
ATOM      5  C   UNL     1      34.403 -14.835 -23.521  0.00  0.00    +0.034 C 
ATOM      6  C   UNL     1      34.899 -15.850 -22.701  0.00  0.00    +0.138 C 
ATOM      7  C   UNL     1      34.512 -16.320 -25.423  0.00  0.00    -0.003 C 
ATOM      8  C   UNL     1      35.007 -17.334 -24.605  0.00  0.00    +0.003 C 
BRANCH   4   9
ATOM      9  C   UNL     1      35.717 -18.164 -22.411  0.00  0.00    +0.003 C 
ATOM     10  C   UNL     1      34.853 -19.139 -21.910  0.00  0.00    +0.000 C 
ATOM     11  C   UNL     1      37.078 -18.218 -22.111  0.00  0.00    +0.000 C 
ATOM     12  C   UNL     1      35.351 -20.166 -21.109  0.00  0.00    +0.000 C 
ATOM     13  C   UNL     1      37.575 -19.245 -21.309  0.00  0.00    +0.000 C 
ATOM     14  C   UNL     1      36.712 -20.219 -20.808  0.00  0.00    +0.000 C 
ENDBRANCH   4   9
BRANCH   6  15
ATOM     15  O   UNL     1      35.077 -15.593 -21.374  0.00  0.00    -0.471 OA
ATOM     16  C   UNL     1      34.058 -14.842 -20.718  0.00  0.00    +0.252 C 
ENDBRANCH   6  15
ENDBRANCH   1   3
BRANCH   1  17
ATOM     17  C   UNL     1      33.731 -12.655 -25.101  0.00  0.00    -0.087 C 
ATOM     18  C   UNL     1      33.750 -11.578 -24.568  0.00  0.00    -0.076 C 
BRANCH  18  23
ATOM     19  N   UNL     1      32.764  -8.725 -22.410  0.00  0.00    -0.336 NA
ATOM     20  N   UNL     1      34.794  -8.152 -23.574  0.00  0.00    -0.317 NA
ATOM     21  N   UNL     1      35.796  -9.683 -25.072  0.00  0.00    -0.334 N 
ATOM     22  N   UNL     1      33.791  -6.640 -22.085  0.00  0.00    -0.283 N 
ATOM     23  C   UNL     1      33.767 -10.299 -23.930  0.00  0.00    +0.179 C 
ATOM     24  C   UNL     1      32.788  -9.920 -23.035  0.00  0.00    +0.120 C 
ATOM     25  C   UNL     1      34.755  -9.364 -24.163  0.00  0.00    +0.186 C 
ATOM     26  C   UNL     1      31.660 -10.841 -22.695  0.00  0.00    +0.064 C 
ATOM     27  C   UNL     1      33.783  -7.901 -22.721  0.00  0.00    +0.196 C 
ATOM     28  H   UNL     1      36.510  -9.030 -25.252  0.00  0.00    +0.144 HD
ATOM     29  H   UNL     1      35.804 -10.558 -25.523  0.00  0.00    +0.144 HD
ATOM     30  H   UNL     1      33.076  -6.404 -21.452  0.00  0.00    +0.156 HD
ATOM     31  H   UNL     1      34.513  -5.998 -22.275  0.00  0.00    +0.156 HD
ENDBRANCH  18  23
ENDBRANCH   1  17
TORSDOF 5
ENDMDL
