MODEL 1
REMARK VINA RESULT:     -10.9      0.000      0.000
REMARK  Name = 446346
REMARK  6 active torsions:
REMARK  status: ('A' for Active; 'I' for Inactive)
REMARK    1  A    between atoms: N_1  and  C_20
REMARK    2  A    between atoms: N_2  and  S_8
REMARK    3  A    between atoms: S_8  and  C_11
REMARK    4  A    between atoms: C_12  and  C_14
REMARK    5  A    between atoms: C_20  and  C_22
REMARK    6  A    between atoms: N_21  and  C_28
REMARK                            x       y       z     vdW  Elec       q    Type
REMARK                         _______ _______ _______ _____ _____    ______ ____
ROOT
ATOM      1  N   UNL     1      35.652 -19.688 -20.887  0.00  0.00    +0.389 N 
ATOM      2  N   UNL     1      34.428 -21.999 -19.693  0.00  0.00    -0.160 NA
ATOM      3  C   UNL     1      34.292 -20.101 -21.260  0.00  0.00    -0.058 C 
ATOM      4  C   UNL     1      36.457 -20.853 -20.498  0.00  0.00    -0.058 C 
ATOM      5  C   UNL     1      33.607 -20.824 -20.103  0.00  0.00    +0.073 C 
ATOM      6  C   UNL     1      35.814 -21.592 -19.325  0.00  0.00    +0.073 C 
ATOM      7  H   UNL     1      35.588 -19.059 -20.086  0.00  0.00    -0.080 HD
ENDROOT
BRANCH   2   8
ATOM      8  S   UNL     1      33.669 -23.089 -18.612  0.00  0.00    +0.064 S 
ATOM      9  O   UNL     1      33.847 -24.431 -19.139  0.00  0.00    -0.153 OA
ATOM     10  O   UNL     1      32.332 -22.590 -18.344  0.00  0.00    -0.153 OA
BRANCH   8  11
ATOM     11  C   UNL     1      34.595 -22.955 -17.155  0.00  0.00    +0.141 C 
ATOM     12  C   UNL     1      34.266 -23.771 -16.146  0.00  0.00    +0.021 C 
BRANCH  12  14
ATOM     13 CL   UNL     1      37.016 -23.911 -10.854  0.00  0.00    -0.082 Cl
ATOM     14  C   UNL     1      34.945 -23.806 -14.839  0.00  0.00    +0.001 C 
ATOM     15  C   UNL     1      34.275 -24.316 -13.739  0.00  0.00    +0.001 C 
ATOM     16  C   UNL     1      36.242 -23.328 -14.734  0.00  0.00    +0.001 C 
ATOM     17  C   UNL     1      34.918 -24.348 -12.501  0.00  0.00    +0.011 C 
ATOM     18  C   UNL     1      36.884 -23.360 -13.497  0.00  0.00    +0.011 C 
ATOM     19  C   UNL     1      36.222 -23.871 -12.380  0.00  0.00    +0.058 C 
ENDBRANCH  12  14
ENDBRANCH   8  11
ENDBRANCH   2   8
BRANCH   1  20
ATOM     20  C   UNL     1      36.290 -18.966 -21.987  0.00  0.00    -0.077 C 
BRANCH  20  22
ATOM     21  N   UNL     1      34.740 -15.604 -24.190  0.00  0.00    -0.307 N 
ATOM     22  C   UNL     1      35.327 -17.980 -22.643  0.00  0.00    -0.017 C 
ATOM     23  C   UNL     1      35.543 -17.934 -24.159  0.00  0.00    +0.019 C 
ATOM     24  C   UNL     1      35.501 -16.575 -22.059  0.00  0.00    +0.019 C 
ATOM     25  C   UNL     1      34.611 -16.923 -24.825  0.00  0.00    +0.091 C 
ATOM     26  C   UNL     1      34.572 -15.565 -22.733  0.00  0.00    +0.091 C 
BRANCH  21  28
ATOM     27  N   UNL     1      33.693 -12.226 -26.493  0.00  0.00    -0.242 NA
ATOM     28  C   UNL     1      34.393 -14.484 -24.954  0.00  0.00    +0.051 C 
ATOM     29  C   UNL     1      34.496 -13.187 -24.426  0.00  0.00    +0.035 C 
ATOM     30  C   UNL     1      33.930 -14.621 -26.272  0.00  0.00    +0.035 C 
ATOM     31  C   UNL     1      34.140 -12.111 -25.222  0.00  0.00    +0.100 C 
ATOM     32  C   UNL     1      33.599 -13.482 -26.986  0.00  0.00    +0.100 C 
ENDBRANCH  21  28
ENDBRANCH  20  22
ENDBRANCH   1  20
TORSDOF 6
ENDMDL
MODEL 2
REMARK VINA RESULT:     -10.9      1.653      2.364
REMARK  Name = 446346
REMARK  6 active torsions:
REMARK  status: ('A' for Active; 'I' for Inactive)
REMARK    1  A    between atoms: N_1  and  C_20
REMARK    2  A    between atoms: N_2  and  S_8
REMARK    3  A    between atoms: S_8  and  C_11
REMARK    4  A    between atoms: C_12  and  C_14
REMARK    5  A    between atoms: C_20  and  C_22
REMARK    6  A    between atoms: N_21  and  C_28
REMARK                            x       y       z     vdW  Elec       q    Type
REMARK                         _______ _______ _______ _____ _____    ______ ____
ROOT
ATOM      1  N   UNL     1      35.597 -19.368 -21.379  0.00  0.00    +0.389 N 
ATOM      2  N   UNL     1      34.535 -21.718 -20.108  0.00  0.00    -0.160 NA
ATOM      3  C   UNL     1      34.320 -19.952 -21.815  0.00  0.00    -0.058 C 
ATOM      4  C   UNL     1      36.488 -20.410 -20.852  0.00  0.00    -0.058 C 
ATOM      5  C   UNL     1      33.628 -20.670 -20.658  0.00  0.00    +0.073 C 
ATOM      6  C   UNL     1      35.838 -21.138 -19.676  0.00  0.00    +0.073 C 
ATOM      7  H   UNL     1      35.406 -18.699 -20.632  0.00  0.00    -0.080 HD
ENDROOT
BRANCH   2   8
ATOM      8  S   UNL     1      33.814 -22.813 -19.007  0.00  0.00    +0.064 S 
ATOM      9  O   UNL     1      33.919 -24.146 -19.575  0.00  0.00    -0.153 OA
ATOM     10  O   UNL     1      32.511 -22.284 -18.643  0.00  0.00    -0.153 OA
BRANCH   8  11
ATOM     11  C   UNL     1      34.833 -22.742 -17.610  0.00  0.00    +0.141 C 
ATOM     12  C   UNL     1      34.496 -23.512 -16.568  0.00  0.00    +0.021 C 
BRANCH  12  14
ATOM     13 CL   UNL     1      37.535 -23.829 -11.445  0.00  0.00    -0.082 Cl
ATOM     14  C   UNL     1      35.246 -23.590 -15.303  0.00  0.00    +0.001 C 
ATOM     15  C   UNL     1      36.549 -23.121 -15.256  0.00  0.00    +0.001 C 
ATOM     16  C   UNL     1      34.635 -24.131 -14.182  0.00  0.00    +0.001 C 
ATOM     17  C   UNL     1      37.260 -23.196 -14.058  0.00  0.00    +0.011 C 
ATOM     18  C   UNL     1      35.346 -24.205 -12.985  0.00  0.00    +0.011 C 
ATOM     19  C   UNL     1      36.659 -23.737 -12.923  0.00  0.00    +0.058 C 
ENDBRANCH  12  14
ENDBRANCH   8  11
ENDBRANCH   2   8
BRANCH   1  20
ATOM     20  C   UNL     1      36.238 -18.652 -22.481  0.00  0.00    -0.077 C 
BRANCH  20  22
ATOM     21  N   UNL     1      34.251 -14.832 -22.334  0.00  0.00    -0.307 N 
ATOM     22  C   UNL     1      35.987 -17.148 -22.393  0.00  0.00    -0.017 C 
ATOM     23  C   UNL     1      35.141 -16.809 -21.161  0.00  0.00    +0.019 C 
ATOM     24  C   UNL     1      35.283 -16.637 -23.653  0.00  0.00    +0.019 C 
ATOM     25  C   UNL     1      34.850 -15.311 -21.080  0.00  0.00    +0.091 C 
ATOM     26  C   UNL     1      34.986 -15.140 -23.565  0.00  0.00    +0.091 C 
BRANCH  21  28
ATOM     27  N   UNL     1      31.877 -11.348 -22.148  0.00  0.00    -0.242 NA
ATOM     28  C   UNL     1      33.463 -13.677 -22.272  0.00  0.00    +0.051 C 
ATOM     29  C   UNL     1      33.599 -12.656 -23.227  0.00  0.00    +0.035 C 
ATOM     30  C   UNL     1      32.513 -13.501 -21.254  0.00  0.00    +0.035 C 
ATOM     31  C   UNL     1      32.797 -11.532 -23.122  0.00  0.00    +0.100 C 
ATOM     32  C   UNL     1      31.759 -12.340 -21.237  0.00  0.00    +0.100 C 
ENDBRANCH  21  28
ENDBRANCH  20  22
ENDBRANCH   1  20
TORSDOF 6
ENDMDL
MODEL 3
REMARK VINA RESULT:     -10.8      4.528     11.892
REMARK  Name = 446346
REMARK  6 active torsions:
REMARK  status: ('A' for Active; 'I' for Inactive)
REMARK    1  A    between atoms: N_1  and  C_20
REMARK    2  A    between atoms: N_2  and  S_8
REMARK    3  A    between atoms: S_8  and  C_11
REMARK    4  A    between atoms: C_12  and  C_14
REMARK    5  A    between atoms: C_20  and  C_22
REMARK    6  A    between atoms: N_21  and  C_28
REMARK                            x       y       z     vdW  Elec       q    Type
REMARK                         _______ _______ _______ _____ _____    ______ ____
ROOT
ATOM      1  N   UNL     1      34.619 -21.442 -19.523  0.00  0.00    +0.389 N 
ATOM      2  N   UNL     1      35.790 -19.905 -21.652  0.00  0.00    -0.160 NA
ATOM      3  C   UNL     1      35.982 -21.723 -19.998  0.00  0.00    -0.058 C 
ATOM      4  C   UNL     1      33.792 -20.910 -20.613  0.00  0.00    -0.058 C 
ATOM      5  C   UNL     1      36.634 -20.460 -20.556  0.00  0.00    +0.073 C 
ATOM      6  C   UNL     1      34.401 -19.630 -21.184  0.00  0.00    +0.073 C 
ATOM      7  H   UNL     1      34.675 -20.738 -18.787  0.00  0.00    -0.080 HD
ENDROOT
BRANCH   2   8
ATOM      8  S   UNL     1      36.513 -18.665 -22.585  0.00  0.00    +0.064 S 
ATOM      9  O   UNL     1      36.244 -18.948 -23.984  0.00  0.00    -0.153 OA
ATOM     10  O   UNL     1      37.883 -18.508 -22.130  0.00  0.00    -0.153 OA
BRANCH   8  11
ATOM     11  C   UNL     1      35.634 -17.239 -22.146  0.00  0.00    +0.141 C 
ATOM     12  C   UNL     1      35.356 -16.368 -23.125  0.00  0.00    +0.021 C 
BRANCH  12  14
ATOM     13 CL   UNL     1      32.347 -11.271 -22.387  0.00  0.00    -0.082 Cl
ATOM     14  C   UNL     1      34.612 -15.110 -22.943  0.00  0.00    +0.001 C 
ATOM     15  C   UNL     1      34.419 -14.272 -24.030  0.00  0.00    +0.001 C 
ATOM     16  C   UNL     1      34.120 -14.787 -21.688  0.00  0.00    +0.001 C 
ATOM     17  C   UNL     1      33.717 -13.079 -23.857  0.00  0.00    +0.011 C 
ATOM     18  C   UNL     1      33.417 -13.595 -21.516  0.00  0.00    +0.011 C 
ATOM     19  C   UNL     1      33.215 -12.741 -22.601  0.00  0.00    +0.058 C 
ENDBRANCH  12  14
ENDBRANCH   8  11
ENDBRANCH   2   8
BRANCH   1  20
ATOM     20  C   UNL     1      34.013 -22.647 -18.958  0.00  0.00    -0.077 C 
BRANCH  20  22
ATOM     21  N   UNL     1      35.267 -24.032 -15.077  0.00  0.00    -0.307 N 
ATOM     22  C   UNL     1      34.238 -22.733 -17.451  0.00  0.00    -0.017 C 
ATOM     23  C   UNL     1      35.734 -22.740 -17.122  0.00  0.00    +0.019 C 
ATOM     24  C   UNL     1      33.582 -23.991 -16.872  0.00  0.00    +0.019 C 
ATOM     25  C   UNL     1      35.975 -22.863 -15.618  0.00  0.00    +0.091 C 
ATOM     26  C   UNL     1      33.832 -24.115 -15.368  0.00  0.00    +0.091 C 
BRANCH  21  28
ATOM     27  N   UNL     1      36.766 -25.732 -11.516  0.00  0.00    -0.242 NA
ATOM     28  C   UNL     1      35.764 -24.596 -13.896  0.00  0.00    +0.051 C 
ATOM     29  C   UNL     1      35.244 -24.231 -12.644  0.00  0.00    +0.035 C 
ATOM     30  C   UNL     1      36.798 -25.544 -13.926  0.00  0.00    +0.035 C 
ATOM     31  C   UNL     1      35.770 -24.818 -11.505  0.00  0.00    +0.100 C 
ATOM     32  C   UNL     1      37.255 -26.072 -12.730  0.00  0.00    +0.100 C 
ENDBRANCH  21  28
ENDBRANCH  20  22
ENDBRANCH   1  20
TORSDOF 6
ENDMDL
MODEL 4
REMARK VINA RESULT:     -10.7      5.016     11.428
REMARK  Name = 446346
REMARK  6 active torsions:
REMARK  status: ('A' for Active; 'I' for Inactive)
REMARK    1  A    between atoms: N_1  and  C_20
REMARK    2  A    between atoms: N_2  and  S_8
REMARK    3  A    between atoms: S_8  and  C_11
REMARK    4  A    between atoms: C_12  and  C_14
REMARK    5  A    between atoms: C_20  and  C_22
REMARK    6  A    between atoms: N_21  and  C_28
REMARK                            x       y       z     vdW  Elec       q    Type
REMARK                         _______ _______ _______ _____ _____    ______ ____
ROOT
ATOM      1  N   UNL     1      35.702 -19.173 -21.975  0.00  0.00    +0.389 N 
ATOM      2  N   UNL     1      35.229 -17.502 -24.267  0.00  0.00    -0.160 NA
ATOM      3  C   UNL     1      36.192 -17.787 -22.015  0.00  0.00    -0.058 C 
ATOM      4  C   UNL     1      35.654 -19.742 -23.329  0.00  0.00    -0.058 C 
ATOM      5  C   UNL     1      35.296 -16.919 -22.896  0.00  0.00    +0.073 C 
ATOM      6  C   UNL     1      34.747 -18.912 -24.236  0.00  0.00    +0.073 C 
ATOM      7  H   UNL     1      34.756 -19.168 -21.593  0.00  0.00    -0.080 HD
ENDROOT
BRANCH   2   8
ATOM      8  S   UNL     1      34.512 -16.503 -25.459  0.00  0.00    +0.064 S 
ATOM      9  O   UNL     1      33.463 -17.272 -26.107  0.00  0.00    -0.153 OA
ATOM     10  O   UNL     1      35.579 -15.924 -26.254  0.00  0.00    -0.153 OA
BRANCH   8  11
ATOM     11  C   UNL     1      33.765 -15.232 -24.552  0.00  0.00    +0.141 C 
ATOM     12  C   UNL     1      34.217 -13.988 -24.759  0.00  0.00    +0.021 C 
BRANCH  12  14
ATOM     13 CL   UNL     1      32.115  -9.110 -22.044  0.00  0.00    -0.082 Cl
ATOM     14  C   UNL     1      33.698 -12.784 -24.087  0.00  0.00    +0.001 C 
ATOM     15  C   UNL     1      32.847 -12.924 -23.003  0.00  0.00    +0.001 C 
ATOM     16  C   UNL     1      34.070 -11.533 -24.554  0.00  0.00    +0.001 C 
ATOM     17  C   UNL     1      32.355 -11.783 -22.369  0.00  0.00    +0.011 C 
ATOM     18  C   UNL     1      33.578 -10.392 -23.919  0.00  0.00    +0.011 C 
ATOM     19  C   UNL     1      32.721 -10.518 -22.826  0.00  0.00    +0.058 C 
ENDBRANCH  12  14
ENDBRANCH   8  11
ENDBRANCH   2   8
BRANCH   1  20
ATOM     20  C   UNL     1      36.544 -19.990 -21.103  0.00  0.00    -0.077 C 
BRANCH  20  22
ATOM     21  N   UNL     1      34.129 -22.245 -18.339  0.00  0.00    -0.307 N 
ATOM     22  C   UNL     1      35.749 -21.124 -20.461  0.00  0.00    -0.017 C 
ATOM     23  C   UNL     1      34.283 -20.722 -20.270  0.00  0.00    +0.019 C 
ATOM     24  C   UNL     1      36.352 -21.516 -19.108  0.00  0.00    +0.019 C 
ATOM     25  C   UNL     1      33.482 -21.833 -19.593  0.00  0.00    +0.091 C 
ATOM     26  C   UNL     1      35.543 -22.623 -18.430  0.00  0.00    +0.091 C 
BRANCH  21  28
ATOM     27  N   UNL     1      31.691 -24.023 -15.388  0.00  0.00    -0.242 NA
ATOM     28  C   UNL     1      33.321 -22.835 -17.360  0.00  0.00    +0.051 C 
ATOM     29  C   UNL     1      33.884 -23.517 -16.270  0.00  0.00    +0.035 C 
ATOM     30  C   UNL     1      31.921 -22.763 -17.437  0.00  0.00    +0.035 C 
ATOM     31  C   UNL     1      33.041 -24.083 -15.328  0.00  0.00    +0.100 C 
ATOM     32  C   UNL     1      31.165 -23.363 -16.444  0.00  0.00    +0.100 C 
ENDBRANCH  21  28
ENDBRANCH  20  22
ENDBRANCH   1  20
TORSDOF 6
ENDMDL
MODEL 5
REMARK VINA RESULT:     -10.4      4.135      6.661
REMARK  Name = 446346
REMARK  6 active torsions:
REMARK  status: ('A' for Active; 'I' for Inactive)
REMARK    1  A    between atoms: N_1  and  C_20
REMARK    2  A    between atoms: N_2  and  S_8
REMARK    3  A    between atoms: S_8  and  C_11
REMARK    4  A    between atoms: C_12  and  C_14
REMARK    5  A    between atoms: C_20  and  C_22
REMARK    6  A    between atoms: N_21  and  C_28
REMARK                            x       y       z     vdW  Elec       q    Type
REMARK                         _______ _______ _______ _____ _____    ______ ____
ROOT
ATOM      1  N   UNL     1      34.427 -14.722 -24.264  0.00  0.00    +0.389 N 
ATOM      2  N   UNL     1      35.227 -17.323 -23.337  0.00  0.00    -0.160 NA
ATOM      3  C   UNL     1      34.319 -15.085 -22.844  0.00  0.00    -0.058 C 
ATOM      4  C   UNL     1      34.267 -15.909 -25.114  0.00  0.00    -0.058 C 
ATOM      5  C   UNL     1      35.375 -16.122 -22.466  0.00  0.00    +0.073 C 
ATOM      6  C   UNL     1      35.321 -16.963 -24.780  0.00  0.00    +0.073 C 
ATOM      7  H   UNL     1      35.357 -14.333 -24.426  0.00  0.00    -0.080 HD
ENDROOT
BRANCH   2   8
ATOM      8  S   UNL     1      36.131 -18.697 -22.859  0.00  0.00    +0.064 S 
ATOM      9  O   UNL     1      37.339 -18.225 -22.204  0.00  0.00    -0.153 OA
ATOM     10  O   UNL     1      36.229 -19.584 -24.004  0.00  0.00    -0.153 OA
BRANCH   8  11
ATOM     11  C   UNL     1      35.137 -19.464 -21.667  0.00  0.00    +0.141 C 
ATOM     12  C   UNL     1      35.661 -20.512 -21.018  0.00  0.00    +0.021 C 
BRANCH  12  14
ATOM     13 CL   UNL     1      32.863 -23.630 -16.772  0.00  0.00    -0.082 Cl
ATOM     14  C   UNL     1      34.971 -21.281 -19.969  0.00  0.00    +0.001 C 
ATOM     15  C   UNL     1      35.719 -21.967 -19.026  0.00  0.00    +0.001 C 
ATOM     16  C   UNL     1      33.585 -21.305 -19.946  0.00  0.00    +0.001 C 
ATOM     17  C   UNL     1      35.064 -22.697 -18.033  0.00  0.00    +0.011 C 
ATOM     18  C   UNL     1      32.931 -22.035 -18.953  0.00  0.00    +0.011 C 
ATOM     19  C   UNL     1      33.671 -22.730 -17.996  0.00  0.00    +0.058 C 
ENDBRANCH  12  14
ENDBRANCH   8  11
ENDBRANCH   2   8
BRANCH   1  20
ATOM     20  C   UNL     1      33.438 -13.703 -24.611  0.00  0.00    -0.077 C 
BRANCH  20  22
ATOM     21  N   UNL     1      32.817  -9.792 -22.916  0.00  0.00    -0.307 N 
ATOM     22  C   UNL     1      33.591 -12.455 -23.744  0.00  0.00    -0.017 C 
ATOM     23  C   UNL     1      32.325 -12.206 -22.919  0.00  0.00    +0.019 C 
ATOM     24  C   UNL     1      33.889 -11.225 -24.606  0.00  0.00    +0.019 C 
ATOM     25  C   UNL     1      32.449 -10.939 -22.074  0.00  0.00    +0.091 C 
ATOM     26  C   UNL     1      34.005  -9.958 -23.758  0.00  0.00    +0.091 C 
BRANCH  21  28
ATOM     27  N   UNL     1      31.782  -5.946 -21.518  0.00  0.00    -0.242 NA
ATOM     28  C   UNL     1      32.473  -8.516 -22.452  0.00  0.00    +0.051 C 
ATOM     29  C   UNL     1      31.560  -7.712 -23.153  0.00  0.00    +0.035 C 
ATOM     30  C   UNL     1      33.031  -8.000 -21.272  0.00  0.00    +0.035 C 
ATOM     31  C   UNL     1      31.254  -6.458 -22.653  0.00  0.00    +0.100 C 
ATOM     32  C   UNL     1      32.659  -6.733 -20.856  0.00  0.00    +0.100 C 
ENDBRANCH  21  28
ENDBRANCH  20  22
ENDBRANCH   1  20
TORSDOF 6
ENDMDL
MODEL 6
REMARK VINA RESULT:     -10.1      7.912     14.487
REMARK  Name = 446346
REMARK  6 active torsions:
REMARK  status: ('A' for Active; 'I' for Inactive)
REMARK    1  A    between atoms: N_1  and  C_20
REMARK    2  A    between atoms: N_2  and  S_8
REMARK    3  A    between atoms: S_8  and  C_11
REMARK    4  A    between atoms: C_12  and  C_14
REMARK    5  A    between atoms: C_20  and  C_22
REMARK    6  A    between atoms: N_21  and  C_28
REMARK                            x       y       z     vdW  Elec       q    Type
REMARK                         _______ _______ _______ _____ _____    ______ ____
ROOT
ATOM      1  N   UNL     1      33.908 -12.536 -23.792  0.00  0.00    +0.389 N 
ATOM      2  N   UNL     1      32.881  -9.891 -23.325  0.00  0.00    -0.160 NA
ATOM      3  C   UNL     1      34.224 -11.430 -24.707  0.00  0.00    -0.058 C 
ATOM      4  C   UNL     1      32.590 -12.335 -23.175  0.00  0.00    -0.058 C 
ATOM      5  C   UNL     1      34.211 -10.093 -23.968  0.00  0.00    +0.073 C 
ATOM      6  C   UNL     1      32.546 -11.016 -22.406  0.00  0.00    +0.073 C 
ATOM      7  H   UNL     1      34.611 -12.552 -23.053  0.00  0.00    -0.080 HD
ENDROOT
BRANCH   2   8
ATOM      8  S   UNL     1      32.592  -8.321 -22.706  0.00  0.00    +0.064 S 
ATOM      9  O   UNL     1      33.045  -8.300 -21.326  0.00  0.00    -0.153 OA
ATOM     10  O   UNL     1      31.220  -7.965 -23.022  0.00  0.00    -0.153 OA
BRANCH   8  11
ATOM     11  C   UNL     1      33.640  -7.301 -23.632  0.00  0.00    +0.141 C 
ATOM     12  C   UNL     1      33.063  -6.471 -24.511  0.00  0.00    +0.021 C 
BRANCH  12  14
ATOM     13 CL   UNL     1      36.008  -2.649 -28.019  0.00  0.00    -0.082 Cl
ATOM     14  C   UNL     1      33.790  -5.527 -25.377  0.00  0.00    +0.001 C 
ATOM     15  C   UNL     1      33.173  -4.348 -25.766  0.00  0.00    +0.001 C 
ATOM     16  C   UNL     1      35.078  -5.835 -25.787  0.00  0.00    +0.001 C 
ATOM     17  C   UNL     1      33.862  -3.455 -26.587  0.00  0.00    +0.011 C 
ATOM     18  C   UNL     1      35.767  -4.941 -26.607  0.00  0.00    +0.011 C 
ATOM     19  C   UNL     1      35.158  -3.751 -27.007  0.00  0.00    +0.058 C 
ENDBRANCH  12  14
ENDBRANCH   8  11
ENDBRANCH   2   8
BRANCH   1  20
ATOM     20  C   UNL     1      33.956 -13.816 -24.498  0.00  0.00    -0.077 C 
BRANCH  20  22
ATOM     21  N   UNL     1      35.315 -17.305 -22.368  0.00  0.00    -0.307 N 
ATOM     22  C   UNL     1      34.854 -14.819 -23.778  0.00  0.00    -0.017 C 
ATOM     23  C   UNL     1      34.857 -16.167 -24.506  0.00  0.00    +0.019 C 
ATOM     24  C   UNL     1      34.397 -15.021 -22.330  0.00  0.00    +0.019 C 
ATOM     25  C   UNL     1      35.723 -17.193 -23.776  0.00  0.00    +0.091 C 
ATOM     26  C   UNL     1      35.260 -16.054 -21.606  0.00  0.00    +0.091 C 
BRANCH  21  28
ATOM     27  N   UNL     1      36.193 -20.918 -20.371  0.00  0.00    -0.242 NA
ATOM     28  C   UNL     1      35.606 -18.504 -21.706  0.00  0.00    +0.051 C 
ATOM     29  C   UNL     1      34.597 -19.437 -21.420  0.00  0.00    +0.035 C 
ATOM     30  C   UNL     1      36.916 -18.811 -21.307  0.00  0.00    +0.035 C 
ATOM     31  C   UNL     1      34.936 -20.607 -20.762  0.00  0.00    +0.100 C 
ATOM     32  C   UNL     1      37.152 -20.009 -20.655  0.00  0.00    +0.100 C 
ENDBRANCH  21  28
ENDBRANCH  20  22
ENDBRANCH   1  20
TORSDOF 6
ENDMDL
MODEL 7
REMARK VINA RESULT:     -10.0      6.348     10.155
REMARK  Name = 446346
REMARK  6 active torsions:
REMARK  status: ('A' for Active; 'I' for Inactive)
REMARK    1  A    between atoms: N_1  and  C_20
REMARK    2  A    between atoms: N_2  and  S_8
REMARK    3  A    between atoms: S_8  and  C_11
REMARK    4  A    between atoms: C_12  and  C_14
REMARK    5  A    between atoms: C_20  and  C_22
REMARK    6  A    between atoms: N_21  and  C_28
REMARK                            x       y       z     vdW  Elec       q    Type
REMARK                         _______ _______ _______ _____ _____    ______ ____
ROOT
ATOM      1  N   UNL     1      33.456 -25.211 -13.677  0.00  0.00    +0.389 N 
ATOM      2  N   UNL     1      35.844 -23.952 -14.666  0.00  0.00    -0.160 NA
ATOM      3  C   UNL     1      33.768 -25.204 -15.113  0.00  0.00    -0.058 C 
ATOM      4  C   UNL     1      34.007 -24.016 -13.023  0.00  0.00    -0.058 C 
ATOM      5  C   UNL     1      35.277 -25.154 -15.341  0.00  0.00    +0.073 C 
ATOM      6  C   UNL     1      35.521 -23.943 -13.211  0.00  0.00    +0.073 C 
ATOM      7  H   UNL     1      33.888 -26.035 -13.259  0.00  0.00    -0.080 HD
ENDROOT
BRANCH   2   8
ATOM      8  S   UNL     1      37.468 -23.580 -15.063  0.00  0.00    +0.064 S 
ATOM      9  O   UNL     1      38.157 -24.831 -15.327  0.00  0.00    -0.153 OA
ATOM     10  O   UNL     1      37.977 -22.674 -14.048  0.00  0.00    -0.153 OA
BRANCH   8  11
ATOM     11  C   UNL     1      37.350 -22.706 -16.553  0.00  0.00    +0.141 C 
ATOM     12  C   UNL     1      36.148 -22.663 -17.142  0.00  0.00    +0.021 C 
BRANCH  12  14
ATOM     13 CL   UNL     1      34.964 -19.824 -22.252  0.00  0.00    -0.082 Cl
ATOM     14  C   UNL     1      35.856 -21.962 -18.404  0.00  0.00    +0.001 C 
ATOM     15  C   UNL     1      36.863 -21.247 -19.033  0.00  0.00    +0.001 C 
ATOM     16  C   UNL     1      34.579 -22.031 -18.940  0.00  0.00    +0.001 C 
ATOM     17  C   UNL     1      36.585 -20.582 -20.227  0.00  0.00    +0.011 C 
ATOM     18  C   UNL     1      34.303 -21.367 -20.135  0.00  0.00    +0.011 C 
ATOM     19  C   UNL     1      35.306 -20.643 -20.779  0.00  0.00    +0.058 C 
ENDBRANCH  12  14
ENDBRANCH   8  11
ENDBRANCH   2   8
BRANCH   1  20
ATOM     20  C   UNL     1      32.012 -25.294 -13.465  0.00  0.00    -0.077 C 
BRANCH  20  22
ATOM     21  N   UNL     1      28.920 -23.457 -15.835  0.00  0.00    -0.307 N 
ATOM     22  C   UNL     1      31.238 -24.722 -14.650  0.00  0.00    -0.017 C 
ATOM     23  C   UNL     1      30.937 -23.235 -14.437  0.00  0.00    +0.019 C 
ATOM     24  C   UNL     1      29.927 -25.483 -14.866  0.00  0.00    +0.019 C 
ATOM     25  C   UNL     1      30.130 -22.657 -15.599  0.00  0.00    +0.091 C 
ATOM     26  C   UNL     1      29.119 -24.897 -16.024  0.00  0.00    +0.091 C 
BRANCH  21  28
ATOM     27  N   UNL     1      25.666 -21.544 -17.725  0.00  0.00    -0.242 NA
ATOM     28  C   UNL     1      27.840 -22.823 -16.462  0.00  0.00    +0.051 C 
ATOM     29  C   UNL     1      27.767 -22.730 -17.861  0.00  0.00    +0.035 C 
ATOM     30  C   UNL     1      26.797 -22.259 -15.712  0.00  0.00    +0.035 C 
ATOM     31  C   UNL     1      26.679 -22.092 -18.432  0.00  0.00    +0.100 C 
ATOM     32  C   UNL     1      25.751 -21.642 -16.379  0.00  0.00    +0.100 C 
ENDBRANCH  21  28
ENDBRANCH  20  22
ENDBRANCH   1  20
TORSDOF 6
ENDMDL
MODEL 8
REMARK VINA RESULT:     -10.0      4.923      7.801
REMARK  Name = 446346
REMARK  6 active torsions:
REMARK  status: ('A' for Active; 'I' for Inactive)
REMARK    1  A    between atoms: N_1  and  C_20
REMARK    2  A    between atoms: N_2  and  S_8
REMARK    3  A    between atoms: S_8  and  C_11
REMARK    4  A    between atoms: C_12  and  C_14
REMARK    5  A    between atoms: C_20  and  C_22
REMARK    6  A    between atoms: N_21  and  C_28
REMARK                            x       y       z     vdW  Elec       q    Type
REMARK                         _______ _______ _______ _____ _____    ______ ____
ROOT
ATOM      1  N   UNL     1      33.342 -13.126 -22.392  0.00  0.00    +0.389 N 
ATOM      2  N   UNL     1      34.429 -15.735 -22.921  0.00  0.00    -0.160 NA
ATOM      3  C   UNL     1      33.426 -14.140 -21.331  0.00  0.00    -0.058 C 
ATOM      4  C   UNL     1      33.169 -13.765 -23.703  0.00  0.00    -0.058 C 
ATOM      5  C   UNL     1      34.590 -15.096 -21.584  0.00  0.00    +0.073 C 
ATOM      6  C   UNL     1      34.328 -14.714 -24.003  0.00  0.00    +0.073 C 
ATOM      7  H   UNL     1      34.215 -12.599 -22.402  0.00  0.00    -0.080 HD
ENDROOT
BRANCH   2   8
ATOM      8  S   UNL     1      35.479 -17.048 -23.243  0.00  0.00    +0.064 S 
ATOM      9  O   UNL     1      36.835 -16.529 -23.290  0.00  0.00    -0.153 OA
ATOM     10  O   UNL     1      34.945 -17.777 -24.379  0.00  0.00    -0.153 OA
BRANCH   8  11
ATOM     11  C   UNL     1      35.338 -18.057 -21.842  0.00  0.00    +0.141 C 
ATOM     12  C   UNL     1      34.924 -19.315 -22.036  0.00  0.00    +0.021 C 
BRANCH  12  14
ATOM     13 CL   UNL     1      34.235 -23.368 -17.713  0.00  0.00    -0.082 Cl
ATOM     14  C   UNL     1      34.753 -20.317 -20.969  0.00  0.00    +0.001 C 
ATOM     15  C   UNL     1      33.476 -20.653 -20.551  0.00  0.00    +0.001 C 
ATOM     16  C   UNL     1      35.875 -20.903 -20.402  0.00  0.00    +0.001 C 
ATOM     17  C   UNL     1      33.315 -21.600 -19.539  0.00  0.00    +0.011 C 
ATOM     18  C   UNL     1      35.713 -21.850 -19.391  0.00  0.00    +0.011 C 
ATOM     19  C   UNL     1      34.433 -22.199 -18.960  0.00  0.00    +0.058 C 
ENDBRANCH  12  14
ENDBRANCH   8  11
ENDBRANCH   2   8
BRANCH   1  20
ATOM     20  C   UNL     1      32.248 -12.194 -22.126  0.00  0.00    -0.077 C 
BRANCH  20  22
ATOM     21  N   UNL     1      32.502  -7.998 -23.070  0.00  0.00    -0.307 N 
ATOM     22  C   UNL     1      32.723 -10.744 -22.178  0.00  0.00    -0.017 C 
ATOM     23  C   UNL     1      31.653  -9.800 -21.618  0.00  0.00    +0.019 C 
ATOM     24  C   UNL     1      33.067 -10.333 -23.612  0.00  0.00    +0.019 C 
ATOM     25  C   UNL     1      32.100  -8.340 -21.699  0.00  0.00    +0.091 C 
ATOM     26  C   UNL     1      33.505  -8.870 -23.690  0.00  0.00    +0.091 C 
BRANCH  21  28
ATOM     27  N   UNL     1      32.297  -3.937 -24.199  0.00  0.00    -0.242 NA
ATOM     28  C   UNL     1      32.434  -6.651 -23.444  0.00  0.00    +0.051 C 
ATOM     29  C   UNL     1      33.249  -6.142 -24.467  0.00  0.00    +0.035 C 
ATOM     30  C   UNL     1      31.548  -5.767 -22.809  0.00  0.00    +0.035 C 
ATOM     31  C   UNL     1      33.144  -4.802 -24.800  0.00  0.00    +0.100 C 
ATOM     32  C   UNL     1      31.519  -4.444 -23.216  0.00  0.00    +0.100 C 
ENDBRANCH  21  28
ENDBRANCH  20  22
ENDBRANCH   1  20
TORSDOF 6
ENDMDL
MODEL 9
REMARK VINA RESULT:      -9.9      3.563      4.334
REMARK  Name = 446346
REMARK  6 active torsions:
REMARK  status: ('A' for Active; 'I' for Inactive)
REMARK    1  A    between atoms: N_1  and  C_20
REMARK    2  A    between atoms: N_2  and  S_8
REMARK    3  A    between atoms: S_8  and  C_11
REMARK    4  A    between atoms: C_12  and  C_14
REMARK    5  A    between atoms: C_20  and  C_22
REMARK    6  A    between atoms: N_21  and  C_28
REMARK                            x       y       z     vdW  Elec       q    Type
REMARK                         _______ _______ _______ _____ _____    ______ ____
ROOT
ATOM      1  N   UNL     1      36.202 -20.581 -20.670  0.00  0.00    +0.389 N 
ATOM      2  N   UNL     1      34.698 -22.045 -18.704  0.00  0.00    -0.160 NA
ATOM      3  C   UNL     1      36.762 -20.854 -19.338  0.00  0.00    -0.058 C 
ATOM      4  C   UNL     1      34.739 -20.471 -20.602  0.00  0.00    -0.058 C 
ATOM      5  C   UNL     1      36.185 -22.145 -18.760  0.00  0.00    +0.073 C 
ATOM      6  C   UNL     1      34.122 -21.754 -20.048  0.00  0.00    +0.073 C 
ATOM      7  H   UNL     1      36.439 -21.361 -21.283  0.00  0.00    -0.080 HD
ENDROOT
BRANCH   2   8
ATOM      8  S   UNL     1      33.909 -23.277 -17.815  0.00  0.00    +0.064 S 
ATOM      9  O   UNL     1      34.530 -23.342 -16.503  0.00  0.00    -0.153 OA
ATOM     10  O   UNL     1      33.858 -24.464 -18.649  0.00  0.00    -0.153 OA
BRANCH   8  11
ATOM     11  C   UNL     1      32.293 -22.688 -17.617  0.00  0.00    +0.141 C 
ATOM     12  C   UNL     1      31.464 -23.422 -16.864  0.00  0.00    +0.021 C 
BRANCH  12  14
ATOM     13 CL   UNL     1      25.785 -22.015 -15.704  0.00  0.00    -0.082 Cl
ATOM     14  C   UNL     1      30.061 -23.075 -16.578  0.00  0.00    +0.001 C 
ATOM     15  C   UNL     1      29.111 -23.210 -17.577  0.00  0.00    +0.001 C 
ATOM     16  C   UNL     1      29.719 -22.620 -15.314  0.00  0.00    +0.001 C 
ATOM     17  C   UNL     1      27.783 -22.880 -17.305  0.00  0.00    +0.011 C 
ATOM     18  C   UNL     1      28.391 -22.291 -15.043  0.00  0.00    +0.011 C 
ATOM     19  C   UNL     1      27.422 -22.422 -16.039  0.00  0.00    +0.058 C 
ENDBRANCH  12  14
ENDBRANCH   8  11
ENDBRANCH   2   8
BRANCH   1  20
ATOM     20  C   UNL     1      36.784 -19.364 -21.232  0.00  0.00    -0.077 C 
BRANCH  20  22
ATOM     21  N   UNL     1      34.949 -16.342 -23.693  0.00  0.00    -0.307 N 
ATOM     22  C   UNL     1      35.742 -18.541 -21.985  0.00  0.00    -0.017 C 
ATOM     23  C   UNL     1      36.026 -18.549 -23.491  0.00  0.00    +0.019 C 
ATOM     24  C   UNL     1      35.716 -17.096 -21.478  0.00  0.00    +0.019 C 
ATOM     25  C   UNL     1      35.012 -17.698 -24.255  0.00  0.00    +0.091 C 
ATOM     26  C   UNL     1      34.706 -16.246 -22.250  0.00  0.00    +0.091 C 
BRANCH  21  28
ATOM     27  N   UNL     1      33.616 -13.246 -26.233  0.00  0.00    -0.242 NA
ATOM     28  C   UNL     1      34.507 -15.315 -24.536  0.00  0.00    +0.051 C 
ATOM     29  C   UNL     1      34.517 -13.976 -24.113  0.00  0.00    +0.035 C 
ATOM     30  C   UNL     1      34.040 -15.591 -25.830  0.00  0.00    +0.035 C 
ATOM     31  C   UNL     1      34.069 -12.997 -24.984  0.00  0.00    +0.100 C 
ATOM     32  C   UNL     1      33.613 -14.540 -26.625  0.00  0.00    +0.100 C 
ENDBRANCH  21  28
ENDBRANCH  20  22
ENDBRANCH   1  20
TORSDOF 6
ENDMDL
