MODEL 1
REMARK VINA RESULT:     -11.3      0.000      0.000
REMARK  Name = 2267
REMARK  3 active torsions:
REMARK  status: ('A' for Active; 'I' for Inactive)
REMARK    1  A    between atoms: N_2  and  C_13
REMARK    2  A    between atoms: C_6  and  C_21
REMARK    3  A    between atoms: C_21  and  C_23
REMARK                            x       y       z     vdW  Elec       q    Type
REMARK                         _______ _______ _______ _____ _____    ______ ____
ROOT
ATOM      1  O   UNL     1      32.649 -22.562 -18.993  0.00  0.00    -0.266 OA
ATOM      2  N   UNL     1      34.132 -23.053 -17.277  0.00  0.00    -0.219 N 
ATOM      3  N   UNL     1      35.383 -22.956 -16.738  0.00  0.00    -0.171 NA
ATOM      4  C   UNL     1      33.770 -22.482 -18.496  0.00  0.00    +0.276 A 
ATOM      5  C   UNL     1      34.817 -21.739 -19.220  0.00  0.00    +0.059 A 
ATOM      6  C   UNL     1      36.307 -22.304 -17.370  0.00  0.00    +0.083 A 
ATOM      7  C   UNL     1      36.090 -21.643 -18.668  0.00  0.00    +0.020 A 
ATOM      8  C   UNL     1      34.539 -21.135 -20.451  0.00  0.00    +0.005 C 
ATOM      9  C   UNL     1      37.095 -20.943 -19.342  0.00  0.00    +0.001 C 
ATOM     10  C   UNL     1      35.542 -20.437 -21.123  0.00  0.00    +0.000 C 
ATOM     11  C   UNL     1      36.816 -20.342 -20.570  0.00  0.00    +0.000 C 
ENDROOT
BRANCH   2  13
ATOM     12  N   UNL     1      30.776 -25.012 -15.189  0.00  0.00    +0.386 N 
ATOM     13  C   UNL     1      33.186 -23.807 -16.481  0.00  0.00    +0.106 C 
ATOM     14  C   UNL     1      33.816 -24.111 -15.118  0.00  0.00    +0.022 C 
ATOM     15  C   UNL     1      31.887 -23.009 -16.337  0.00  0.00    +0.002 C 
ATOM     16  C   UNL     1      33.043 -25.092 -14.241  0.00  0.00    -0.021 C 
ATOM     17  C   UNL     1      30.636 -23.856 -16.081  0.00  0.00    -0.075 C 
ATOM     18  C   UNL     1      31.572 -24.752 -13.990  0.00  0.00    -0.077 C 
ATOM     19  C   UNL     1      29.453 -25.539 -14.848  0.00  0.00    -0.101 C 
ATOM     20  H   UNL     1      31.303 -25.715 -15.707  0.00  0.00    -0.080 HD
ENDBRANCH   2  13
BRANCH   6  21
ATOM     21  C   UNL     1      37.671 -22.231 -16.725  0.00  0.00    +0.074 C 
BRANCH  21  23
ATOM     22 CL   UNL     1      38.062 -26.123 -12.173  0.00  0.00    -0.082 Cl
ATOM     23  C   UNL     1      37.768 -23.202 -15.591  0.00  0.00    -0.016 C 
ATOM     24  C   UNL     1      37.090 -22.947 -14.401  0.00  0.00    -0.003 C 
ATOM     25  C   UNL     1      38.537 -24.355 -15.728  0.00  0.00    -0.003 C 
ATOM     26  C   UNL     1      37.180 -23.852 -13.343  0.00  0.00    +0.011 C 
ATOM     27  C   UNL     1      38.628 -25.259 -14.670  0.00  0.00    +0.011 C 
ATOM     28  C   UNL     1      37.950 -25.008 -13.478  0.00  0.00    +0.058 C 
ENDBRANCH  21  23
ENDBRANCH   6  21
TORSDOF 3
ENDMDL
MODEL 2
REMARK VINA RESULT:     -11.1      2.858      6.562
REMARK  Name = 2267
REMARK  3 active torsions:
REMARK  status: ('A' for Active; 'I' for Inactive)
REMARK    1  A    between atoms: N_2  and  C_13
REMARK    2  A    between atoms: C_6  and  C_21
REMARK    3  A    between atoms: C_21  and  C_23
REMARK                            x       y       z     vdW  Elec       q    Type
REMARK                         _______ _______ _______ _____ _____    ______ ____
ROOT
ATOM      1  O   UNL     1      34.087 -23.945 -13.261  0.00  0.00    -0.266 OA
ATOM      2  N   UNL     1      34.980 -23.957 -15.403  0.00  0.00    -0.219 N 
ATOM      3  N   UNL     1      34.810 -23.820 -16.751  0.00  0.00    -0.171 NA
ATOM      4  C   UNL     1      33.948 -23.824 -14.476  0.00  0.00    +0.276 A 
ATOM      5  C   UNL     1      32.608 -23.519 -15.011  0.00  0.00    +0.059 A 
ATOM      6  C   UNL     1      33.635 -23.552 -17.226  0.00  0.00    +0.083 A 
ATOM      7  C   UNL     1      32.439 -23.382 -16.384  0.00  0.00    +0.020 A 
ATOM      8  C   UNL     1      31.515 -23.371 -14.150  0.00  0.00    +0.005 C 
ATOM      9  C   UNL     1      31.175 -23.094 -16.909  0.00  0.00    +0.001 C 
ATOM     10  C   UNL     1      30.255 -23.084 -14.674  0.00  0.00    +0.000 C 
ATOM     11  C   UNL     1      30.086 -22.946 -16.050  0.00  0.00    +0.000 C 
ENDROOT
BRANCH   2  13
ATOM     12  N   UNL     1      39.041 -25.435 -14.510  0.00  0.00    +0.386 N 
ATOM     13  C   UNL     1      36.336 -24.258 -14.991  0.00  0.00    +0.106 C 
ATOM     14  C   UNL     1      36.581 -23.647 -13.607  0.00  0.00    +0.022 C 
ATOM     15  C   UNL     1      36.545 -25.775 -14.983  0.00  0.00    +0.002 C 
ATOM     16  C   UNL     1      38.028 -23.675 -13.123  0.00  0.00    -0.021 C 
ATOM     17  C   UNL     1      37.998 -26.225 -15.173  0.00  0.00    -0.075 C 
ATOM     18  C   UNL     1      38.715 -25.043 -13.139  0.00  0.00    -0.077 C 
ATOM     19  C   UNL     1      40.319 -26.147 -14.573  0.00  0.00    -0.101 C 
ATOM     20  H   UNL     1      39.110 -24.557 -15.025  0.00  0.00    -0.080 HD
ENDBRANCH   2  13
BRANCH   6  21
ATOM     21  C   UNL     1      33.508 -23.413 -18.725  0.00  0.00    +0.074 C 
BRANCH  21  23
ATOM     22 CL   UNL     1      37.281 -19.224 -20.783  0.00  0.00    -0.082 Cl
ATOM     23  C   UNL     1      34.448 -22.368 -19.237  0.00  0.00    -0.016 C 
ATOM     24  C   UNL     1      33.998 -21.420 -20.153  0.00  0.00    -0.003 C 
ATOM     25  C   UNL     1      35.770 -22.349 -18.798  0.00  0.00    -0.003 C 
ATOM     26  C   UNL     1      34.875 -20.446 -20.631  0.00  0.00    +0.011 C 
ATOM     27  C   UNL     1      36.646 -21.376 -19.276  0.00  0.00    +0.011 C 
ATOM     28  C   UNL     1      36.199 -20.424 -20.193  0.00  0.00    +0.058 C 
ENDBRANCH  21  23
ENDBRANCH   6  21
TORSDOF 3
ENDMDL
MODEL 3
REMARK VINA RESULT:     -10.5      1.489      5.621
REMARK  Name = 2267
REMARK  3 active torsions:
REMARK  status: ('A' for Active; 'I' for Inactive)
REMARK    1  A    between atoms: N_2  and  C_13
REMARK    2  A    between atoms: C_6  and  C_21
REMARK    3  A    between atoms: C_21  and  C_23
REMARK                            x       y       z     vdW  Elec       q    Type
REMARK                         _______ _______ _______ _____ _____    ______ ____
ROOT
ATOM      1  O   UNL     1      31.785 -22.749 -17.929  0.00  0.00    -0.266 OA
ATOM      2  N   UNL     1      33.783 -22.926 -16.761  0.00  0.00    -0.219 N 
ATOM      3  N   UNL     1      34.476 -23.379 -15.675  0.00  0.00    -0.171 NA
ATOM      4  C   UNL     1      32.422 -23.150 -16.957  0.00  0.00    +0.276 A 
ATOM      5  C   UNL     1      31.718 -23.923 -15.917  0.00  0.00    +0.059 A 
ATOM      6  C   UNL     1      33.863 -24.058 -14.759  0.00  0.00    +0.083 A 
ATOM      7  C   UNL     1      32.428 -24.382 -14.813  0.00  0.00    +0.020 A 
ATOM      8  C   UNL     1      30.350 -24.193 -16.035  0.00  0.00    +0.005 C 
ATOM      9  C   UNL     1      31.776 -25.115 -13.817  0.00  0.00    +0.001 C 
ATOM     10  C   UNL     1      29.700 -24.925 -15.041  0.00  0.00    +0.000 C 
ATOM     11  C   UNL     1      30.412 -25.384 -13.935  0.00  0.00    +0.000 C 
ENDROOT
BRANCH   2  13
ATOM     12  N   UNL     1      35.666 -20.716 -20.084  0.00  0.00    +0.386 N 
ATOM     13  C   UNL     1      34.574 -22.178 -17.717  0.00  0.00    +0.106 C 
ATOM     14  C   UNL     1      36.057 -22.476 -17.473  0.00  0.00    +0.022 C 
ATOM     15  C   UNL     1      34.150 -22.553 -19.139  0.00  0.00    +0.002 C 
ATOM     16  C   UNL     1      37.039 -21.596 -18.243  0.00  0.00    -0.021 C 
ATOM     17  C   UNL     1      34.416 -21.476 -20.196  0.00  0.00    -0.075 C 
ATOM     18  C   UNL     1      36.836 -21.532 -19.759  0.00  0.00    -0.077 C 
ATOM     19  C   UNL     1      35.883 -19.933 -21.302  0.00  0.00    -0.101 C 
ATOM     20  H   UNL     1      35.554 -20.090 -19.287  0.00  0.00    -0.080 HD
ENDBRANCH   2  13
BRANCH   6  21
ATOM     21  C   UNL     1      34.682 -24.533 -13.581  0.00  0.00    +0.074 C 
BRANCH  21  23
ATOM     22 CL   UNL     1      40.264 -25.904 -15.308  0.00  0.00    -0.082 Cl
ATOM     23  C   UNL     1      36.073 -24.873 -14.012  0.00  0.00    -0.016 C 
ATOM     24  C   UNL     1      36.282 -25.904 -14.925  0.00  0.00    -0.003 C 
ATOM     25  C   UNL     1      37.153 -24.160 -13.497  0.00  0.00    -0.003 C 
ATOM     26  C   UNL     1      37.579 -26.223 -15.327  0.00  0.00    +0.011 C 
ATOM     27  C   UNL     1      38.450 -24.480 -13.898  0.00  0.00    +0.011 C 
ATOM     28  C   UNL     1      38.664 -25.511 -14.813  0.00  0.00    +0.058 C 
ENDBRANCH  21  23
ENDBRANCH   6  21
TORSDOF 3
ENDMDL
MODEL 4
REMARK VINA RESULT:     -10.0      2.914      6.968
REMARK  Name = 2267
REMARK  3 active torsions:
REMARK  status: ('A' for Active; 'I' for Inactive)
REMARK    1  A    between atoms: N_2  and  C_13
REMARK    2  A    between atoms: C_6  and  C_21
REMARK    3  A    between atoms: C_21  and  C_23
REMARK                            x       y       z     vdW  Elec       q    Type
REMARK                         _______ _______ _______ _____ _____    ______ ____
ROOT
ATOM      1  O   UNL     1      37.397 -22.245 -15.481  0.00  0.00    -0.266 OA
ATOM      2  N   UNL     1      35.214 -22.944 -15.840  0.00  0.00    -0.219 N 
ATOM      3  N   UNL     1      34.108 -23.620 -15.410  0.00  0.00    -0.171 NA
ATOM      4  C   UNL     1      36.395 -22.849 -15.107  0.00  0.00    +0.276 A 
ATOM      5  C   UNL     1      36.421 -23.528 -13.798  0.00  0.00    +0.059 A 
ATOM      6  C   UNL     1      34.125 -24.218 -14.261  0.00  0.00    +0.083 A 
ATOM      7  C   UNL     1      35.294 -24.216 -13.365  0.00  0.00    +0.020 A 
ATOM      8  C   UNL     1      37.569 -23.485 -12.998  0.00  0.00    +0.005 C 
ATOM      9  C   UNL     1      35.303 -24.867 -12.127  0.00  0.00    +0.001 C 
ATOM     10  C   UNL     1      37.577 -24.134 -11.763  0.00  0.00    +0.000 C 
ATOM     11  C   UNL     1      36.447 -24.823 -11.330  0.00  0.00    +0.000 C 
ENDROOT
BRANCH   2  13
ATOM     12  N   UNL     1      34.152 -21.248 -19.773  0.00  0.00    +0.386 N 
ATOM     13  C   UNL     1      35.074 -22.317 -17.139  0.00  0.00    +0.106 C 
ATOM     14  C   UNL     1      36.420 -22.384 -17.868  0.00  0.00    +0.022 C 
ATOM     15  C   UNL     1      33.968 -23.020 -17.931  0.00  0.00    +0.002 C 
ATOM     16  C   UNL     1      36.510 -21.570 -19.156  0.00  0.00    -0.021 C 
ATOM     17  C   UNL     1      33.295 -22.155 -19.002  0.00  0.00    -0.075 C 
ATOM     18  C   UNL     1      35.421 -21.839 -20.197  0.00  0.00    -0.077 C 
ATOM     19  C   UNL     1      33.406 -20.708 -20.911  0.00  0.00    -0.101 C 
ATOM     20  H   UNL     1      34.413 -20.491 -19.142  0.00  0.00    -0.080 HD
ENDBRANCH   2  13
BRANCH   6  21
ATOM     21  C   UNL     1      32.873 -24.950 -13.839  0.00  0.00    +0.074 C 
BRANCH  21  23
ATOM     22 CL   UNL     1      28.107 -22.860 -16.829  0.00  0.00    -0.082 Cl
ATOM     23  C   UNL     1      31.685 -24.429 -14.583  0.00  0.00    -0.016 C 
ATOM     24  C   UNL     1      30.806 -25.319 -15.196  0.00  0.00    -0.003 C 
ATOM     25  C   UNL     1      31.463 -23.056 -14.662  0.00  0.00    -0.003 C 
ATOM     26  C   UNL     1      29.698 -24.834 -15.891  0.00  0.00    +0.011 C 
ATOM     27  C   UNL     1      30.356 -22.571 -15.358  0.00  0.00    +0.011 C 
ATOM     28  C   UNL     1      29.473 -23.460 -15.972  0.00  0.00    +0.058 C 
ENDBRANCH  21  23
ENDBRANCH   6  21
TORSDOF 3
ENDMDL
MODEL 5
REMARK VINA RESULT:     -10.0      2.303      5.207
REMARK  Name = 2267
REMARK  3 active torsions:
REMARK  status: ('A' for Active; 'I' for Inactive)
REMARK    1  A    between atoms: N_2  and  C_13
REMARK    2  A    between atoms: C_6  and  C_21
REMARK    3  A    between atoms: C_21  and  C_23
REMARK                            x       y       z     vdW  Elec       q    Type
REMARK                         _______ _______ _______ _____ _____    ______ ____
ROOT
ATOM      1  O   UNL     1      37.827 -22.090 -17.512  0.00  0.00    -0.266 OA
ATOM      2  N   UNL     1      35.908 -23.060 -16.639  0.00  0.00    -0.219 N 
ATOM      3  N   UNL     1      34.568 -23.305 -16.727  0.00  0.00    -0.171 NA
ATOM      4  C   UNL     1      36.621 -22.318 -17.579  0.00  0.00    +0.276 A 
ATOM      5  C   UNL     1      35.858 -21.780 -18.720  0.00  0.00    +0.059 A 
ATOM      6  C   UNL     1      33.892 -22.835 -17.728  0.00  0.00    +0.083 A 
ATOM      7  C   UNL     1      34.494 -22.031 -18.805  0.00  0.00    +0.020 A 
ATOM      8  C   UNL     1      36.497 -21.023 -19.708  0.00  0.00    +0.005 C 
ATOM      9  C   UNL     1      33.755 -21.527 -19.880  0.00  0.00    +0.001 C 
ATOM     10  C   UNL     1      35.760 -20.520 -20.780  0.00  0.00    +0.000 C 
ATOM     11  C   UNL     1      34.392 -20.772 -20.865  0.00  0.00    +0.000 C 
ENDROOT
BRANCH   2  13
ATOM     12  N   UNL     1      38.037 -25.323 -13.506  0.00  0.00    +0.386 N 
ATOM     13  C   UNL     1      36.554 -23.635 -15.477  0.00  0.00    +0.106 C 
ATOM     14  C   UNL     1      35.804 -23.185 -14.219  0.00  0.00    +0.022 C 
ATOM     15  C   UNL     1      36.577 -25.161 -15.606  0.00  0.00    +0.002 C 
ATOM     16  C   UNL     1      36.486 -23.516 -12.894  0.00  0.00    -0.021 C 
ATOM     17  C   UNL     1      37.702 -25.855 -14.831  0.00  0.00    -0.075 C 
ATOM     18  C   UNL     1      36.874 -24.981 -12.686  0.00  0.00    -0.077 C 
ATOM     19  C   UNL     1      38.928 -26.251 -12.808  0.00  0.00    -0.101 C 
ATOM     20  H   UNL     1      38.517 -24.437 -13.662  0.00  0.00    -0.080 HD
ENDBRANCH   2  13
BRANCH   6  21
ATOM     21  C   UNL     1      32.413 -23.138 -17.771  0.00  0.00    +0.074 C 
BRANCH  21  23
ATOM     22 CL   UNL     1      30.374 -24.487 -12.290  0.00  0.00    -0.082 Cl
ATOM     23  C   UNL     1      31.906 -23.474 -16.405  0.00  0.00    -0.016 C 
ATOM     24  C   UNL     1      31.050 -24.560 -16.232  0.00  0.00    -0.003 C 
ATOM     25  C   UNL     1      32.290 -22.701 -15.312  0.00  0.00    -0.003 C 
ATOM     26  C   UNL     1      30.576 -24.874 -14.958  0.00  0.00    +0.011 C 
ATOM     27  C   UNL     1      31.815 -23.014 -14.039  0.00  0.00    +0.011 C 
ATOM     28  C   UNL     1      30.959 -24.101 -13.861  0.00  0.00    +0.058 C 
ENDBRANCH  21  23
ENDBRANCH   6  21
TORSDOF 3
ENDMDL
MODEL 6
REMARK VINA RESULT:      -9.2     11.413     15.017
REMARK  Name = 2267
REMARK  3 active torsions:
REMARK  status: ('A' for Active; 'I' for Inactive)
REMARK    1  A    between atoms: N_2  and  C_13
REMARK    2  A    between atoms: C_6  and  C_21
REMARK    3  A    between atoms: C_21  and  C_23
REMARK                            x       y       z     vdW  Elec       q    Type
REMARK                         _______ _______ _______ _____ _____    ______ ____
ROOT
ATOM      1  O   UNL     1      32.133 -14.044 -21.194  0.00  0.00    -0.266 OA
ATOM      2  N   UNL     1      33.203 -12.977 -22.955  0.00  0.00    -0.219 N 
ATOM      3  N   UNL     1      33.626 -11.823 -23.550  0.00  0.00    -0.171 NA
ATOM      4  C   UNL     1      32.520 -13.013 -21.741  0.00  0.00    +0.276 A 
ATOM      5  C   UNL     1      32.253 -11.719 -21.088  0.00  0.00    +0.059 A 
ATOM      6  C   UNL     1      33.395 -10.683 -22.981  0.00  0.00    +0.083 A 
ATOM      7  C   UNL     1      32.684 -10.547 -21.699  0.00  0.00    +0.020 A 
ATOM      8  C   UNL     1      31.571 -11.665 -19.867  0.00  0.00    +0.005 C 
ATOM      9  C   UNL     1      32.438  -9.310 -21.094  0.00  0.00    +0.001 C 
ATOM     10  C   UNL     1      31.325 -10.432 -19.264  0.00  0.00    +0.000 C 
ATOM     11  C   UNL     1      31.758  -9.258 -19.877  0.00  0.00    +0.000 C 
ENDROOT
BRANCH   2  13
ATOM     12  N   UNL     1      34.537 -16.827 -24.646  0.00  0.00    +0.386 N 
ATOM     13  C   UNL     1      33.518 -14.187 -23.686  0.00  0.00    +0.106 C 
ATOM     14  C   UNL     1      33.495 -13.880 -25.186  0.00  0.00    +0.022 C 
ATOM     15  C   UNL     1      34.885 -14.714 -23.238  0.00  0.00    +0.002 C 
ATOM     16  C   UNL     1      33.582 -15.095 -26.106  0.00  0.00    -0.021 C 
ATOM     17  C   UNL     1      35.086 -16.222 -23.428  0.00  0.00    -0.075 C 
ATOM     18  C   UNL     1      34.760 -16.041 -25.859  0.00  0.00    -0.077 C 
ATOM     19  C   UNL     1      35.044 -18.193 -24.794  0.00  0.00    -0.101 C 
ATOM     20  H   UNL     1      33.524 -16.847 -24.528  0.00  0.00    -0.080 HD
ENDBRANCH   2  13
BRANCH   6  21
ATOM     21  C   UNL     1      33.886  -9.441 -23.688  0.00  0.00    +0.074 C 
BRANCH  21  23
ATOM     22 CL   UNL     1      30.477  -4.713 -22.256  0.00  0.00    -0.082 Cl
ATOM     23  C   UNL     1      33.036  -8.263 -23.330  0.00  0.00    -0.016 C 
ATOM     24  C   UNL     1      31.709  -8.213 -23.750  0.00  0.00    -0.003 C 
ATOM     25  C   UNL     1      33.576  -7.220 -22.580  0.00  0.00    -0.003 C 
ATOM     26  C   UNL     1      30.916  -7.114 -23.417  0.00  0.00    +0.011 C 
ATOM     27  C   UNL     1      32.784  -6.122 -22.248  0.00  0.00    +0.011 C 
ATOM     28  C   UNL     1      31.453  -6.069 -22.666  0.00  0.00    +0.058 C 
ENDBRANCH  21  23
ENDBRANCH   6  21
TORSDOF 3
ENDMDL
MODEL 7
REMARK VINA RESULT:      -9.2      1.819      2.749
REMARK  Name = 2267
REMARK  3 active torsions:
REMARK  status: ('A' for Active; 'I' for Inactive)
REMARK    1  A    between atoms: N_2  and  C_13
REMARK    2  A    between atoms: C_6  and  C_21
REMARK    3  A    between atoms: C_21  and  C_23
REMARK                            x       y       z     vdW  Elec       q    Type
REMARK                         _______ _______ _______ _____ _____    ______ ____
ROOT
ATOM      1  O   UNL     1      33.438 -22.670 -18.352  0.00  0.00    -0.266 OA
ATOM      2  N   UNL     1      33.297 -23.590 -16.226  0.00  0.00    -0.219 N 
ATOM      3  N   UNL     1      33.893 -23.915 -15.041  0.00  0.00    -0.171 NA
ATOM      4  C   UNL     1      33.963 -22.968 -17.281  0.00  0.00    +0.276 A 
ATOM      5  C   UNL     1      35.390 -22.658 -17.076  0.00  0.00    +0.059 A 
ATOM      6  C   UNL     1      35.146 -23.645 -14.856  0.00  0.00    +0.083 A 
ATOM      7  C   UNL     1      35.993 -22.993 -15.870  0.00  0.00    +0.020 A 
ATOM      8  C   UNL     1      36.133 -22.036 -18.085  0.00  0.00    +0.005 C 
ATOM      9  C   UNL     1      37.345 -22.707 -15.660  0.00  0.00    +0.001 C 
ATOM     10  C   UNL     1      37.483 -21.751 -17.876  0.00  0.00    +0.000 C 
ATOM     11  C   UNL     1      38.086 -22.087 -16.666  0.00  0.00    +0.000 C 
ENDROOT
BRANCH   2  13
ATOM     12  N   UNL     1      28.938 -24.042 -16.743  0.00  0.00    +0.386 N 
ATOM     13  C   UNL     1      31.894 -23.942 -16.315  0.00  0.00    +0.106 C 
ATOM     14  C   UNL     1      31.562 -24.939 -15.201  0.00  0.00    +0.022 C 
ATOM     15  C   UNL     1      31.040 -22.675 -16.213  0.00  0.00    +0.002 C 
ATOM     16  C   UNL     1      30.182 -25.586 -15.289  0.00  0.00    -0.021 C 
ATOM     17  C   UNL     1      29.662 -22.773 -16.876  0.00  0.00    -0.075 C 
ATOM     18  C   UNL     1      28.996 -24.626 -15.403  0.00  0.00    -0.077 C 
ATOM     19  C   UNL     1      27.555 -23.875 -17.193  0.00  0.00    -0.101 C 
ATOM     20  H   UNL     1      29.417 -24.713 -17.343  0.00  0.00    -0.080 HD
ENDBRANCH   2  13
BRANCH   6  21
ATOM     21  C   UNL     1      35.751 -24.030 -13.527  0.00  0.00    +0.074 C 
BRANCH  21  23
ATOM     22 CL   UNL     1      41.020 -26.790 -14.332  0.00  0.00    -0.082 Cl
ATOM     23  C   UNL     1      37.064 -24.718 -13.727  0.00  0.00    -0.016 C 
ATOM     24  C   UNL     1      38.177 -24.316 -12.992  0.00  0.00    -0.003 C 
ATOM     25  C   UNL     1      37.169 -25.758 -14.648  0.00  0.00    -0.003 C 
ATOM     26  C   UNL     1      39.401 -24.957 -13.179  0.00  0.00    +0.011 C 
ATOM     27  C   UNL     1      38.393 -26.399 -14.835  0.00  0.00    +0.011 C 
ATOM     28  C   UNL     1      39.510 -25.999 -14.101  0.00  0.00    +0.058 C 
ENDBRANCH  21  23
ENDBRANCH   6  21
TORSDOF 3
ENDMDL
MODEL 8
REMARK VINA RESULT:      -9.1      1.551      5.643
REMARK  Name = 2267
REMARK  3 active torsions:
REMARK  status: ('A' for Active; 'I' for Inactive)
REMARK    1  A    between atoms: N_2  and  C_13
REMARK    2  A    between atoms: C_6  and  C_21
REMARK    3  A    between atoms: C_21  and  C_23
REMARK                            x       y       z     vdW  Elec       q    Type
REMARK                         _______ _______ _______ _____ _____    ______ ____
ROOT
ATOM      1  O   UNL     1      31.392 -22.020 -17.908  0.00  0.00    -0.266 OA
ATOM      2  N   UNL     1      33.404 -22.934 -17.200  0.00  0.00    -0.219 N 
ATOM      3  N   UNL     1      34.084 -23.804 -16.397  0.00  0.00    -0.171 NA
ATOM      4  C   UNL     1      32.017 -22.799 -17.191  0.00  0.00    +0.276 A 
ATOM      5  C   UNL     1      31.270 -23.656 -16.252  0.00  0.00    +0.059 A 
ATOM      6  C   UNL     1      33.433 -24.560 -15.570  0.00  0.00    +0.083 A 
ATOM      7  C   UNL     1      31.967 -24.540 -15.436  0.00  0.00    +0.020 A 
ATOM      8  C   UNL     1      29.875 -23.583 -16.179  0.00  0.00    +0.005 C 
ATOM      9  C   UNL     1      31.275 -25.359 -14.539  0.00  0.00    +0.001 C 
ATOM     10  C   UNL     1      29.184 -24.400 -15.284  0.00  0.00    +0.000 C 
ATOM     11  C   UNL     1      29.883 -25.286 -14.467  0.00  0.00    +0.000 C 
ENDROOT
BRANCH   2  13
ATOM     12  N   UNL     1      35.423 -20.534 -20.303  0.00  0.00    +0.386 N 
ATOM     13  C   UNL     1      34.239 -22.142 -18.080  0.00  0.00    +0.106 C 
ATOM     14  C   UNL     1      35.705 -22.520 -17.845  0.00  0.00    +0.022 C 
ATOM     15  C   UNL     1      33.820 -22.379 -19.534  0.00  0.00    +0.002 C 
ATOM     16  C   UNL     1      36.732 -21.620 -18.528  0.00  0.00    -0.021 C 
ATOM     17  C   UNL     1      34.146 -21.229 -20.493  0.00  0.00    -0.075 C 
ATOM     18  C   UNL     1      36.555 -21.422 -20.034  0.00  0.00    -0.077 C 
ATOM     19  C   UNL     1      35.689 -19.661 -21.448  0.00  0.00    -0.101 C 
ATOM     20  H   UNL     1      35.324 -19.972 -19.458  0.00  0.00    -0.080 HD
ENDBRANCH   2  13
BRANCH   6  21
ATOM     21  C   UNL     1      34.240 -25.502 -14.708  0.00  0.00    +0.074 C 
BRANCH  21  23
ATOM     22 CL   UNL     1      38.632 -22.534 -11.894  0.00  0.00    -0.082 Cl
ATOM     23  C   UNL     1      35.335 -24.763 -14.006  0.00  0.00    -0.016 C 
ATOM     24  C   UNL     1      35.158 -24.350 -12.688  0.00  0.00    -0.003 C 
ATOM     25  C   UNL     1      36.526 -24.490 -14.675  0.00  0.00    -0.003 C 
ATOM     26  C   UNL     1      36.179 -23.661 -12.034  0.00  0.00    +0.011 C 
ATOM     27  C   UNL     1      37.546 -23.800 -14.021  0.00  0.00    +0.011 C 
ATOM     28  C   UNL     1      37.373 -23.385 -12.700  0.00  0.00    +0.058 C 
ENDBRANCH  21  23
ENDBRANCH   6  21
TORSDOF 3
ENDMDL
MODEL 9
REMARK VINA RESULT:      -9.0      6.322      9.441
REMARK  Name = 2267
REMARK  3 active torsions:
REMARK  status: ('A' for Active; 'I' for Inactive)
REMARK    1  A    between atoms: N_2  and  C_13
REMARK    2  A    between atoms: C_6  and  C_21
REMARK    3  A    between atoms: C_21  and  C_23
REMARK                            x       y       z     vdW  Elec       q    Type
REMARK                         _______ _______ _______ _____ _____    ______ ____
ROOT
ATOM      1  O   UNL     1      34.728 -19.765 -24.224  0.00  0.00    -0.266 OA
ATOM      2  N   UNL     1      35.101 -18.765 -22.163  0.00  0.00    -0.219 N 
ATOM      3  N   UNL     1      35.269 -17.635 -21.416  0.00  0.00    -0.171 NA
ATOM      4  C   UNL     1      34.881 -18.756 -23.539  0.00  0.00    +0.276 A 
ATOM      5  C   UNL     1      34.834 -17.437 -24.196  0.00  0.00    +0.059 A 
ATOM      6  C   UNL     1      35.228 -16.474 -21.988  0.00  0.00    +0.083 A 
ATOM      7  C   UNL     1      35.007 -16.289 -23.432  0.00  0.00    +0.020 A 
ATOM      8  C   UNL     1      34.619 -17.337 -25.576  0.00  0.00    +0.005 C 
ATOM      9  C   UNL     1      34.966 -15.030 -24.039  0.00  0.00    +0.001 C 
ATOM     10  C   UNL     1      34.578 -16.081 -26.181  0.00  0.00    +0.000 C 
ATOM     11  C   UNL     1      34.752 -14.931 -25.415  0.00  0.00    +0.000 C 
ENDROOT
BRANCH   2  13
ATOM     12  N   UNL     1      34.634 -22.506 -19.870  0.00  0.00    +0.386 N 
ATOM     13  C   UNL     1      35.168 -20.003 -21.413  0.00  0.00    +0.106 C 
ATOM     14  C   UNL     1      36.463 -20.017 -20.594  0.00  0.00    +0.022 C 
ATOM     15  C   UNL     1      33.932 -20.128 -20.518  0.00  0.00    +0.002 C 
ATOM     16  C   UNL     1      36.801 -21.345 -19.923  0.00  0.00    -0.021 C 
ATOM     17  C   UNL     1      33.545 -21.565 -20.153  0.00  0.00    -0.075 C 
ATOM     18  C   UNL     1      35.706 -21.951 -19.042  0.00  0.00    -0.077 C 
ATOM     19  C   UNL     1      34.091 -23.734 -19.286  0.00  0.00    -0.101 C 
ATOM     20  H   UNL     1      35.075 -22.716 -20.765  0.00  0.00    -0.080 HD
ENDBRANCH   2  13
BRANCH   6  21
ATOM     21  C   UNL     1      35.422 -15.259 -21.110  0.00  0.00    +0.074 C 
BRANCH  21  23
ATOM     22 CL   UNL     1      30.568 -11.734 -21.283  0.00  0.00    -0.082 Cl
ATOM     23  C   UNL     1      34.212 -14.382 -21.154  0.00  0.00    -0.016 C 
ATOM     24  C   UNL     1      34.137 -13.350 -22.087  0.00  0.00    -0.003 C 
ATOM     25  C   UNL     1      33.166 -14.598 -20.260  0.00  0.00    -0.003 C 
ATOM     26  C   UNL     1      33.009 -12.531 -22.128  0.00  0.00    +0.011 C 
ATOM     27  C   UNL     1      32.038 -13.778 -20.300  0.00  0.00    +0.011 C 
ATOM     28  C   UNL     1      31.959 -12.745 -21.234  0.00  0.00    +0.058 C 
ENDBRANCH  21  23
ENDBRANCH   6  21
TORSDOF 3
ENDMDL
