MODEL 1
REMARK VINA RESULT:     -11.9      0.000      0.000
REMARK  Name = 153241
REMARK  8 active torsions:
REMARK  status: ('A' for Active; 'I' for Inactive)
REMARK    1  A    between atoms: N_2  and  C_9
REMARK    2  A    between atoms: N_3  and  C_24
REMARK    3  A    between atoms: C_7  and  C_13
REMARK    4  A    between atoms: C_13  and  N_15
REMARK    5  A    between atoms: C_16  and  O_18
REMARK    6  A    between atoms: O_18  and  C_20
REMARK    7  A    between atoms: C_25  and  C_32
REMARK    8  A    between atoms: C_26  and  O_35
REMARK                            x       y       z     vdW  Elec       q    Type
REMARK                         _______ _______ _______ _____ _____    ______ ____
ROOT
ATOM      1  O   UNL     1      34.327 -19.049 -20.786  0.00  0.00    -0.252 OA
ATOM      2  N   UNL     1      35.899 -20.781 -20.939  0.00  0.00    -0.268 N 
ATOM      3  N   UNL     1      35.716 -19.248 -22.657  0.00  0.00    -0.268 N 
ATOM      4  C   UNL     1      35.218 -19.627 -21.400  0.00  0.00    +0.308 C 
ATOM      5  H   UNL     1      36.593 -21.136 -21.540  0.00  0.00    +0.156 HD
ATOM      6  H   UNL     1      36.435 -19.812 -23.025  0.00  0.00    +0.156 HD
ENDROOT
BRANCH   2   9
ATOM      7  C   UNL     1      36.546 -22.220 -17.610  0.00  0.00    -0.001 C 
ATOM      8  C   UNL     1      36.738 -21.521 -18.797  0.00  0.00    +0.012 C 
ATOM      9  C   UNL     1      35.716 -21.480 -19.745  0.00  0.00    +0.051 C 
ATOM     10  C   UNL     1      35.347 -22.877 -17.358  0.00  0.00    -0.003 C 
ATOM     11  C   UNL     1      34.510 -22.137 -19.500  0.00  0.00    +0.015 C 
ATOM     12  C   UNL     1      34.326 -22.835 -18.307  0.00  0.00    +0.001 C 
BRANCH   7  13
ATOM     13  C   UNL     1      37.646 -22.265 -16.589  0.00  0.00    +0.119 C 
BRANCH  13  15
ATOM     14  O   UNL     1      39.078 -24.383 -15.211  0.00  0.00    -0.226 OA
ATOM     15  N   UNL     1      37.246 -22.973 -15.395  0.00  0.00    -0.267 N 
ATOM     16  C   UNL     1      37.996 -23.970 -14.809  0.00  0.00    +0.402 C 
ATOM     17  H   UNL     1      36.388 -22.729 -14.976  0.00  0.00    +0.153 HD
BRANCH  16  18
ATOM     18  O   UNL     1      37.354 -24.446 -13.695  0.00  0.00    -0.436 OA
BRANCH  18  20
ATOM     19  O   UNL     1      37.060 -24.089 -10.696  0.00  0.00    -0.350 OA
ATOM     20  C   UNL     1      36.610 -23.491 -12.945  0.00  0.00    +0.202 C 
ATOM     21  C   UNL     1      35.377 -24.139 -12.364  0.00  0.00    +0.078 C 
ATOM     22  C   UNL     1      37.395 -23.120 -11.704  0.00  0.00    +0.186 C 
ATOM     23  C   UNL     1      35.937 -24.856 -11.151  0.00  0.00    +0.146 C 
ENDBRANCH  18  20
ENDBRANCH  16  18
ENDBRANCH  13  15
ENDBRANCH   7  13
ENDBRANCH   2   9
BRANCH   3  24
ATOM     24  C   UNL     1      35.312 -18.157 -23.461  0.00  0.00    +0.055 C 
ATOM     25  C   UNL     1      34.520 -16.019 -25.036  0.00  0.00    +0.070 C 
ATOM     26  C   UNL     1      35.085 -15.790 -23.782  0.00  0.00    +0.143 C 
ATOM     27  C   UNL     1      35.484 -16.866 -22.988  0.00  0.00    +0.052 C 
ATOM     28  C   UNL     1      34.752 -18.402 -24.705  0.00  0.00    +0.015 C 
ATOM     29  C   UNL     1      34.353 -17.325 -25.497  0.00  0.00    +0.007 C 
BRANCH  25  32
ATOM     30  O   UNL     1      33.946 -15.201 -27.190  0.00  0.00    -0.431 OA
ATOM     31  N   UNL     1      33.450 -13.019 -26.857  0.00  0.00    -0.203 NA
ATOM     32  C   UNL     1      34.100 -14.919 -25.872  0.00  0.00    +0.169 C 
ATOM     33  C   UNL     1      33.803 -13.604 -25.668  0.00  0.00    +0.140 C 
ATOM     34  C   UNL     1      33.553 -14.008 -27.716  0.00  0.00    +0.285 C 
ENDBRANCH  25  32
BRANCH  26  35
ATOM     35  O   UNL     1      35.259 -14.524 -23.306  0.00  0.00    -0.471 OA
ATOM     36  C   UNL     1      34.498 -14.154 -22.158  0.00  0.00    +0.252 C 
ENDBRANCH  26  35
ENDBRANCH   3  24
TORSDOF 8
ENDMDL
MODEL 2
REMARK VINA RESULT:     -11.2      2.258     11.592
REMARK  Name = 153241
REMARK  8 active torsions:
REMARK  status: ('A' for Active; 'I' for Inactive)
REMARK    1  A    between atoms: N_2  and  C_9
REMARK    2  A    between atoms: N_3  and  C_24
REMARK    3  A    between atoms: C_7  and  C_13
REMARK    4  A    between atoms: C_13  and  N_15
REMARK    5  A    between atoms: C_16  and  O_18
REMARK    6  A    between atoms: O_18  and  C_20
REMARK    7  A    between atoms: C_25  and  C_32
REMARK    8  A    between atoms: C_26  and  O_35
REMARK                            x       y       z     vdW  Elec       q    Type
REMARK                         _______ _______ _______ _____ _____    ______ ____
ROOT
ATOM      1  O   UNL     1      34.424 -20.353 -21.118  0.00  0.00    -0.252 OA
ATOM      2  N   UNL     1      36.175 -19.180 -22.141  0.00  0.00    -0.268 N 
ATOM      3  N   UNL     1      36.581 -20.386 -20.215  0.00  0.00    -0.268 N 
ATOM      4  C   UNL     1      35.602 -20.013 -21.149  0.00  0.00    +0.308 C 
ATOM      5  H   UNL     1      37.135 -18.990 -22.038  0.00  0.00    +0.156 HD
ATOM      6  H   UNL     1      37.486 -20.033 -20.372  0.00  0.00    +0.156 HD
ENDROOT
BRANCH   2   9
ATOM      7  C   UNL     1      35.016 -16.637 -24.542  0.00  0.00    -0.001 C 
ATOM      8  C   UNL     1      35.633 -17.213 -23.437  0.00  0.00    +0.012 C 
ATOM      9  C   UNL     1      35.558 -18.592 -23.247  0.00  0.00    +0.051 C 
ATOM     10  C   UNL     1      34.326 -17.422 -25.460  0.00  0.00    -0.003 C 
ATOM     11  C   UNL     1      34.868 -19.387 -24.163  0.00  0.00    +0.015 C 
ATOM     12  C   UNL     1      34.253 -18.802 -25.269  0.00  0.00    +0.001 C 
BRANCH   7  13
ATOM     13  C   UNL     1      35.094 -15.153 -24.747  0.00  0.00    +0.119 C 
BRANCH  13  15
ATOM     14  O   UNL     1      34.463 -12.321 -24.609  0.00  0.00    -0.226 OA
ATOM     15  N   UNL     1      34.537 -14.423 -23.631  0.00  0.00    -0.267 N 
ATOM     16  C   UNL     1      34.270 -13.070 -23.659  0.00  0.00    +0.402 C 
ATOM     17  H   UNL     1      34.338 -14.919 -22.805  0.00  0.00    +0.153 HD
BRANCH  16  18
ATOM     18  O   UNL     1      33.749 -12.672 -22.455  0.00  0.00    -0.436 OA
BRANCH  18  20
ATOM     19  O   UNL     1      31.681 -11.470 -20.588  0.00  0.00    -0.350 OA
ATOM     20  C   UNL     1      32.401 -13.053 -22.198  0.00  0.00    +0.202 C 
ATOM     21  C   UNL     1      32.305 -13.739 -20.859  0.00  0.00    +0.078 C 
ATOM     22  C   UNL     1      31.569 -11.805 -21.982  0.00  0.00    +0.186 C 
ATOM     23  C   UNL     1      32.297 -12.566 -19.899  0.00  0.00    +0.146 C 
ENDBRANCH  18  20
ENDBRANCH  16  18
ENDBRANCH  13  15
ENDBRANCH   7  13
ENDBRANCH   2   9
BRANCH   3  24
ATOM     24  C   UNL     1      36.427 -21.207 -19.072  0.00  0.00    +0.055 C 
ATOM     25  C   UNL     1      36.124 -22.815 -16.836  0.00  0.00    +0.070 C 
ATOM     26  C   UNL     1      35.179 -22.859 -17.861  0.00  0.00    +0.143 C 
ATOM     27  C   UNL     1      35.330 -22.050 -18.987  0.00  0.00    +0.052 C 
ATOM     28  C   UNL     1      37.375 -21.151 -18.064  0.00  0.00    +0.015 C 
ATOM     29  C   UNL     1      37.222 -21.960 -16.938  0.00  0.00    +0.007 C 
BRANCH  25  32
ATOM     30  O   UNL     1      36.622 -24.841 -15.702  0.00  0.00    -0.431 OA
ATOM     31  N   UNL     1      35.566 -24.653 -13.711  0.00  0.00    -0.203 NA
ATOM     32  C   UNL     1      35.985 -23.644 -15.662  0.00  0.00    +0.169 C 
ATOM     33  C   UNL     1      35.346 -23.528 -14.462  0.00  0.00    +0.140 C 
ATOM     34  C   UNL     1      36.323 -25.390 -14.493  0.00  0.00    +0.285 C 
ENDBRANCH  25  32
BRANCH  26  35
ATOM     35  O   UNL     1      34.096 -23.685 -17.787  0.00  0.00    -0.471 OA
ATOM     36  C   UNL     1      32.846 -23.085 -17.456  0.00  0.00    +0.252 C 
ENDBRANCH  26  35
ENDBRANCH   3  24
TORSDOF 8
ENDMDL
MODEL 3
REMARK VINA RESULT:     -11.1      3.236      4.552
REMARK  Name = 153241
REMARK  8 active torsions:
REMARK  status: ('A' for Active; 'I' for Inactive)
REMARK    1  A    between atoms: N_2  and  C_9
REMARK    2  A    between atoms: N_3  and  C_24
REMARK    3  A    between atoms: C_7  and  C_13
REMARK    4  A    between atoms: C_13  and  N_15
REMARK    5  A    between atoms: C_16  and  O_18
REMARK    6  A    between atoms: O_18  and  C_20
REMARK    7  A    between atoms: C_25  and  C_32
REMARK    8  A    between atoms: C_26  and  O_35
REMARK                            x       y       z     vdW  Elec       q    Type
REMARK                         _______ _______ _______ _____ _____    ______ ____
ROOT
ATOM      1  O   UNL     1      34.435 -19.024 -20.723  0.00  0.00    -0.252 OA
ATOM      2  N   UNL     1      35.981 -20.775 -20.911  0.00  0.00    -0.268 N 
ATOM      3  N   UNL     1      35.761 -19.256 -22.636  0.00  0.00    -0.268 N 
ATOM      4  C   UNL     1      35.299 -19.617 -21.360  0.00  0.00    +0.308 C 
ATOM      5  H   UNL     1      36.651 -21.145 -21.530  0.00  0.00    +0.156 HD
ATOM      6  H   UNL     1      36.461 -19.831 -23.021  0.00  0.00    +0.156 HD
ENDROOT
BRANCH   2   9
ATOM      7  C   UNL     1      34.609 -23.011 -18.323  0.00  0.00    -0.001 C 
ATOM      8  C   UNL     1      34.752 -22.331 -19.527  0.00  0.00    +0.012 C 
ATOM      9  C   UNL     1      35.828 -21.462 -19.705  0.00  0.00    +0.051 C 
ATOM     10  C   UNL     1      35.528 -22.834 -17.295  0.00  0.00    -0.003 C 
ATOM     11  C   UNL     1      36.755 -21.280 -18.678  0.00  0.00    +0.015 C 
ATOM     12  C   UNL     1      36.605 -21.966 -17.474  0.00  0.00    +0.001 C 
BRANCH   7  13
ATOM     13  C   UNL     1      33.450 -23.944 -18.130  0.00  0.00    +0.119 C 
BRANCH  13  15
ATOM     14  O   UNL     1      32.072 -24.167 -15.583  0.00  0.00    -0.226 OA
ATOM     15  N   UNL     1      32.259 -23.247 -17.704  0.00  0.00    -0.267 N 
ATOM     16  C   UNL     1      31.673 -23.418 -16.467  0.00  0.00    +0.402 C 
ATOM     17  H   UNL     1      31.841 -22.614 -18.332  0.00  0.00    +0.153 HD
BRANCH  16  18
ATOM     18  O   UNL     1      30.562 -22.622 -16.362  0.00  0.00    -0.436 OA
BRANCH  18  20
ATOM     19  O   UNL     1      28.151 -23.993 -17.591  0.00  0.00    -0.350 OA
ATOM     20  C   UNL     1      29.422 -23.215 -15.749  0.00  0.00    +0.202 C 
ATOM     21  C   UNL     1      28.220 -22.318 -15.917  0.00  0.00    +0.078 C 
ATOM     22  C   UNL     1      29.021 -24.444 -16.539  0.00  0.00    +0.186 C 
ATOM     23  C   UNL     1      27.787 -22.630 -17.336  0.00  0.00    +0.146 C 
ENDBRANCH  18  20
ENDBRANCH  16  18
ENDBRANCH  13  15
ENDBRANCH   7  13
ENDBRANCH   2   9
BRANCH   3  24
ATOM     24  C   UNL     1      35.343 -18.167 -23.437  0.00  0.00    +0.055 C 
ATOM     25  C   UNL     1      34.526 -16.034 -25.004  0.00  0.00    +0.070 C 
ATOM     26  C   UNL     1      35.066 -15.803 -23.739  0.00  0.00    +0.143 C 
ATOM     27  C   UNL     1      35.478 -16.877 -22.949  0.00  0.00    +0.052 C 
ATOM     28  C   UNL     1      34.809 -18.413 -24.691  0.00  0.00    +0.015 C 
ATOM     29  C   UNL     1      34.397 -17.339 -25.479  0.00  0.00    +0.007 C 
BRANCH  25  32
ATOM     30  O   UNL     1      33.897 -15.227 -27.148  0.00  0.00    -0.431 OA
ATOM     31  N   UNL     1      33.435 -13.037 -26.818  0.00  0.00    -0.203 NA
ATOM     32  C   UNL     1      34.093 -14.936 -25.837  0.00  0.00    +0.169 C 
ATOM     33  C   UNL     1      33.817 -13.616 -25.635  0.00  0.00    +0.140 C 
ATOM     34  C   UNL     1      33.503 -14.034 -27.672  0.00  0.00    +0.285 C 
ENDBRANCH  25  32
BRANCH  26  35
ATOM     35  O   UNL     1      35.203 -14.538 -23.250  0.00  0.00    -0.471 OA
ATOM     36  C   UNL     1      34.506 -14.231 -22.045  0.00  0.00    +0.252 C 
ENDBRANCH  26  35
ENDBRANCH   3  24
TORSDOF 8
ENDMDL
MODEL 4
REMARK VINA RESULT:     -11.1      3.282      4.954
REMARK  Name = 153241
REMARK  8 active torsions:
REMARK  status: ('A' for Active; 'I' for Inactive)
REMARK    1  A    between atoms: N_2  and  C_9
REMARK    2  A    between atoms: N_3  and  C_24
REMARK    3  A    between atoms: C_7  and  C_13
REMARK    4  A    between atoms: C_13  and  N_15
REMARK    5  A    between atoms: C_16  and  O_18
REMARK    6  A    between atoms: O_18  and  C_20
REMARK    7  A    between atoms: C_25  and  C_32
REMARK    8  A    between atoms: C_26  and  O_35
REMARK                            x       y       z     vdW  Elec       q    Type
REMARK                         _______ _______ _______ _____ _____    ______ ____
ROOT
ATOM      1  O   UNL     1      34.672 -15.770 -21.025  0.00  0.00    -0.252 OA
ATOM      2  N   UNL     1      35.279 -17.344 -22.651  0.00  0.00    -0.268 N 
ATOM      3  N   UNL     1      34.581 -15.241 -23.301  0.00  0.00    -0.268 N 
ATOM      4  C   UNL     1      34.826 -16.079 -22.202  0.00  0.00    +0.308 C 
ATOM      5  H   UNL     1      35.355 -17.449 -23.626  0.00  0.00    +0.156 HD
ATOM      6  H   UNL     1      34.752 -15.631 -24.189  0.00  0.00    +0.156 HD
ENDROOT
BRANCH   2   9
ATOM      7  C   UNL     1      35.019 -20.475 -20.726  0.00  0.00    -0.001 C 
ATOM      8  C   UNL     1      34.656 -19.365 -21.481  0.00  0.00    +0.012 C 
ATOM      9  C   UNL     1      35.634 -18.461 -21.892  0.00  0.00    +0.051 C 
ATOM     10  C   UNL     1      36.348 -20.693 -20.379  0.00  0.00    -0.003 C 
ATOM     11  C   UNL     1      36.970 -18.672 -21.548  0.00  0.00    +0.015 C 
ATOM     12  C   UNL     1      37.326 -19.788 -20.791  0.00  0.00    +0.001 C 
BRANCH   7  13
ATOM     13  C   UNL     1      33.967 -21.448 -20.282  0.00  0.00    +0.119 C 
BRANCH  13  15
ATOM     14  O   UNL     1      32.458 -22.714 -18.147  0.00  0.00    -0.226 OA
ATOM     15  N   UNL     1      34.458 -22.349 -19.265  0.00  0.00    -0.267 N 
ATOM     16  C   UNL     1      33.661 -22.904 -18.285  0.00  0.00    +0.402 C 
ATOM     17  H   UNL     1      35.415 -22.578 -19.271  0.00  0.00    +0.153 HD
BRANCH  16  18
ATOM     18  O   UNL     1      34.414 -23.711 -17.472  0.00  0.00    -0.436 OA
BRANCH  18  20
ATOM     19  O   UNL     1      36.887 -24.243 -15.797  0.00  0.00    -0.350 OA
ATOM     20  C   UNL     1      34.836 -23.140 -16.238  0.00  0.00    +0.202 C 
ATOM     21  C   UNL     1      34.621 -24.123 -15.114  0.00  0.00    +0.078 C 
ATOM     22  C   UNL     1      36.344 -22.993 -16.255  0.00  0.00    +0.186 C 
ATOM     23  C   UNL     1      35.822 -25.037 -15.256  0.00  0.00    +0.146 C 
ENDBRANCH  18  20
ENDBRANCH  16  18
ENDBRANCH  13  15
ENDBRANCH   7  13
ENDBRANCH   2   9
BRANCH   3  24
ATOM     24  C   UNL     1      34.119 -13.904 -23.291  0.00  0.00    +0.055 C 
ATOM     25  C   UNL     1      33.214 -11.285 -23.271  0.00  0.00    +0.070 C 
ATOM     26  C   UNL     1      32.731 -12.198 -22.333  0.00  0.00    +0.143 C 
ATOM     27  C   UNL     1      33.186 -13.516 -22.343  0.00  0.00    +0.052 C 
ATOM     28  C   UNL     1      34.609 -13.010 -24.229  0.00  0.00    +0.015 C 
ATOM     29  C   UNL     1      34.153 -11.692 -24.219  0.00  0.00    +0.007 C 
BRANCH  25  32
ATOM     30  O   UNL     1      33.656  -8.990 -23.694  0.00  0.00    -0.431 OA
ATOM     31  N   UNL     1      31.727  -7.933 -23.166  0.00  0.00    -0.203 NA
ATOM     32  C   UNL     1      32.756  -9.916 -23.277  0.00  0.00    +0.169 C 
ATOM     33  C   UNL     1      31.591  -9.281 -22.957  0.00  0.00    +0.140 C 
ATOM     34  C   UNL     1      32.963  -7.822 -23.599  0.00  0.00    +0.285 C 
ENDBRANCH  25  32
BRANCH  26  35
ATOM     35  O   UNL     1      31.813 -11.827 -21.395  0.00  0.00    -0.471 OA
ATOM     36  C   UNL     1      32.091 -12.181 -20.042  0.00  0.00    +0.252 C 
ENDBRANCH  26  35
ENDBRANCH   3  24
TORSDOF 8
ENDMDL
MODEL 5
REMARK VINA RESULT:     -10.9      3.044      5.504
REMARK  Name = 153241
REMARK  8 active torsions:
REMARK  status: ('A' for Active; 'I' for Inactive)
REMARK    1  A    between atoms: N_2  and  C_9
REMARK    2  A    between atoms: N_3  and  C_24
REMARK    3  A    between atoms: C_7  and  C_13
REMARK    4  A    between atoms: C_13  and  N_15
REMARK    5  A    between atoms: C_16  and  O_18
REMARK    6  A    between atoms: O_18  and  C_20
REMARK    7  A    between atoms: C_25  and  C_32
REMARK    8  A    between atoms: C_26  and  O_35
REMARK                            x       y       z     vdW  Elec       q    Type
REMARK                         _______ _______ _______ _____ _____    ______ ____
ROOT
ATOM      1  O   UNL     1      35.784 -22.483 -18.405  0.00  0.00    -0.252 OA
ATOM      2  N   UNL     1      37.559 -22.025 -16.946  0.00  0.00    -0.268 N 
ATOM      3  N   UNL     1      37.249 -20.707 -18.817  0.00  0.00    -0.268 N 
ATOM      4  C   UNL     1      36.759 -21.807 -18.095  0.00  0.00    +0.308 C 
ATOM      5  H   UNL     1      38.311 -21.401 -16.824  0.00  0.00    +0.156 HD
ATOM      6  H   UNL     1      38.043 -20.263 -18.441  0.00  0.00    +0.156 HD
ENDROOT
BRANCH   2   9
ATOM      7  C   UNL     1      36.141 -24.034 -14.203  0.00  0.00    -0.001 C 
ATOM      8  C   UNL     1      36.269 -23.053 -15.179  0.00  0.00    +0.012 C 
ATOM      9  C   UNL     1      37.422 -23.006 -15.963  0.00  0.00    +0.051 C 
ATOM     10  C   UNL     1      37.149 -24.970 -14.000  0.00  0.00    -0.003 C 
ATOM     11  C   UNL     1      38.438 -23.942 -15.766  0.00  0.00    +0.015 C 
ATOM     12  C   UNL     1      38.302 -24.923 -14.785  0.00  0.00    +0.001 C 
BRANCH   7  13
ATOM     13  C   UNL     1      34.902 -24.084 -13.358  0.00  0.00    +0.119 C 
BRANCH  13  15
ATOM     14  O   UNL     1      32.176 -25.079 -13.225  0.00  0.00    -0.226 OA
ATOM     15  N   UNL     1      33.744 -23.591 -14.067  0.00  0.00    -0.267 N 
ATOM     16  C   UNL     1      32.481 -24.131 -13.940  0.00  0.00    +0.402 C 
ATOM     17  H   UNL     1      33.863 -22.826 -14.676  0.00  0.00    +0.153 HD
BRANCH  16  18
ATOM     18  O   UNL     1      31.598 -23.449 -14.736  0.00  0.00    -0.436 OA
BRANCH  18  20
ATOM     19  O   UNL     1      29.998 -22.383 -17.083  0.00  0.00    -0.350 OA
ATOM     20  C   UNL     1      31.338 -24.020 -16.015  0.00  0.00    +0.202 C 
ATOM     21  C   UNL     1      29.917 -24.525 -16.074  0.00  0.00    +0.078 C 
ATOM     22  C   UNL     1      31.333 -22.918 -17.054  0.00  0.00    +0.186 C 
ATOM     23  C   UNL     1      29.137 -23.251 -16.335  0.00  0.00    +0.146 C 
ENDBRANCH  18  20
ENDBRANCH  16  18
ENDBRANCH  13  15
ENDBRANCH   7  13
ENDBRANCH   2   9
BRANCH   3  24
ATOM     24  C   UNL     1      36.742 -20.160 -20.019  0.00  0.00    +0.055 C 
ATOM     25  C   UNL     1      35.750 -19.088 -22.374  0.00  0.00    +0.070 C 
ATOM     26  C   UNL     1      34.932 -19.879 -21.568  0.00  0.00    +0.143 C 
ATOM     27  C   UNL     1      35.431 -20.420 -20.382  0.00  0.00    +0.052 C 
ATOM     28  C   UNL     1      37.568 -19.376 -20.808  0.00  0.00    +0.015 C 
ATOM     29  C   UNL     1      37.069 -18.837 -21.993  0.00  0.00    +0.007 C 
BRANCH  25  32
ATOM     30  O   UNL     1      35.488 -17.197 -23.785  0.00  0.00    -0.431 OA
ATOM     31  N   UNL     1      34.364 -17.981 -25.585  0.00  0.00    -0.203 NA
ATOM     32  C   UNL     1      35.253 -18.520 -23.605  0.00  0.00    +0.169 C 
ATOM     33  C   UNL     1      34.574 -18.996 -24.688  0.00  0.00    +0.140 C 
ATOM     34  C   UNL     1      34.923 -16.946 -24.999  0.00  0.00    +0.285 C 
ENDBRANCH  25  32
BRANCH  26  35
ATOM     35  O   UNL     1      33.639 -20.142 -21.916  0.00  0.00    -0.471 OA
ATOM     36  C   UNL     1      32.773 -20.605 -20.883  0.00  0.00    +0.252 C 
ENDBRANCH  26  35
ENDBRANCH   3  24
TORSDOF 8
ENDMDL
MODEL 6
REMARK VINA RESULT:     -10.9      2.855      3.541
REMARK  Name = 153241
REMARK  8 active torsions:
REMARK  status: ('A' for Active; 'I' for Inactive)
REMARK    1  A    between atoms: N_2  and  C_9
REMARK    2  A    between atoms: N_3  and  C_24
REMARK    3  A    between atoms: C_7  and  C_13
REMARK    4  A    between atoms: C_13  and  N_15
REMARK    5  A    between atoms: C_16  and  O_18
REMARK    6  A    between atoms: O_18  and  C_20
REMARK    7  A    between atoms: C_25  and  C_32
REMARK    8  A    between atoms: C_26  and  O_35
REMARK                            x       y       z     vdW  Elec       q    Type
REMARK                         _______ _______ _______ _____ _____    ______ ____
ROOT
ATOM      1  O   UNL     1      34.471 -18.952 -20.812  0.00  0.00    -0.252 OA
ATOM      2  N   UNL     1      36.083 -20.643 -20.983  0.00  0.00    -0.268 N 
ATOM      3  N   UNL     1      35.843 -19.116 -22.698  0.00  0.00    -0.268 N 
ATOM      4  C   UNL     1      35.369 -19.507 -21.436  0.00  0.00    +0.308 C 
ATOM      5  H   UNL     1      36.779 -20.982 -21.592  0.00  0.00    +0.156 HD
ATOM      6  H   UNL     1      36.572 -19.661 -23.074  0.00  0.00    +0.156 HD
ENDROOT
BRANCH   2   9
ATOM      7  C   UNL     1      34.628 -22.781 -18.358  0.00  0.00    -0.001 C 
ATOM      8  C   UNL     1      34.770 -22.082 -19.552  0.00  0.00    +0.012 C 
ATOM      9  C   UNL     1      35.932 -21.347 -19.787  0.00  0.00    +0.051 C 
ATOM     10  C   UNL     1      35.632 -22.754 -17.396  0.00  0.00    -0.003 C 
ATOM     11  C   UNL     1      36.944 -21.316 -18.827  0.00  0.00    +0.015 C 
ATOM     12  C   UNL     1      36.794 -22.019 -17.633  0.00  0.00    +0.001 C 
BRANCH   7  13
ATOM     13  C   UNL     1      33.378 -23.571 -18.104  0.00  0.00    +0.119 C 
BRANCH  13  15
ATOM     14  O   UNL     1      30.752 -22.556 -17.388  0.00  0.00    -0.226 OA
ATOM     15  N   UNL     1      32.850 -23.336 -16.780  0.00  0.00    -0.267 N 
ATOM     16  C   UNL     1      31.583 -22.849 -16.536  0.00  0.00    +0.402 C 
ATOM     17  H   UNL     1      33.428 -23.535 -16.008  0.00  0.00    +0.153 HD
BRANCH  16  18
ATOM     18  O   UNL     1      31.377 -22.735 -15.186  0.00  0.00    -0.436 OA
BRANCH  18  20
ATOM     19  O   UNL     1      31.646 -24.830 -13.007  0.00  0.00    -0.350 OA
ATOM     20  C   UNL     1      30.409 -23.615 -14.623  0.00  0.00    +0.202 C 
ATOM     21  C   UNL     1      30.625 -25.017 -15.137  0.00  0.00    +0.078 C 
ATOM     22  C   UNL     1      30.685 -23.768 -13.141  0.00  0.00    +0.186 C 
ATOM     23  C   UNL     1      31.768 -25.502 -14.268  0.00  0.00    +0.146 C 
ENDBRANCH  18  20
ENDBRANCH  16  18
ENDBRANCH  13  15
ENDBRANCH   7  13
ENDBRANCH   2   9
BRANCH   3  24
ATOM     24  C   UNL     1      35.403 -18.035 -23.497  0.00  0.00    +0.055 C 
ATOM     25  C   UNL     1      34.540 -15.918 -25.062  0.00  0.00    +0.070 C 
ATOM     26  C   UNL     1      35.064 -15.678 -23.792  0.00  0.00    +0.143 C 
ATOM     27  C   UNL     1      35.498 -16.744 -23.003  0.00  0.00    +0.052 C 
ATOM     28  C   UNL     1      34.885 -18.290 -24.757  0.00  0.00    +0.015 C 
ATOM     29  C   UNL     1      34.450 -17.224 -25.544  0.00  0.00    +0.007 C 
BRANCH  25  32
ATOM     30  O   UNL     1      33.872 -15.127 -27.200  0.00  0.00    -0.431 OA
ATOM     31  N   UNL     1      33.394 -12.940 -26.874  0.00  0.00    -0.203 NA
ATOM     32  C   UNL     1      34.084 -14.828 -25.894  0.00  0.00    +0.169 C 
ATOM     33  C   UNL     1      33.798 -13.509 -25.694  0.00  0.00    +0.140 C 
ATOM     34  C   UNL     1      33.457 -13.941 -27.724  0.00  0.00    +0.285 C 
ENDBRANCH  25  32
BRANCH  26  35
ATOM     35  O   UNL     1      35.163 -14.412 -23.296  0.00  0.00    -0.471 OA
ATOM     36  C   UNL     1      34.550 -14.162 -22.033  0.00  0.00    +0.252 C 
ENDBRANCH  26  35
ENDBRANCH   3  24
TORSDOF 8
ENDMDL
MODEL 7
REMARK VINA RESULT:     -10.6      2.495     11.785
REMARK  Name = 153241
REMARK  8 active torsions:
REMARK  status: ('A' for Active; 'I' for Inactive)
REMARK    1  A    between atoms: N_2  and  C_9
REMARK    2  A    between atoms: N_3  and  C_24
REMARK    3  A    between atoms: C_7  and  C_13
REMARK    4  A    between atoms: C_13  and  N_15
REMARK    5  A    between atoms: C_16  and  O_18
REMARK    6  A    between atoms: O_18  and  C_20
REMARK    7  A    between atoms: C_25  and  C_32
REMARK    8  A    between atoms: C_26  and  O_35
REMARK                            x       y       z     vdW  Elec       q    Type
REMARK                         _______ _______ _______ _____ _____    ______ ____
ROOT
ATOM      1  O   UNL     1      33.826 -19.909 -20.901  0.00  0.00    -0.252 OA
ATOM      2  N   UNL     1      35.697 -19.833 -22.310  0.00  0.00    -0.268 N 
ATOM      3  N   UNL     1      35.750 -21.145 -20.410  0.00  0.00    -0.268 N 
ATOM      4  C   UNL     1      34.969 -20.262 -21.172  0.00  0.00    +0.308 C 
ATOM      5  H   UNL     1      36.607 -20.199 -22.398  0.00  0.00    +0.156 HD
ATOM      6  H   UNL     1      36.652 -21.333 -20.756  0.00  0.00    +0.156 HD
ENDROOT
BRANCH   2   9
ATOM      7  C   UNL     1      35.075 -16.723 -24.185  0.00  0.00    -0.001 C 
ATOM      8  C   UNL     1      35.478 -17.585 -23.171  0.00  0.00    +0.012 C 
ATOM      9  C   UNL     1      35.296 -18.959 -23.322  0.00  0.00    +0.051 C 
ATOM     10  C   UNL     1      34.494 -17.217 -25.348  0.00  0.00    -0.003 C 
ATOM     11  C   UNL     1      34.714 -19.463 -24.486  0.00  0.00    +0.015 C 
ATOM     12  C   UNL     1      34.314 -18.592 -25.498  0.00  0.00    +0.001 C 
BRANCH   7  13
ATOM     13  C   UNL     1      35.269 -15.244 -24.023  0.00  0.00    +0.119 C 
BRANCH  13  15
ATOM     14  O   UNL     1      33.812 -12.840 -24.756  0.00  0.00    -0.226 OA
ATOM     15  N   UNL     1      34.167 -14.628 -23.321  0.00  0.00    -0.267 N 
ATOM     16  C   UNL     1      33.534 -13.479 -23.748  0.00  0.00    +0.402 C 
ATOM     17  H   UNL     1      33.851 -15.051 -22.490  0.00  0.00    +0.153 HD
BRANCH  16  18
ATOM     18  O   UNL     1      32.532 -13.145 -22.874  0.00  0.00    -0.436 OA
BRANCH  18  20
ATOM     19  O   UNL     1      30.771 -11.717 -20.858  0.00  0.00    -0.350 OA
ATOM     20  C   UNL     1      32.852 -12.151 -21.905  0.00  0.00    +0.202 C 
ATOM     21  C   UNL     1      32.354 -10.803 -22.365  0.00  0.00    +0.078 C 
ATOM     22  C   UNL     1      32.024 -12.393 -20.659  0.00  0.00    +0.186 C 
ATOM     23  C   UNL     1      30.882 -10.869 -22.008  0.00  0.00    +0.146 C 
ENDBRANCH  18  20
ENDBRANCH  16  18
ENDBRANCH  13  15
ENDBRANCH   7  13
ENDBRANCH   2   9
BRANCH   3  24
ATOM     24  C   UNL     1      35.400 -21.797 -19.204  0.00  0.00    +0.055 C 
ATOM     25  C   UNL     1      34.716 -23.074 -16.843  0.00  0.00    +0.070 C 
ATOM     26  C   UNL     1      35.942 -22.418 -16.951  0.00  0.00    +0.143 C 
ATOM     27  C   UNL     1      36.287 -21.775 -18.140  0.00  0.00    +0.052 C 
ATOM     28  C   UNL     1      34.179 -22.444 -19.113  0.00  0.00    +0.015 C 
ATOM     29  C   UNL     1      33.835 -23.087 -17.924  0.00  0.00    +0.007 C 
BRANCH  25  32
ATOM     30  O   UNL     1      33.192 -23.321 -15.039  0.00  0.00    -0.431 OA
ATOM     31  N   UNL     1      34.064 -24.985 -13.780  0.00  0.00    -0.203 NA
ATOM     32  C   UNL     1      34.341 -23.746 -15.621  0.00  0.00    +0.169 C 
ATOM     33  C   UNL     1      34.870 -24.750 -14.863  0.00  0.00    +0.140 C 
ATOM     34  C   UNL     1      33.093 -24.114 -13.937  0.00  0.00    +0.285 C 
ENDBRANCH  25  32
BRANCH  26  35
ATOM     35  O   UNL     1      36.823 -22.389 -15.910  0.00  0.00    -0.471 OA
ATOM     36  C   UNL     1      38.007 -23.172 -16.044  0.00  0.00    +0.252 C 
ENDBRANCH  26  35
ENDBRANCH   3  24
TORSDOF 8
ENDMDL
MODEL 8
REMARK VINA RESULT:     -10.6      1.203      1.690
REMARK  Name = 153241
REMARK  8 active torsions:
REMARK  status: ('A' for Active; 'I' for Inactive)
REMARK    1  A    between atoms: N_2  and  C_9
REMARK    2  A    between atoms: N_3  and  C_24
REMARK    3  A    between atoms: C_7  and  C_13
REMARK    4  A    between atoms: C_13  and  N_15
REMARK    5  A    between atoms: C_16  and  O_18
REMARK    6  A    between atoms: O_18  and  C_20
REMARK    7  A    between atoms: C_25  and  C_32
REMARK    8  A    between atoms: C_26  and  O_35
REMARK                            x       y       z     vdW  Elec       q    Type
REMARK                         _______ _______ _______ _____ _____    ______ ____
ROOT
ATOM      1  O   UNL     1      35.222 -18.617 -20.653  0.00  0.00    -0.252 OA
ATOM      2  N   UNL     1      35.808 -20.851 -21.048  0.00  0.00    -0.268 N 
ATOM      3  N   UNL     1      35.374 -19.451 -22.832  0.00  0.00    -0.268 N 
ATOM      4  C   UNL     1      35.443 -19.537 -21.433  0.00  0.00    +0.308 C 
ATOM      5  H   UNL     1      35.954 -21.487 -21.785  0.00  0.00    +0.156 HD
ATOM      6  H   UNL     1      35.580 -20.277 -23.327  0.00  0.00    +0.156 HD
ENDROOT
BRANCH   2   9
ATOM      7  C   UNL     1      35.184 -22.655 -17.897  0.00  0.00    -0.001 C 
ATOM      8  C   UNL     1      34.995 -22.149 -19.178  0.00  0.00    +0.012 C 
ATOM      9  C   UNL     1      35.988 -21.363 -19.762  0.00  0.00    +0.051 C 
ATOM     10  C   UNL     1      36.353 -22.387 -17.193  0.00  0.00    -0.003 C 
ATOM     11  C   UNL     1      37.164 -21.090 -19.063  0.00  0.00    +0.015 C 
ATOM     12  C   UNL     1      37.346 -21.602 -17.779  0.00  0.00    +0.001 C 
BRANCH   7  13
ATOM     13  C   UNL     1      34.115 -23.499 -17.267  0.00  0.00    +0.119 C 
BRANCH  13  15
ATOM     14  O   UNL     1      35.700 -25.621 -16.075  0.00  0.00    -0.226 OA
ATOM     15  N   UNL     1      34.368 -23.733 -15.864  0.00  0.00    -0.267 N 
ATOM     16  C   UNL     1      35.139 -24.774 -15.389  0.00  0.00    +0.402 C 
ATOM     17  H   UNL     1      33.968 -23.116 -15.210  0.00  0.00    +0.153 HD
BRANCH  16  18
ATOM     18  O   UNL     1      35.191 -24.731 -14.020  0.00  0.00    -0.436 OA
BRANCH  18  20
ATOM     19  O   UNL     1      36.469 -25.797 -11.483  0.00  0.00    -0.350 OA
ATOM     20  C   UNL     1      36.471 -24.474 -13.449  0.00  0.00    +0.202 C 
ATOM     21  C   UNL     1      36.330 -23.562 -12.256  0.00  0.00    +0.078 C 
ATOM     22  C   UNL     1      36.994 -25.750 -12.821  0.00  0.00    +0.186 C 
ATOM     23  C   UNL     1      35.889 -24.524 -11.170  0.00  0.00    +0.146 C 
ENDBRANCH  18  20
ENDBRANCH  16  18
ENDBRANCH  13  15
ENDBRANCH   7  13
ENDBRANCH   2   9
BRANCH   3  24
ATOM     24  C   UNL     1      35.045 -18.322 -23.620  0.00  0.00    +0.055 C 
ATOM     25  C   UNL     1      34.400 -16.113 -25.161  0.00  0.00    +0.070 C 
ATOM     26  C   UNL     1      35.001 -15.942 -23.914  0.00  0.00    +0.143 C 
ATOM     27  C   UNL     1      35.325 -17.054 -23.137  0.00  0.00    +0.052 C 
ATOM     28  C   UNL     1      34.449 -18.509 -24.856  0.00  0.00    +0.015 C 
ATOM     29  C   UNL     1      34.124 -17.396 -25.632  0.00  0.00    +0.007 C 
BRANCH  25  32
ATOM     30  O   UNL     1      33.905 -15.220 -27.306  0.00  0.00    -0.431 OA
ATOM     31  N   UNL     1      33.530 -13.021 -26.934  0.00  0.00    -0.203 NA
ATOM     32  C   UNL     1      34.056 -14.974 -25.981  0.00  0.00    +0.169 C 
ATOM     33  C   UNL     1      33.832 -13.648 -25.753  0.00  0.00    +0.140 C 
ATOM     34  C   UNL     1      33.589 -13.996 -27.812  0.00  0.00    +0.285 C 
ENDBRANCH  25  32
BRANCH  26  35
ATOM     35  O   UNL     1      35.281 -14.699 -23.429  0.00  0.00    -0.471 OA
ATOM     36  C   UNL     1      34.606 -14.301 -22.239  0.00  0.00    +0.252 C 
ENDBRANCH  26  35
ENDBRANCH   3  24
TORSDOF 8
ENDMDL
MODEL 9
REMARK VINA RESULT:     -10.5      4.051      7.083
REMARK  Name = 153241
REMARK  8 active torsions:
REMARK  status: ('A' for Active; 'I' for Inactive)
REMARK    1  A    between atoms: N_2  and  C_9
REMARK    2  A    between atoms: N_3  and  C_24
REMARK    3  A    between atoms: C_7  and  C_13
REMARK    4  A    between atoms: C_13  and  N_15
REMARK    5  A    between atoms: C_16  and  O_18
REMARK    6  A    between atoms: O_18  and  C_20
REMARK    7  A    between atoms: C_25  and  C_32
REMARK    8  A    between atoms: C_26  and  O_35
REMARK                            x       y       z     vdW  Elec       q    Type
REMARK                         _______ _______ _______ _____ _____    ______ ____
ROOT
ATOM      1  O   UNL     1      33.783 -14.623 -22.605  0.00  0.00    -0.252 OA
ATOM      2  N   UNL     1      34.911 -15.418 -24.499  0.00  0.00    -0.268 N 
ATOM      3  N   UNL     1      34.351 -13.182 -24.357  0.00  0.00    -0.268 N 
ATOM      4  C   UNL     1      34.292 -14.422 -23.703  0.00  0.00    +0.308 C 
ATOM      5  H   UNL     1      35.277 -15.110 -25.360  0.00  0.00    +0.156 HD
ATOM      6  H   UNL     1      34.793 -13.177 -25.236  0.00  0.00    +0.156 HD
ENDROOT
BRANCH   2   9
ATOM      7  C   UNL     1      35.936 -18.539 -22.832  0.00  0.00    -0.001 C 
ATOM      8  C   UNL     1      35.783 -17.182 -23.097  0.00  0.00    +0.012 C 
ATOM      9  C   UNL     1      35.071 -16.777 -24.225  0.00  0.00    +0.051 C 
ATOM     10  C   UNL     1      35.387 -19.494 -23.679  0.00  0.00    -0.003 C 
ATOM     11  C   UNL     1      34.516 -17.730 -25.081  0.00  0.00    +0.015 C 
ATOM     12  C   UNL     1      34.674 -19.088 -24.807  0.00  0.00    +0.001 C 
BRANCH   7  13
ATOM     13  C   UNL     1      36.704 -18.976 -21.619  0.00  0.00    +0.119 C 
BRANCH  13  15
ATOM     14  O   UNL     1      37.314 -21.493 -20.305  0.00  0.00    -0.226 OA
ATOM     15  N   UNL     1      35.877 -19.715 -20.693  0.00  0.00    -0.267 N 
ATOM     16  C   UNL     1      36.253 -20.910 -20.116  0.00  0.00    +0.402 C 
ATOM     17  H   UNL     1      34.994 -19.345 -20.462  0.00  0.00    +0.153 HD
BRANCH  16  18
ATOM     18  O   UNL     1      35.260 -21.363 -19.288  0.00  0.00    -0.436 OA
BRANCH  18  20
ATOM     19  O   UNL     1      32.457 -22.024 -18.330  0.00  0.00    -0.350 OA
ATOM     20  C   UNL     1      34.225 -22.121 -19.906  0.00  0.00    +0.202 C 
ATOM     21  C   UNL     1      34.102 -23.468 -19.238  0.00  0.00    +0.078 C 
ATOM     22  C   UNL     1      32.889 -21.480 -19.590  0.00  0.00    +0.186 C 
ATOM     23  C   UNL     1      33.300 -23.135 -17.996  0.00  0.00    +0.146 C 
ENDBRANCH  18  20
ENDBRANCH  16  18
ENDBRANCH  13  15
ENDBRANCH   7  13
ENDBRANCH   2   9
BRANCH   3  24
ATOM     24  C   UNL     1      33.851 -11.936 -23.908  0.00  0.00    +0.055 C 
ATOM     25  C   UNL     1      32.873  -9.498 -23.029  0.00  0.00    +0.070 C 
ATOM     26  C   UNL     1      32.288 -10.684 -22.586  0.00  0.00    +0.143 C 
ATOM     27  C   UNL     1      32.780 -11.913 -23.029  0.00  0.00    +0.052 C 
ATOM     28  C   UNL     1      34.443 -10.767 -24.356  0.00  0.00    +0.015 C 
ATOM     29  C   UNL     1      33.950  -9.540 -23.914  0.00  0.00    +0.007 C 
BRANCH  25  32
ATOM     30  O   UNL     1      32.900  -7.750 -21.421  0.00  0.00    -0.431 OA
ATOM     31  N   UNL     1      31.407  -6.239 -22.197  0.00  0.00    -0.203 NA
ATOM     32  C   UNL     1      32.378  -8.216 -22.583  0.00  0.00    +0.169 C 
ATOM     33  C   UNL     1      31.476  -7.308 -23.053  0.00  0.00    +0.140 C 
ATOM     34  C   UNL     1      32.267  -6.556 -21.255  0.00  0.00    +0.285 C 
ENDBRANCH  25  32
BRANCH  26  35
ATOM     35  O   UNL     1      31.234 -10.673 -21.722  0.00  0.00    -0.471 OA
ATOM     36  C   UNL     1      31.253 -11.631 -20.666  0.00  0.00    +0.252 C 
ENDBRANCH  26  35
ENDBRANCH   3  24
TORSDOF 8
ENDMDL
