MODEL 1
REMARK VINA RESULT:     -10.9      0.000      0.000
REMARK  Name = 1540
REMARK  4 active torsions:
REMARK  status: ('A' for Active; 'I' for Inactive)
REMARK    1  A    between atoms: N_5  and  C_14
REMARK    2  A    between atoms: C_6  and  O_20
REMARK    3  A    between atoms: O_20  and  C_21
REMARK    4  A    between atoms: C_21  and  C_22
REMARK                            x       y       z     vdW  Elec       q    Type
REMARK                         _______ _______ _______ _____ _____    ______ ____
ROOT
ATOM      1  N   UNL     1      34.931 -16.055 -23.357  0.00  0.00    -0.293 NA
ATOM      2  N   UNL     1      33.743 -13.295 -25.478  0.00  0.00    -0.266 NA
ATOM      3  N   UNL     1      34.556 -16.677 -25.686  0.00  0.00    -0.316 NA
ATOM      4  N   UNL     1      33.771 -14.845 -27.079  0.00  0.00    -0.296 N 
ATOM      5  N   UNL     1      35.313 -18.237 -24.116  0.00  0.00    -0.238 N 
ATOM      6  C   UNL     1      34.553 -14.779 -23.592  0.00  0.00    +0.288 C 
ATOM      7  C   UNL     1      34.173 -14.443 -24.875  0.00  0.00    +0.215 C 
ATOM      8  C   UNL     1      34.182 -15.391 -25.890  0.00  0.00    +0.196 C 
ATOM      9  C   UNL     1      34.910 -16.913 -24.404  0.00  0.00    +0.207 C 
ATOM     10  C   UNL     1      33.515 -13.587 -26.797  0.00  0.00    +0.164 C 
ATOM     11  H   UNL     1      33.620 -12.420 -25.044  0.00  0.00    +0.126 HD
ATOM     12  H   UNL     1      33.685 -15.297 -27.950  0.00  0.00    +0.150 HD
ATOM     13  H   UNL     1      35.287 -18.839 -24.895  0.00  0.00    +0.166 HD
ENDROOT
BRANCH   5  14
ATOM     14  C   UNL     1      35.742 -18.864 -22.932  0.00  0.00    +0.058 C 
ATOM     15  C   UNL     1      34.892 -19.739 -22.253  0.00  0.00    +0.015 C 
ATOM     16  C   UNL     1      37.022 -18.613 -22.430  0.00  0.00    +0.015 C 
ATOM     17  C   UNL     1      35.318 -20.360 -21.078  0.00  0.00    +0.001 C 
ATOM     18  C   UNL     1      37.448 -19.235 -21.255  0.00  0.00    +0.001 C 
ATOM     19  C   UNL     1      36.596 -20.107 -20.580  0.00  0.00    +0.000 C 
ENDBRANCH   5  14
BRANCH   6  20
ATOM     20  O   UNL     1      34.563 -13.882 -22.552  0.00  0.00    -0.453 OA
BRANCH  20  21
ATOM     21  C   UNL     1      33.671 -14.131 -21.481  0.00  0.00    +0.208 C 
BRANCH  21  22
ATOM     22  C   UNL     1      33.015 -12.811 -21.082  0.00  0.00    +0.044 C 
ATOM     23  C   UNL     1      32.052 -12.331 -22.177  0.00  0.00    +0.004 C 
ATOM     24  C   UNL     1      32.287 -12.951 -19.738  0.00  0.00    +0.004 C 
ATOM     25  C   UNL     1      31.343 -11.039 -21.778  0.00  0.00    +0.000 C 
ATOM     26  C   UNL     1      31.577 -11.659 -19.344  0.00  0.00    +0.000 C 
ATOM     27  C   UNL     1      30.628 -11.181 -20.438  0.00  0.00    +0.000 C 
ENDBRANCH  21  22
ENDBRANCH  20  21
ENDBRANCH   6  20
TORSDOF 4
ENDMDL
MODEL 2
REMARK VINA RESULT:     -10.7      7.990     11.678
REMARK  Name = 1540
REMARK  4 active torsions:
REMARK  status: ('A' for Active; 'I' for Inactive)
REMARK    1  A    between atoms: N_5  and  C_14
REMARK    2  A    between atoms: C_6  and  O_20
REMARK    3  A    between atoms: O_20  and  C_21
REMARK    4  A    between atoms: C_21  and  C_22
REMARK                            x       y       z     vdW  Elec       q    Type
REMARK                         _______ _______ _______ _____ _____    ______ ____
ROOT
ATOM      1  N   UNL     1      34.019 -23.663 -15.878  0.00  0.00    -0.293 NA
ATOM      2  N   UNL     1      37.695 -23.705 -15.818  0.00  0.00    -0.266 NA
ATOM      3  N   UNL     1      34.972 -24.663 -13.868  0.00  0.00    -0.316 NA
ATOM      4  N   UNL     1      37.403 -24.686 -13.838  0.00  0.00    -0.296 N 
ATOM      5  N   UNL     1      32.657 -24.506 -14.169  0.00  0.00    -0.238 N 
ATOM      6  C   UNL     1      35.245 -23.414 -16.388  0.00  0.00    +0.288 C 
ATOM      7  C   UNL     1      36.344 -23.788 -15.642  0.00  0.00    +0.215 C 
ATOM      8  C   UNL     1      36.187 -24.400 -14.405  0.00  0.00    +0.196 C 
ATOM      9  C   UNL     1      33.958 -24.264 -14.666  0.00  0.00    +0.207 C 
ATOM     10  C   UNL     1      38.287 -24.256 -14.712  0.00  0.00    +0.164 C 
ATOM     11  H   UNL     1      38.160 -23.321 -16.597  0.00  0.00    +0.126 HD
ATOM     12  H   UNL     1      37.575 -25.118 -12.970  0.00  0.00    +0.150 HD
ATOM     13  H   UNL     1      32.644 -24.943 -13.288  0.00  0.00    +0.166 HD
ENDROOT
BRANCH   5  14
ATOM     14  C   UNL     1      31.377 -24.244 -14.690  0.00  0.00    +0.058 C 
ATOM     15  C   UNL     1      30.511 -25.299 -14.986  0.00  0.00    +0.015 C 
ATOM     16  C   UNL     1      30.966 -22.927 -14.913  0.00  0.00    +0.015 C 
ATOM     17  C   UNL     1      29.242 -25.039 -15.503  0.00  0.00    +0.001 C 
ATOM     18  C   UNL     1      29.696 -22.669 -15.430  0.00  0.00    +0.001 C 
ATOM     19  C   UNL     1      28.834 -23.724 -15.725  0.00  0.00    +0.000 C 
ENDBRANCH   5  14
BRANCH   6  20
ATOM     20  O   UNL     1      35.342 -22.806 -17.616  0.00  0.00    -0.453 OA
BRANCH  20  21
ATOM     21  C   UNL     1      34.186 -22.819 -18.433  0.00  0.00    +0.208 C 
BRANCH  21  22
ATOM     22  C   UNL     1      34.498 -22.067 -19.725  0.00  0.00    +0.044 C 
ATOM     23  C   UNL     1      33.390 -21.054 -20.043  0.00  0.00    +0.004 C 
ATOM     24  C   UNL     1      35.864 -21.373 -19.631  0.00  0.00    +0.004 C 
ATOM     25  C   UNL     1      33.706 -20.251 -21.303  0.00  0.00    +0.000 C 
ATOM     26  C   UNL     1      36.175 -20.569 -20.891  0.00  0.00    +0.000 C 
ATOM     27  C   UNL     1      35.067 -19.570 -21.209  0.00  0.00    +0.000 C 
ENDBRANCH  21  22
ENDBRANCH  20  21
ENDBRANCH   6  20
TORSDOF 4
ENDMDL
MODEL 3
REMARK VINA RESULT:     -10.6      7.634     10.941
REMARK  Name = 1540
REMARK  4 active torsions:
REMARK  status: ('A' for Active; 'I' for Inactive)
REMARK    1  A    between atoms: N_5  and  C_14
REMARK    2  A    between atoms: C_6  and  O_20
REMARK    3  A    between atoms: O_20  and  C_21
REMARK    4  A    between atoms: C_21  and  C_22
REMARK                            x       y       z     vdW  Elec       q    Type
REMARK                         _______ _______ _______ _____ _____    ______ ____
ROOT
ATOM      1  N   UNL     1      33.361 -23.560 -16.232  0.00  0.00    -0.293 NA
ATOM      2  N   UNL     1      29.949 -22.671 -17.273  0.00  0.00    -0.266 NA
ATOM      3  N   UNL     1      31.641 -24.125 -14.596  0.00  0.00    -0.316 NA
ATOM      4  N   UNL     1      29.389 -23.533 -15.295  0.00  0.00    -0.296 N 
ATOM      5  N   UNL     1      33.900 -24.580 -14.193  0.00  0.00    -0.238 N 
ATOM      6  C   UNL     1      32.446 -23.052 -17.085  0.00  0.00    +0.288 C 
ATOM      7  C   UNL     1      31.120 -23.077 -16.701  0.00  0.00    +0.215 C 
ATOM      8  C   UNL     1      30.747 -23.609 -15.474  0.00  0.00    +0.196 C 
ATOM      9  C   UNL     1      32.910 -24.058 -15.056  0.00  0.00    +0.207 C 
ATOM     10  C   UNL     1      28.940 -22.965 -16.393  0.00  0.00    +0.164 C 
ATOM     11  H   UNL     1      29.847 -22.245 -18.155  0.00  0.00    +0.126 HD
ATOM     12  H   UNL     1      28.867 -23.836 -14.517  0.00  0.00    +0.150 HD
ATOM     13  H   UNL     1      33.543 -24.935 -13.348  0.00  0.00    +0.166 HD
ENDROOT
BRANCH   5  14
ATOM     14  C   UNL     1      35.298 -24.689 -14.307  0.00  0.00    +0.058 C 
ATOM     15  C   UNL     1      36.129 -23.793 -13.631  0.00  0.00    +0.015 C 
ATOM     16  C   UNL     1      35.861 -25.696 -15.096  0.00  0.00    +0.015 C 
ATOM     17  C   UNL     1      37.515 -23.902 -13.745  0.00  0.00    +0.001 C 
ATOM     18  C   UNL     1      37.248 -25.804 -15.208  0.00  0.00    +0.001 C 
ATOM     19  C   UNL     1      38.074 -24.907 -14.534  0.00  0.00    +0.000 C 
ENDBRANCH   5  14
BRANCH   6  20
ATOM     20  O   UNL     1      32.870 -22.538 -18.285  0.00  0.00    -0.453 OA
BRANCH  20  21
ATOM     21  C   UNL     1      34.240 -22.698 -18.605  0.00  0.00    +0.208 C 
BRANCH  21  22
ATOM     22  C   UNL     1      34.533 -21.916 -19.883  0.00  0.00    +0.044 C 
ATOM     23  C   UNL     1      33.413 -20.907 -20.170  0.00  0.00    +0.004 C 
ATOM     24  C   UNL     1      35.893 -21.210 -19.786  0.00  0.00    +0.004 C 
ATOM     25  C   UNL     1      33.710 -20.074 -21.415  0.00  0.00    +0.000 C 
ATOM     26  C   UNL     1      36.185 -20.377 -21.031  0.00  0.00    +0.000 C 
ATOM     27  C   UNL     1      35.066 -19.382 -21.318  0.00  0.00    +0.000 C 
ENDBRANCH  21  22
ENDBRANCH  20  21
ENDBRANCH   6  20
TORSDOF 4
ENDMDL
MODEL 4
REMARK VINA RESULT:     -10.5      7.894     12.395
REMARK  Name = 1540
REMARK  4 active torsions:
REMARK  status: ('A' for Active; 'I' for Inactive)
REMARK    1  A    between atoms: N_5  and  C_14
REMARK    2  A    between atoms: C_6  and  O_20
REMARK    3  A    between atoms: O_20  and  C_21
REMARK    4  A    between atoms: C_21  and  C_22
REMARK                            x       y       z     vdW  Elec       q    Type
REMARK                         _______ _______ _______ _____ _____    ______ ____
ROOT
ATOM      1  N   UNL     1      33.875 -23.027 -16.578  0.00  0.00    -0.293 NA
ATOM      2  N   UNL     1      32.489 -24.731 -13.629  0.00  0.00    -0.266 NA
ATOM      3  N   UNL     1      31.506 -23.578 -16.767  0.00  0.00    -0.316 NA
ATOM      4  N   UNL     1      30.600 -24.704 -14.811  0.00  0.00    -0.296 N 
ATOM      5  N   UNL     1      32.644 -22.490 -18.497  0.00  0.00    -0.238 N 
ATOM      6  C   UNL     1      33.947 -23.565 -15.341  0.00  0.00    +0.288 C 
ATOM      7  C   UNL     1      32.799 -24.115 -14.808  0.00  0.00    +0.215 C 
ATOM      8  C   UNL     1      31.610 -24.110 -15.525  0.00  0.00    +0.196 C 
ATOM      9  C   UNL     1      32.676 -23.065 -17.206  0.00  0.00    +0.207 C 
ATOM     10  C   UNL     1      31.161 -25.065 -13.678  0.00  0.00    +0.164 C 
ATOM     11  H   UNL     1      33.106 -24.902 -12.881  0.00  0.00    +0.126 HD
ATOM     12  H   UNL     1      29.663 -24.832 -15.088  0.00  0.00    +0.150 HD
ATOM     13  H   UNL     1      31.761 -22.532 -18.929  0.00  0.00    +0.166 HD
ENDROOT
BRANCH   5  14
ATOM     14  C   UNL     1      33.630 -21.871 -19.286  0.00  0.00    +0.058 C 
ATOM     15  C   UNL     1      33.282 -20.843 -20.165  0.00  0.00    +0.015 C 
ATOM     16  C   UNL     1      34.963 -22.280 -19.193  0.00  0.00    +0.015 C 
ATOM     17  C   UNL     1      34.260 -20.229 -20.948  0.00  0.00    +0.001 C 
ATOM     18  C   UNL     1      35.940 -21.665 -19.976  0.00  0.00    +0.001 C 
ATOM     19  C   UNL     1      35.589 -20.640 -20.853  0.00  0.00    +0.000 C 
ENDBRANCH   5  14
BRANCH   6  20
ATOM     20  O   UNL     1      35.148 -23.543 -14.677  0.00  0.00    -0.453 OA
BRANCH  20  21
ATOM     21  C   UNL     1      36.313 -23.360 -15.460  0.00  0.00    +0.208 C 
BRANCH  21  22
ATOM     22  C   UNL     1      37.507 -23.917 -14.689  0.00  0.00    +0.044 C 
ATOM     23  C   UNL     1      37.266 -23.828 -13.176  0.00  0.00    +0.004 C 
ATOM     24  C   UNL     1      37.800 -25.363 -15.113  0.00  0.00    +0.004 C 
ATOM     25  C   UNL     1      38.424 -24.429 -12.384  0.00  0.00    +0.000 C 
ATOM     26  C   UNL     1      38.957 -25.960 -14.316  0.00  0.00    +0.000 C 
ATOM     27  C   UNL     1      38.716 -25.863 -12.813  0.00  0.00    +0.000 C 
ENDBRANCH  21  22
ENDBRANCH  20  21
ENDBRANCH   6  20
TORSDOF 4
ENDMDL
MODEL 5
REMARK VINA RESULT:     -10.4      7.855     11.302
REMARK  Name = 1540
REMARK  4 active torsions:
REMARK  status: ('A' for Active; 'I' for Inactive)
REMARK    1  A    between atoms: N_5  and  C_14
REMARK    2  A    between atoms: C_6  and  O_20
REMARK    3  A    between atoms: O_20  and  C_21
REMARK    4  A    between atoms: C_21  and  C_22
REMARK                            x       y       z     vdW  Elec       q    Type
REMARK                         _______ _______ _______ _____ _____    ______ ____
ROOT
ATOM      1  N   UNL     1      34.518 -24.169 -15.828  0.00  0.00    -0.293 NA
ATOM      2  N   UNL     1      31.241 -23.005 -17.024  0.00  0.00    -0.266 NA
ATOM      3  N   UNL     1      32.807 -24.055 -14.093  0.00  0.00    -0.316 NA
ATOM      4  N   UNL     1      30.644 -23.285 -14.895  0.00  0.00    -0.296 N 
ATOM      5  N   UNL     1      34.983 -24.764 -13.611  0.00  0.00    -0.238 N 
ATOM      6  C   UNL     1      33.655 -23.731 -16.770  0.00  0.00    +0.288 C 
ATOM      7  C   UNL     1      32.360 -23.452 -16.381  0.00  0.00    +0.215 C 
ATOM      8  C   UNL     1      31.964 -23.618 -15.061  0.00  0.00    +0.196 C 
ATOM      9  C   UNL     1      34.048 -24.303 -14.565  0.00  0.00    +0.207 C 
ATOM     10  C   UNL     1      30.240 -22.921 -16.093  0.00  0.00    +0.164 C 
ATOM     11  H   UNL     1      31.168 -22.784 -17.981  0.00  0.00    +0.126 HD
ATOM     12  H   UNL     1      30.117 -23.311 -14.064  0.00  0.00    +0.150 HD
ATOM     13  H   UNL     1      34.614 -24.851 -12.703  0.00  0.00    +0.166 HD
ENDROOT
BRANCH   5  14
ATOM     14  C   UNL     1      36.340 -25.121 -13.706  0.00  0.00    +0.058 C 
ATOM     15  C   UNL     1      36.755 -26.054 -14.659  0.00  0.00    +0.015 C 
ATOM     16  C   UNL     1      37.280 -24.543 -12.848  0.00  0.00    +0.015 C 
ATOM     17  C   UNL     1      38.101 -26.409 -14.752  0.00  0.00    +0.001 C 
ATOM     18  C   UNL     1      38.626 -24.898 -12.942  0.00  0.00    +0.001 C 
ATOM     19  C   UNL     1      39.036 -25.830 -13.894  0.00  0.00    +0.000 C 
ENDBRANCH   5  14
BRANCH   6  20
ATOM     20  O   UNL     1      34.099 -23.584 -18.061  0.00  0.00    -0.453 OA
BRANCH  20  21
ATOM     21  C   UNL     1      35.150 -22.660 -18.277  0.00  0.00    +0.208 C 
BRANCH  21  22
ATOM     22  C   UNL     1      34.931 -21.987 -19.631  0.00  0.00    +0.044 C 
ATOM     23  C   UNL     1      33.571 -21.277 -19.670  0.00  0.00    +0.004 C 
ATOM     24  C   UNL     1      36.070 -21.005 -19.938  0.00  0.00    +0.004 C 
ATOM     25  C   UNL     1      33.352 -20.552 -20.995  0.00  0.00    +0.000 C 
ATOM     26  C   UNL     1      35.846 -20.279 -21.263  0.00  0.00    +0.000 C 
ATOM     27  C   UNL     1      34.489 -19.583 -21.301  0.00  0.00    +0.000 C 
ENDBRANCH  21  22
ENDBRANCH  20  21
ENDBRANCH   6  20
TORSDOF 4
ENDMDL
MODEL 6
REMARK VINA RESULT:     -10.1      8.536     12.243
REMARK  Name = 1540
REMARK  4 active torsions:
REMARK  status: ('A' for Active; 'I' for Inactive)
REMARK    1  A    between atoms: N_5  and  C_14
REMARK    2  A    between atoms: C_6  and  O_20
REMARK    3  A    between atoms: O_20  and  C_21
REMARK    4  A    between atoms: C_21  and  C_22
REMARK                            x       y       z     vdW  Elec       q    Type
REMARK                         _______ _______ _______ _____ _____    ______ ____
ROOT
ATOM      1  N   UNL     1      35.553 -23.819 -15.929  0.00  0.00    -0.293 NA
ATOM      2  N   UNL     1      36.538 -25.566 -12.847  0.00  0.00    -0.266 NA
ATOM      3  N   UNL     1      37.882 -23.477 -15.290  0.00  0.00    -0.316 NA
ATOM      4  N   UNL     1      38.523 -24.637 -13.251  0.00  0.00    -0.296 N 
ATOM      5  N   UNL     1      36.988 -22.483 -17.209  0.00  0.00    -0.238 N 
ATOM      6  C   UNL     1      35.331 -24.613 -14.859  0.00  0.00    +0.288 C 
ATOM      7  C   UNL     1      36.382 -24.845 -13.996  0.00  0.00    +0.215 C 
ATOM      8  C   UNL     1      37.628 -24.277 -14.227  0.00  0.00    +0.196 C 
ATOM      9  C   UNL     1      36.798 -23.307 -16.077  0.00  0.00    +0.207 C 
ATOM     10  C   UNL     1      37.837 -25.410 -12.439  0.00  0.00    +0.164 C 
ATOM     11  H   UNL     1      35.845 -26.100 -12.394  0.00  0.00    +0.126 HD
ATOM     12  H   UNL     1      39.469 -24.373 -13.176  0.00  0.00    +0.150 HD
ATOM     13  H   UNL     1      37.901 -22.125 -17.291  0.00  0.00    +0.166 HD
ENDROOT
BRANCH   5  14
ATOM     14  C   UNL     1      36.125 -22.073 -18.242  0.00  0.00    +0.058 C 
ATOM     15  C   UNL     1      34.786 -22.468 -18.236  0.00  0.00    +0.015 C 
ATOM     16  C   UNL     1      36.605 -21.267 -19.279  0.00  0.00    +0.015 C 
ATOM     17  C   UNL     1      33.931 -22.062 -19.261  0.00  0.00    +0.001 C 
ATOM     18  C   UNL     1      35.748 -20.861 -20.302  0.00  0.00    +0.001 C 
ATOM     19  C   UNL     1      34.413 -21.258 -20.294  0.00  0.00    +0.000 C 
ENDBRANCH   5  14
BRANCH   6  20
ATOM     20  O   UNL     1      34.079 -25.148 -14.678  0.00  0.00    -0.453 OA
BRANCH  20  21
ATOM     21  C   UNL     1      33.076 -24.283 -14.177  0.00  0.00    +0.208 C 
BRANCH  21  22
ATOM     22  C   UNL     1      31.861 -24.367 -15.099  0.00  0.00    +0.044 C 
ATOM     23  C   UNL     1      30.657 -24.960 -14.356  0.00  0.00    +0.004 C 
ATOM     24  C   UNL     1      31.522 -22.985 -15.675  0.00  0.00    +0.004 C 
ATOM     25  C   UNL     1      29.414 -25.004 -15.241  0.00  0.00    +0.000 C 
ATOM     26  C   UNL     1      30.277 -23.032 -16.557  0.00  0.00    +0.000 C 
ATOM     27  C   UNL     1      29.085 -23.631 -15.818  0.00  0.00    +0.000 C 
ENDBRANCH  21  22
ENDBRANCH  20  21
ENDBRANCH   6  20
TORSDOF 4
ENDMDL
MODEL 7
REMARK VINA RESULT:      -9.9      7.516     11.370
REMARK  Name = 1540
REMARK  4 active torsions:
REMARK  status: ('A' for Active; 'I' for Inactive)
REMARK    1  A    between atoms: N_5  and  C_14
REMARK    2  A    between atoms: C_6  and  O_20
REMARK    3  A    between atoms: O_20  and  C_21
REMARK    4  A    between atoms: C_21  and  C_22
REMARK                            x       y       z     vdW  Elec       q    Type
REMARK                         _______ _______ _______ _____ _____    ______ ____
ROOT
ATOM      1  N   UNL     1      34.851 -22.987 -17.055  0.00  0.00    -0.293 NA
ATOM      2  N   UNL     1      35.506 -24.938 -14.008  0.00  0.00    -0.266 NA
ATOM      3  N   UNL     1      37.214 -23.170 -16.477  0.00  0.00    -0.316 NA
ATOM      4  N   UNL     1      37.636 -24.462 -14.461  0.00  0.00    -0.296 N 
ATOM      5  N   UNL     1      36.512 -21.984 -18.368  0.00  0.00    -0.238 N 
ATOM      6  C   UNL     1      34.487 -23.723 -15.983  0.00  0.00    +0.288 C 
ATOM      7  C   UNL     1      35.484 -24.189 -15.149  0.00  0.00    +0.215 C 
ATOM      8  C   UNL     1      36.818 -23.905 -15.411  0.00  0.00    +0.196 C 
ATOM      9  C   UNL     1      36.174 -22.758 -17.234  0.00  0.00    +0.207 C 
ATOM     10  C   UNL     1      36.817 -25.075 -13.634  0.00  0.00    +0.164 C 
ATOM     11  H   UNL     1      34.725 -25.312 -13.540  0.00  0.00    +0.126 HD
ATOM     12  H   UNL     1      38.618 -24.413 -14.411  0.00  0.00    +0.150 HD
ATOM     13  H   UNL     1      37.479 -21.835 -18.472  0.00  0.00    +0.166 HD
ENDROOT
BRANCH   5  14
ATOM     14  C   UNL     1      35.735 -21.384 -19.375  0.00  0.00    +0.058 C 
ATOM     15  C   UNL     1      36.335 -20.550 -20.321  0.00  0.00    +0.015 C 
ATOM     16  C   UNL     1      34.358 -21.621 -19.434  0.00  0.00    +0.015 C 
ATOM     17  C   UNL     1      35.563 -19.955 -21.319  0.00  0.00    +0.001 C 
ATOM     18  C   UNL     1      33.588 -21.026 -20.434  0.00  0.00    +0.001 C 
ATOM     19  C   UNL     1      34.190 -20.193 -21.375  0.00  0.00    +0.000 C 
ENDBRANCH   5  14
BRANCH   6  20
ATOM     20  O   UNL     1      33.153 -23.973 -15.772  0.00  0.00    -0.453 OA
BRANCH  20  21
ATOM     21  C   UNL     1      32.441 -23.036 -14.985  0.00  0.00    +0.208 C 
BRANCH  21  22
ATOM     22  C   UNL     1      30.946 -23.266 -15.195  0.00  0.00    +0.044 C 
ATOM     23  C   UNL     1      30.505 -22.751 -16.572  0.00  0.00    +0.004 C 
ATOM     24  C   UNL     1      30.597 -24.752 -15.029  0.00  0.00    +0.004 C 
ATOM     25  C   UNL     1      29.024 -23.018 -16.826  0.00  0.00    +0.000 C 
ATOM     26  C   UNL     1      29.116 -25.015 -15.287  0.00  0.00    +0.000 C 
ATOM     27  C   UNL     1      28.681 -24.494 -16.653  0.00  0.00    +0.000 C 
ENDBRANCH  21  22
ENDBRANCH  20  21
ENDBRANCH   6  20
TORSDOF 4
ENDMDL
MODEL 8
REMARK VINA RESULT:      -9.8      7.480     11.674
REMARK  Name = 1540
REMARK  4 active torsions:
REMARK  status: ('A' for Active; 'I' for Inactive)
REMARK    1  A    between atoms: N_5  and  C_14
REMARK    2  A    between atoms: C_6  and  O_20
REMARK    3  A    between atoms: O_20  and  C_21
REMARK    4  A    between atoms: C_21  and  C_22
REMARK                            x       y       z     vdW  Elec       q    Type
REMARK                         _______ _______ _______ _____ _____    ______ ____
ROOT
ATOM      1  N   UNL     1      33.960 -23.010 -17.133  0.00  0.00    -0.293 NA
ATOM      2  N   UNL     1      36.172 -21.556 -19.685  0.00  0.00    -0.266 NA
ATOM      3  N   UNL     1      32.781 -21.943 -18.983  0.00  0.00    -0.316 NA
ATOM      4  N   UNL     1      34.252 -20.985 -20.665  0.00  0.00    -0.296 N 
ATOM      5  N   UNL     1      31.620 -22.951 -17.218  0.00  0.00    -0.238 N 
ATOM      6  C   UNL     1      35.163 -22.709 -17.668  0.00  0.00    +0.288 C 
ATOM      7  C   UNL     1      35.184 -22.022 -18.865  0.00  0.00    +0.215 C 
ATOM      8  C   UNL     1      34.002 -21.656 -19.494  0.00  0.00    +0.196 C 
ATOM      9  C   UNL     1      32.858 -22.615 -17.813  0.00  0.00    +0.207 C 
ATOM     10  C   UNL     1      35.564 -20.943 -20.750  0.00  0.00    +0.164 C 
ATOM     11  H   UNL     1      37.142 -21.644 -19.539  0.00  0.00    +0.126 HD
ATOM     12  H   UNL     1      33.595 -20.618 -21.299  0.00  0.00    +0.150 HD
ATOM     13  H   UNL     1      30.838 -22.651 -17.735  0.00  0.00    +0.166 HD
ENDROOT
BRANCH   5  14
ATOM     14  C   UNL     1      31.289 -23.628 -16.032  0.00  0.00    +0.058 C 
ATOM     15  C   UNL     1      30.589 -24.836 -16.085  0.00  0.00    +0.015 C 
ATOM     16  C   UNL     1      31.659 -23.098 -14.793  0.00  0.00    +0.015 C 
ATOM     17  C   UNL     1      30.260 -25.508 -14.908  0.00  0.00    +0.001 C 
ATOM     18  C   UNL     1      31.330 -23.771 -13.616  0.00  0.00    +0.001 C 
ATOM     19  C   UNL     1      30.631 -24.975 -13.673  0.00  0.00    +0.000 C 
ENDBRANCH   5  14
BRANCH   6  20
ATOM     20  O   UNL     1      36.301 -23.094 -17.003  0.00  0.00    -0.453 OA
BRANCH  20  21
ATOM     21  C   UNL     1      36.260 -23.066 -15.589  0.00  0.00    +0.208 C 
BRANCH  21  22
ATOM     22  C   UNL     1      37.141 -24.194 -15.056  0.00  0.00    +0.044 C 
ATOM     23  C   UNL     1      37.550 -23.922 -13.602  0.00  0.00    +0.004 C 
ATOM     24  C   UNL     1      36.424 -25.546 -15.179  0.00  0.00    +0.004 C 
ATOM     25  C   UNL     1      38.387 -25.063 -13.029  0.00  0.00    +0.000 C 
ATOM     26  C   UNL     1      37.264 -26.683 -14.603  0.00  0.00    +0.000 C 
ATOM     27  C   UNL     1      37.675 -26.405 -13.161  0.00  0.00    +0.000 C 
ENDBRANCH  21  22
ENDBRANCH  20  21
ENDBRANCH   6  20
TORSDOF 4
ENDMDL
MODEL 9
REMARK VINA RESULT:      -9.8      4.663      9.521
REMARK  Name = 1540
REMARK  4 active torsions:
REMARK  status: ('A' for Active; 'I' for Inactive)
REMARK    1  A    between atoms: N_5  and  C_14
REMARK    2  A    between atoms: C_6  and  O_20
REMARK    3  A    between atoms: O_20  and  C_21
REMARK    4  A    between atoms: C_21  and  C_22
REMARK                            x       y       z     vdW  Elec       q    Type
REMARK                         _______ _______ _______ _____ _____    ______ ____
ROOT
ATOM      1  N   UNL     1      32.615  -9.136 -22.373  0.00  0.00    -0.293 NA
ATOM      2  N   UNL     1      31.837 -11.879 -20.050  0.00  0.00    -0.266 NA
ATOM      3  N   UNL     1      32.495  -8.457 -20.033  0.00  0.00    -0.316 NA
ATOM      4  N   UNL     1      31.981 -10.278 -18.506  0.00  0.00    -0.296 N 
ATOM      5  N   UNL     1      32.975  -6.914 -21.725  0.00  0.00    -0.238 N 
ATOM      6  C   UNL     1      32.334 -10.420 -22.060  0.00  0.00    +0.288 C 
ATOM      7  C   UNL     1      32.132 -10.732 -20.731  0.00  0.00    +0.215 C 
ATOM      8  C   UNL     1      32.216  -9.752 -19.751  0.00  0.00    +0.196 C 
ATOM      9  C   UNL     1      32.678  -8.246 -21.355  0.00  0.00    +0.207 C 
ATOM     10  C   UNL     1      31.757 -11.556 -18.721  0.00  0.00    +0.164 C 
ATOM     11  H   UNL     1      31.707 -12.773 -20.442  0.00  0.00    +0.126 HD
ATOM     12  H   UNL     1      31.980  -9.803 -17.643  0.00  0.00    +0.150 HD
ATOM     13  H   UNL     1      33.014  -6.290 -20.966  0.00  0.00    +0.166 HD
ENDROOT
BRANCH   5  14
ATOM     14  C   UNL     1      33.224  -6.307 -22.969  0.00  0.00    +0.058 C 
ATOM     15  C   UNL     1      34.397  -6.598 -23.669  0.00  0.00    +0.015 C 
ATOM     16  C   UNL     1      32.298  -5.411 -23.511  0.00  0.00    +0.015 C 
ATOM     17  C   UNL     1      34.644  -5.995 -24.903  0.00  0.00    +0.001 C 
ATOM     18  C   UNL     1      32.547  -4.809 -24.745  0.00  0.00    +0.001 C 
ATOM     19  C   UNL     1      33.718  -5.100 -25.440  0.00  0.00    +0.000 C 
ENDBRANCH   5  14
BRANCH   6  20
ATOM     20  O   UNL     1      32.262 -11.348 -23.069  0.00  0.00    -0.453 OA
BRANCH  20  21
ATOM     21  C   UNL     1      33.477 -11.703 -23.704  0.00  0.00    +0.208 C 
BRANCH  21  22
ATOM     22  C   UNL     1      33.563 -13.226 -23.767  0.00  0.00    +0.044 C 
ATOM     23  C   UNL     1      33.749 -13.700 -25.215  0.00  0.00    +0.004 C 
ATOM     24  C   UNL     1      34.699 -13.742 -22.873  0.00  0.00    +0.004 C 
ATOM     25  C   UNL     1      33.892 -15.217 -25.298  0.00  0.00    +0.000 C 
ATOM     26  C   UNL     1      34.841 -15.259 -22.961  0.00  0.00    +0.000 C 
ATOM     27  C   UNL     1      35.016 -15.726 -24.402  0.00  0.00    +0.000 C 
ENDBRANCH  21  22
ENDBRANCH  20  21
ENDBRANCH   6  20
TORSDOF 4
ENDMDL
