MODEL 1
REMARK VINA RESULT:     -12.1      0.000      0.000
REMARK  Name = 9823454
REMARK  7 active torsions:
REMARK  status: ('A' for Active; 'I' for Inactive)
REMARK    1  A    between atoms: C_1  and  C_4
REMARK    2  A    between atoms: C_1  and  N_8
REMARK    3  A    between atoms: C_1  and  C_23
REMARK    4  A    between atoms: N_3  and  O_6
REMARK    5  A    between atoms: N_8  and  S_10
REMARK    6  A    between atoms: S_10  and  C_13
REMARK    7  A    between atoms: C_23  and  C_24
REMARK                            x       y       z     vdW  Elec       q    Type
REMARK                         _______ _______ _______ _____ _____    ______ ____
ROOT
ATOM      1  C   UNL     1      34.799 -24.265 -13.615  0.00  0.00    +0.158 C 
ENDROOT
BRANCH   1   4
ATOM      2  O   UNL     1      35.362 -24.471 -11.273  0.00  0.00    -0.272 OA
ATOM      3  N   UNL     1      36.493 -25.773 -12.809  0.00  0.00    -0.196 N 
ATOM      4  C   UNL     1      35.564 -24.834 -12.431  0.00  0.00    +0.260 C 
ATOM      5  H   UNL     1      36.620 -26.033 -13.750  0.00  0.00    +0.182 HD
BRANCH   3   6
ATOM      6  O   UNL     1      37.248 -26.338 -11.772  0.00  0.00    -0.295 OA
ATOM      7  H   UNL     1      37.120 -25.823 -10.961  0.00  0.00    +0.241 HD
ENDBRANCH   3   6
ENDBRANCH   1   4
BRANCH   1   8
ATOM      8  N   UNL     1      35.707 -23.270 -14.235  0.00  0.00    -0.172 NA
ATOM      9  H   UNL     1      35.127 -22.487 -14.532  0.00  0.00    +0.149 HD
BRANCH   8  10
ATOM     10  S   UNL     1      36.659 -23.712 -15.570  0.00  0.00    +0.061 S 
ATOM     11  O   UNL     1      36.650 -25.156 -15.713  0.00  0.00    -0.153 OA
ATOM     12  O   UNL     1      37.918 -22.994 -15.503  0.00  0.00    -0.153 OA
BRANCH  10  13
ATOM     13  C   UNL     1      35.744 -23.024 -16.915  0.00  0.00    +0.122 C 
ATOM     14  C   UNL     1      36.397 -22.231 -17.842  0.00  0.00    +0.020 C 
ATOM     15  C   UNL     1      35.683 -21.676 -18.917  0.00  0.00    +0.001 C 
ATOM     16  C   UNL     1      34.392 -23.291 -17.017  0.00  0.00    +0.020 C 
ATOM     17  C   UNL     1      34.298 -21.938 -19.036  0.00  0.00    +0.000 C 
ATOM     18  C   UNL     1      33.668 -22.748 -18.078  0.00  0.00    +0.001 C 
ATOM     19  C   UNL     1      36.314 -20.866 -19.875  0.00  0.00    +0.000 C 
ATOM     20  C   UNL     1      33.584 -21.383 -20.110  0.00  0.00    +0.000 C 
ATOM     21  C   UNL     1      35.589 -20.322 -20.936  0.00  0.00    +0.000 C 
ATOM     22  C   UNL     1      34.227 -20.581 -21.054  0.00  0.00    +0.000 C 
ENDBRANCH  10  13
ENDBRANCH   8  10
ENDBRANCH   1   8
BRANCH   1  23
ATOM     23  C   UNL     1      33.503 -23.575 -13.159  0.00  0.00    +0.053 C 
BRANCH  23  24
ATOM     24  C   UNL     1      32.313 -23.952 -13.976  0.00  0.00    -0.020 C 
ATOM     25  C   UNL     1      31.668 -22.991 -14.756  0.00  0.00    -0.004 C 
ATOM     26  C   UNL     1      30.547 -23.332 -15.530  0.00  0.00    -0.000 C 
ATOM     27  C   UNL     1      31.847 -25.263 -13.960  0.00  0.00    -0.004 C 
ATOM     28  C   UNL     1      30.074 -24.665 -15.514  0.00  0.00    -0.000 C 
ATOM     29  C   UNL     1      30.735 -25.619 -14.724  0.00  0.00    -0.000 C 
ATOM     30  C   UNL     1      29.886 -22.377 -16.320  0.00  0.00    -0.000 C 
ATOM     31  C   UNL     1      28.952 -25.005 -16.288  0.00  0.00    -0.000 C 
ATOM     32  C   UNL     1      28.773 -22.733 -17.084  0.00  0.00    -0.000 C 
ATOM     33  C   UNL     1      28.307 -24.044 -17.067  0.00  0.00    -0.000 C 
ENDBRANCH  23  24
ENDBRANCH   1  23
TORSDOF 7
ENDMDL
MODEL 2
REMARK VINA RESULT:     -11.6      1.519      6.097
REMARK  Name = 9823454
REMARK  7 active torsions:
REMARK  status: ('A' for Active; 'I' for Inactive)
REMARK    1  A    between atoms: C_1  and  C_4
REMARK    2  A    between atoms: C_1  and  N_8
REMARK    3  A    between atoms: C_1  and  C_23
REMARK    4  A    between atoms: N_3  and  O_6
REMARK    5  A    between atoms: N_8  and  S_10
REMARK    6  A    between atoms: S_10  and  C_13
REMARK    7  A    between atoms: C_23  and  C_24
REMARK                            x       y       z     vdW  Elec       q    Type
REMARK                         _______ _______ _______ _____ _____    ______ ____
ROOT
ATOM      1  C   UNL     1      36.134 -22.577 -15.742  0.00  0.00    +0.158 C 
ENDROOT
BRANCH   1   4
ATOM      2  O   UNL     1      37.808 -22.865 -14.022  0.00  0.00    -0.272 OA
ATOM      3  N   UNL     1      38.147 -23.849 -16.083  0.00  0.00    -0.196 N 
ATOM      4  C   UNL     1      37.441 -23.103 -15.172  0.00  0.00    +0.260 C 
ATOM      5  H   UNL     1      37.814 -24.015 -16.995  0.00  0.00    +0.182 HD
BRANCH   3   6
ATOM      6  O   UNL     1      39.372 -24.363 -15.635  0.00  0.00    -0.295 OA
ATOM      7  H   UNL     1      39.210 -25.103 -15.030  0.00  0.00    +0.241 HD
ENDBRANCH   3   6
ENDBRANCH   1   4
BRANCH   1   8
ATOM      8  N   UNL     1      35.134 -22.740 -14.660  0.00  0.00    -0.172 NA
ATOM      9  H   UNL     1      35.486 -22.227 -13.852  0.00  0.00    +0.149 HD
BRANCH   8  10
ATOM     10  S   UNL     1      34.724 -24.295 -14.114  0.00  0.00    +0.061 S 
ATOM     11  O   UNL     1      34.856 -24.350 -12.670  0.00  0.00    -0.153 OA
ATOM     12  O   UNL     1      35.398 -25.274 -14.946  0.00  0.00    -0.153 OA
BRANCH  10  13
ATOM     13  C   UNL     1      33.004 -24.379 -14.508  0.00  0.00    +0.122 C 
ATOM     14  C   UNL     1      32.485 -23.515 -15.458  0.00  0.00    +0.020 C 
ATOM     15  C   UNL     1      31.120 -23.568 -15.782  0.00  0.00    +0.001 C 
ATOM     16  C   UNL     1      32.209 -25.304 -13.863  0.00  0.00    +0.020 C 
ATOM     17  C   UNL     1      30.290 -24.511 -15.130  0.00  0.00    +0.000 C 
ATOM     18  C   UNL     1      30.850 -25.372 -14.173  0.00  0.00    +0.001 C 
ATOM     19  C   UNL     1      30.560 -22.707 -16.740  0.00  0.00    +0.000 C 
ATOM     20  C   UNL     1      28.924 -24.564 -15.453  0.00  0.00    +0.000 C 
ATOM     21  C   UNL     1      29.201 -22.774 -17.050  0.00  0.00    +0.000 C 
ATOM     22  C   UNL     1      28.386 -23.700 -16.408  0.00  0.00    +0.000 C 
ENDBRANCH  10  13
ENDBRANCH   8  10
ENDBRANCH   1   8
BRANCH   1  23
ATOM     23  C   UNL     1      35.701 -23.383 -16.977  0.00  0.00    +0.053 C 
BRANCH  23  24
ATOM     24  C   UNL     1      35.320 -22.527 -18.138  0.00  0.00    -0.020 C 
ATOM     25  C   UNL     1      36.284 -21.748 -18.778  0.00  0.00    -0.004 C 
ATOM     26  C   UNL     1      35.941 -20.937 -19.872  0.00  0.00    -0.000 C 
ATOM     27  C   UNL     1      34.001 -22.507 -18.583  0.00  0.00    -0.004 C 
ATOM     28  C   UNL     1      34.599 -20.917 -20.324  0.00  0.00    -0.000 C 
ATOM     29  C   UNL     1      33.642 -21.709 -19.669  0.00  0.00    -0.000 C 
ATOM     30  C   UNL     1      36.898 -20.146 -20.527  0.00  0.00    -0.000 C 
ATOM     31  C   UNL     1      34.256 -20.107 -21.419  0.00  0.00    -0.000 C 
ATOM     32  C   UNL     1      36.539 -19.347 -21.613  0.00  0.00    -0.000 C 
ATOM     33  C   UNL     1      35.221 -19.327 -22.057  0.00  0.00    -0.000 C 
ENDBRANCH  23  24
ENDBRANCH   1  23
TORSDOF 7
ENDMDL
MODEL 3
REMARK VINA RESULT:     -10.7      8.274     11.478
REMARK  Name = 9823454
REMARK  7 active torsions:
REMARK  status: ('A' for Active; 'I' for Inactive)
REMARK    1  A    between atoms: C_1  and  C_4
REMARK    2  A    between atoms: C_1  and  N_8
REMARK    3  A    between atoms: C_1  and  C_23
REMARK    4  A    between atoms: N_3  and  O_6
REMARK    5  A    between atoms: N_8  and  S_10
REMARK    6  A    between atoms: S_10  and  C_13
REMARK    7  A    between atoms: C_23  and  C_24
REMARK                            x       y       z     vdW  Elec       q    Type
REMARK                         _______ _______ _______ _____ _____    ______ ____
ROOT
ATOM      1  C   UNL     1      35.120 -16.480 -23.743  0.00  0.00    +0.158 C 
ENDROOT
BRANCH   1   4
ATOM      2  O   UNL     1      35.261 -16.565 -26.155  0.00  0.00    -0.272 OA
ATOM      3  N   UNL     1      33.527 -17.667 -25.102  0.00  0.00    -0.196 N 
ATOM      4  C   UNL     1      34.665 -16.898 -25.132  0.00  0.00    +0.260 C 
ATOM      5  H   UNL     1      33.082 -17.910 -24.258  0.00  0.00    +0.182 HD
BRANCH   3   6
ATOM      6  O   UNL     1      33.038 -18.085 -26.347  0.00  0.00    -0.295 OA
ATOM      7  H   UNL     1      32.184 -17.657 -26.519  0.00  0.00    +0.241 HD
ENDBRANCH   3   6
ENDBRANCH   1   4
BRANCH   1   8
ATOM      8  N   UNL     1      35.344 -15.017 -23.821  0.00  0.00    -0.172 NA
ATOM      9  H   UNL     1      35.653 -14.716 -22.897  0.00  0.00    +0.149 HD
BRANCH   8  10
ATOM     10  S   UNL     1      34.069 -13.989 -24.272  0.00  0.00    +0.061 S 
ATOM     11  O   UNL     1      33.053 -14.757 -24.968  0.00  0.00    -0.153 OA
ATOM     12  O   UNL     1      34.625 -12.795 -24.880  0.00  0.00    -0.153 OA
BRANCH  10  13
ATOM     13  C   UNL     1      33.413 -13.512 -22.703  0.00  0.00    +0.122 C 
ATOM     14  C   UNL     1      32.831 -12.263 -22.565  0.00  0.00    +0.020 C 
ATOM     15  C   UNL     1      32.305 -11.869 -21.324  0.00  0.00    +0.001 C 
ATOM     16  C   UNL     1      33.492 -14.393 -21.643  0.00  0.00    +0.020 C 
ATOM     17  C   UNL     1      32.378 -12.760 -20.227  0.00  0.00    +0.000 C 
ATOM     18  C   UNL     1      32.974 -14.018 -20.403  0.00  0.00    +0.001 C 
ATOM     19  C   UNL     1      31.708 -10.609 -21.149  0.00  0.00    +0.000 C 
ATOM     20  C   UNL     1      31.852 -12.364 -18.985  0.00  0.00    +0.000 C 
ATOM     21  C   UNL     1      31.191 -10.234 -19.908  0.00  0.00    +0.000 C 
ATOM     22  C   UNL     1      31.262 -11.109 -18.830  0.00  0.00    +0.000 C 
ENDBRANCH  10  13
ENDBRANCH   8  10
ENDBRANCH   1   8
BRANCH   1  23
ATOM     23  C   UNL     1      36.427 -17.188 -23.350  0.00  0.00    +0.053 C 
BRANCH  23  24
ATOM     24  C   UNL     1      36.226 -18.314 -22.392  0.00  0.00    -0.020 C 
ATOM     25  C   UNL     1      34.940 -18.793 -22.139  0.00  0.00    -0.004 C 
ATOM     26  C   UNL     1      34.734 -19.853 -21.240  0.00  0.00    -0.000 C 
ATOM     27  C   UNL     1      37.321 -18.886 -21.753  0.00  0.00    -0.004 C 
ATOM     28  C   UNL     1      35.849 -20.435 -20.590  0.00  0.00    -0.000 C 
ATOM     29  C   UNL     1      37.135 -19.940 -20.857  0.00  0.00    -0.000 C 
ATOM     30  C   UNL     1      33.448 -20.347 -20.973  0.00  0.00    -0.000 C 
ATOM     31  C   UNL     1      35.643 -21.494 -19.691  0.00  0.00    -0.000 C 
ATOM     32  C   UNL     1      33.262 -21.401 -20.078  0.00  0.00    -0.000 C 
ATOM     33  C   UNL     1      34.357 -21.972 -19.438  0.00  0.00    -0.000 C 
ENDBRANCH  23  24
ENDBRANCH   1  23
TORSDOF 7
ENDMDL
MODEL 4
REMARK VINA RESULT:     -10.7      3.120      5.691
REMARK  Name = 9823454
REMARK  7 active torsions:
REMARK  status: ('A' for Active; 'I' for Inactive)
REMARK    1  A    between atoms: C_1  and  C_4
REMARK    2  A    between atoms: C_1  and  N_8
REMARK    3  A    between atoms: C_1  and  C_23
REMARK    4  A    between atoms: N_3  and  O_6
REMARK    5  A    between atoms: N_8  and  S_10
REMARK    6  A    between atoms: S_10  and  C_13
REMARK    7  A    between atoms: C_23  and  C_24
REMARK                            x       y       z     vdW  Elec       q    Type
REMARK                         _______ _______ _______ _____ _____    ______ ____
ROOT
ATOM      1  C   UNL     1      32.519 -22.989 -16.351  0.00  0.00    +0.158 C 
ENDROOT
BRANCH   1   4
ATOM      2  O   UNL     1      30.578 -22.726 -14.936  0.00  0.00    -0.272 OA
ATOM      3  N   UNL     1      30.324 -22.533 -17.223  0.00  0.00    -0.196 N 
ATOM      4  C   UNL     1      31.047 -22.735 -16.073  0.00  0.00    +0.260 C 
ATOM      5  H   UNL     1      30.742 -22.549 -18.114  0.00  0.00    +0.182 HD
BRANCH   3   6
ATOM      6  O   UNL     1      28.952 -22.302 -17.050  0.00  0.00    -0.295 OA
ATOM      7  H   UNL     1      28.598 -22.930 -16.402  0.00  0.00    +0.241 HD
ENDBRANCH   3   6
ENDBRANCH   1   4
BRANCH   1   8
ATOM      8  N   UNL     1      32.703 -22.726 -17.799  0.00  0.00    -0.172 NA
ATOM      9  H   UNL     1      31.964 -23.231 -18.286  0.00  0.00    +0.149 HD
BRANCH   8  10
ATOM     10  S   UNL     1      34.165 -23.143 -18.555  0.00  0.00    +0.061 S 
ATOM     11  O   UNL     1      33.974 -24.346 -19.343  0.00  0.00    -0.153 OA
ATOM     12  O   UNL     1      35.233 -23.074 -17.576  0.00  0.00    -0.153 OA
BRANCH  10  13
ATOM     13  C   UNL     1      34.397 -21.793 -19.670  0.00  0.00    +0.122 C 
ATOM     14  C   UNL     1      35.680 -21.334 -19.918  0.00  0.00    +0.020 C 
ATOM     15  C   UNL     1      35.882 -20.261 -20.801  0.00  0.00    +0.001 C 
ATOM     16  C   UNL     1      33.296 -21.218 -20.273  0.00  0.00    +0.020 C 
ATOM     17  C   UNL     1      34.764 -19.661 -21.428  0.00  0.00    +0.000 C 
ATOM     18  C   UNL     1      33.478 -20.151 -21.153  0.00  0.00    +0.001 C 
ATOM     19  C   UNL     1      37.169 -19.770 -21.075  0.00  0.00    +0.000 C 
ATOM     20  C   UNL     1      34.966 -18.587 -22.310  0.00  0.00    +0.000 C 
ATOM     21  C   UNL     1      37.351 -18.702 -21.955  0.00  0.00    +0.000 C 
ATOM     22  C   UNL     1      36.252 -18.113 -22.571  0.00  0.00    +0.000 C 
ENDBRANCH  10  13
ENDBRANCH   8  10
ENDBRANCH   1   8
BRANCH   1  23
ATOM     23  C   UNL     1      32.903 -24.443 -16.033  0.00  0.00    +0.053 C 
BRANCH  23  24
ATOM     24  C   UNL     1      33.964 -24.561 -14.991  0.00  0.00    -0.020 C 
ATOM     25  C   UNL     1      35.215 -25.082 -15.323  0.00  0.00    -0.004 C 
ATOM     26  C   UNL     1      36.224 -25.199 -14.353  0.00  0.00    -0.000 C 
ATOM     27  C   UNL     1      33.705 -24.150 -13.687  0.00  0.00    -0.004 C 
ATOM     28  C   UNL     1      35.960 -24.780 -13.026  0.00  0.00    -0.000 C 
ATOM     29  C   UNL     1      34.696 -24.258 -12.710  0.00  0.00    -0.000 C 
ATOM     30  C   UNL     1      37.487 -25.722 -14.670  0.00  0.00    -0.000 C 
ATOM     31  C   UNL     1      36.968 -24.897 -12.056  0.00  0.00    -0.000 C 
ATOM     32  C   UNL     1      38.479 -25.830 -13.693  0.00  0.00    -0.000 C 
ATOM     33  C   UNL     1      38.219 -25.420 -12.389  0.00  0.00    -0.000 C 
ENDBRANCH  23  24
ENDBRANCH   1  23
TORSDOF 7
ENDMDL
MODEL 5
REMARK VINA RESULT:     -10.6      6.976     10.777
REMARK  Name = 9823454
REMARK  7 active torsions:
REMARK  status: ('A' for Active; 'I' for Inactive)
REMARK    1  A    between atoms: C_1  and  C_4
REMARK    2  A    between atoms: C_1  and  N_8
REMARK    3  A    between atoms: C_1  and  C_23
REMARK    4  A    between atoms: N_3  and  O_6
REMARK    5  A    between atoms: N_8  and  S_10
REMARK    6  A    between atoms: S_10  and  C_13
REMARK    7  A    between atoms: C_23  and  C_24
REMARK                            x       y       z     vdW  Elec       q    Type
REMARK                         _______ _______ _______ _____ _____    ______ ____
ROOT
ATOM      1  C   UNL     1      35.245 -17.033 -24.764  0.00  0.00    +0.158 C 
ENDROOT
BRANCH   1   4
ATOM      2  O   UNL     1      33.458 -16.290 -26.211  0.00  0.00    -0.272 OA
ATOM      3  N   UNL     1      33.433 -18.466 -25.439  0.00  0.00    -0.196 N 
ATOM      4  C   UNL     1      33.958 -17.202 -25.555  0.00  0.00    +0.260 C 
ATOM      5  H   UNL     1      33.870 -19.166 -24.901  0.00  0.00    +0.182 HD
BRANCH   3   6
ATOM      6  O   UNL     1      32.238 -18.697 -26.133  0.00  0.00    -0.295 OA
ATOM      7  H   UNL     1      31.572 -19.048 -25.521  0.00  0.00    +0.241 HD
ENDBRANCH   3   6
ENDBRANCH   1   4
BRANCH   1   8
ATOM      8  N   UNL     1      35.029 -17.761 -23.491  0.00  0.00    -0.172 NA
ATOM      9  H   UNL     1      34.950 -17.056 -22.758  0.00  0.00    +0.149 HD
BRANCH   8  10
ATOM     10  S   UNL     1      36.175 -18.896 -22.960  0.00  0.00    +0.061 S 
ATOM     11  O   UNL     1      37.243 -18.211 -22.257  0.00  0.00    -0.153 OA
ATOM     12  O   UNL     1      36.482 -19.796 -24.055  0.00  0.00    -0.153 OA
BRANCH  10  13
ATOM     13  C   UNL     1      35.249 -19.823 -21.775  0.00  0.00    +0.122 C 
ATOM     14  C   UNL     1      35.923 -20.555 -20.813  0.00  0.00    +0.020 C 
ATOM     15  C   UNL     1      35.201 -21.298 -19.864  0.00  0.00    +0.001 C 
ATOM     16  C   UNL     1      33.869 -19.800 -21.830  0.00  0.00    +0.020 C 
ATOM     17  C   UNL     1      33.787 -21.286 -19.906  0.00  0.00    +0.000 C 
ATOM     18  C   UNL     1      33.136 -20.532 -20.895  0.00  0.00    +0.001 C 
ATOM     19  C   UNL     1      35.853 -22.053 -18.875  0.00  0.00    +0.000 C 
ATOM     20  C   UNL     1      33.065 -22.030 -18.958  0.00  0.00    +0.000 C 
ATOM     21  C   UNL     1      35.120 -22.786 -17.941  0.00  0.00    +0.000 C 
ATOM     22  C   UNL     1      33.730 -22.773 -17.982  0.00  0.00    +0.000 C 
ENDBRANCH  10  13
ENDBRANCH   8  10
ENDBRANCH   1   8
BRANCH   1  23
ATOM     23  C   UNL     1      35.531 -15.550 -24.475  0.00  0.00    +0.053 C 
BRANCH  23  24
ATOM     24  C   UNL     1      34.787 -15.024 -23.294  0.00  0.00    -0.020 C 
ATOM     25  C   UNL     1      33.857 -13.996 -23.456  0.00  0.00    -0.004 C 
ATOM     26  C   UNL     1      33.148 -13.490 -22.354  0.00  0.00    -0.000 C 
ATOM     27  C   UNL     1      35.021 -15.558 -22.031  0.00  0.00    -0.004 C 
ATOM     28  C   UNL     1      33.387 -14.034 -21.069  0.00  0.00    -0.000 C 
ATOM     29  C   UNL     1      34.326 -15.068 -20.925  0.00  0.00    -0.000 C 
ATOM     30  C   UNL     1      32.209 -12.456 -22.500  0.00  0.00    -0.000 C 
ATOM     31  C   UNL     1      32.678 -13.528 -19.967  0.00  0.00    -0.000 C 
ATOM     32  C   UNL     1      31.514 -11.966 -21.393  0.00  0.00    -0.000 C 
ATOM     33  C   UNL     1      31.749 -12.500 -20.130  0.00  0.00    -0.000 C 
ENDBRANCH  23  24
ENDBRANCH   1  23
TORSDOF 7
ENDMDL
MODEL 6
REMARK VINA RESULT:     -10.6      1.449      5.616
REMARK  Name = 9823454
REMARK  7 active torsions:
REMARK  status: ('A' for Active; 'I' for Inactive)
REMARK    1  A    between atoms: C_1  and  C_4
REMARK    2  A    between atoms: C_1  and  N_8
REMARK    3  A    between atoms: C_1  and  C_23
REMARK    4  A    between atoms: N_3  and  O_6
REMARK    5  A    between atoms: N_8  and  S_10
REMARK    6  A    between atoms: S_10  and  C_13
REMARK    7  A    between atoms: C_23  and  C_24
REMARK                            x       y       z     vdW  Elec       q    Type
REMARK                         _______ _______ _______ _____ _____    ______ ____
ROOT
ATOM      1  C   UNL     1      36.744 -22.785 -14.656  0.00  0.00    +0.158 C 
ENDROOT
BRANCH   1   4
ATOM      2  O   UNL     1      38.404 -24.269 -13.717  0.00  0.00    -0.272 OA
ATOM      3  N   UNL     1      37.268 -22.836 -12.308  0.00  0.00    -0.196 N 
ATOM      4  C   UNL     1      37.570 -23.385 -13.530  0.00  0.00    +0.260 C 
ATOM      5  H   UNL     1      36.591 -22.128 -12.206  0.00  0.00    +0.182 HD
BRANCH   3   6
ATOM      6  O   UNL     1      37.982 -23.346 -11.215  0.00  0.00    -0.295 OA
ATOM      7  H   UNL     1      38.930 -23.186 -11.346  0.00  0.00    +0.241 HD
ENDBRANCH   3   6
ENDBRANCH   1   4
BRANCH   1   8
ATOM      8  N   UNL     1      35.329 -23.027 -14.285  0.00  0.00    -0.172 NA
ATOM      9  H   UNL     1      35.139 -22.459 -13.460  0.00  0.00    +0.149 HD
BRANCH   8  10
ATOM     10  S   UNL     1      34.806 -24.602 -13.927  0.00  0.00    +0.061 S 
ATOM     11  O   UNL     1      34.923 -24.837 -12.500  0.00  0.00    -0.153 OA
ATOM     12  O   UNL     1      35.415 -25.522 -14.870  0.00  0.00    -0.153 OA
BRANCH  10  13
ATOM     13  C   UNL     1      33.088 -24.516 -14.327  0.00  0.00    +0.122 C 
ATOM     14  C   UNL     1      32.678 -23.714 -15.378  0.00  0.00    +0.020 C 
ATOM     15  C   UNL     1      31.315 -23.635 -15.709  0.00  0.00    +0.001 C 
ATOM     16  C   UNL     1      32.185 -25.251 -13.584  0.00  0.00    +0.020 C 
ATOM     17  C   UNL     1      30.376 -24.381 -14.958  0.00  0.00    +0.000 C 
ATOM     18  C   UNL     1      30.827 -25.184 -13.899  0.00  0.00    +0.001 C 
ATOM     19  C   UNL     1      30.864 -22.831 -16.769  0.00  0.00    +0.000 C 
ATOM     20  C   UNL     1      29.013 -24.300 -15.288  0.00  0.00    +0.000 C 
ATOM     21  C   UNL     1      29.506 -22.763 -17.083  0.00  0.00    +0.000 C 
ATOM     22  C   UNL     1      28.584 -23.496 -16.344  0.00  0.00    +0.000 C 
ENDBRANCH  10  13
ENDBRANCH   8  10
ENDBRANCH   1   8
BRANCH   1  23
ATOM     23  C   UNL     1      37.054 -23.468 -15.999  0.00  0.00    +0.053 C 
BRANCH  23  24
ATOM     24  C   UNL     1      36.590 -22.686 -17.181  0.00  0.00    -0.020 C 
ATOM     25  C   UNL     1      35.269 -22.796 -17.617  0.00  0.00    -0.004 C 
ATOM     26  C   UNL     1      34.817 -22.067 -18.729  0.00  0.00    -0.000 C 
ATOM     27  C   UNL     1      37.475 -21.846 -17.850  0.00  0.00    -0.004 C 
ATOM     28  C   UNL     1      35.718 -21.212 -19.408  0.00  0.00    -0.000 C 
ATOM     29  C   UNL     1      37.044 -21.113 -18.956  0.00  0.00    -0.000 C 
ATOM     30  C   UNL     1      33.492 -22.167 -19.180  0.00  0.00    -0.000 C 
ATOM     31  C   UNL     1      35.267 -20.483 -20.520  0.00  0.00    -0.000 C 
ATOM     32  C   UNL     1      33.059 -21.434 -20.287  0.00  0.00    -0.000 C 
ATOM     33  C   UNL     1      33.946 -20.595 -20.955  0.00  0.00    -0.000 C 
ENDBRANCH  23  24
ENDBRANCH   1  23
TORSDOF 7
ENDMDL
MODEL 7
REMARK VINA RESULT:     -10.5      1.970      3.239
REMARK  Name = 9823454
REMARK  7 active torsions:
REMARK  status: ('A' for Active; 'I' for Inactive)
REMARK    1  A    between atoms: C_1  and  C_4
REMARK    2  A    between atoms: C_1  and  N_8
REMARK    3  A    between atoms: C_1  and  C_23
REMARK    4  A    between atoms: N_3  and  O_6
REMARK    5  A    between atoms: N_8  and  S_10
REMARK    6  A    between atoms: S_10  and  C_13
REMARK    7  A    between atoms: C_23  and  C_24
REMARK                            x       y       z     vdW  Elec       q    Type
REMARK                         _______ _______ _______ _____ _____    ______ ____
ROOT
ATOM      1  C   UNL     1      34.721 -24.370 -16.072  0.00  0.00    +0.158 C 
ENDROOT
BRANCH   1   4
ATOM      2  O   UNL     1      36.926 -25.237 -15.594  0.00  0.00    -0.272 OA
ATOM      3  N   UNL     1      36.532 -22.979 -15.314  0.00  0.00    -0.196 N 
ATOM      4  C   UNL     1      36.175 -24.264 -15.643  0.00  0.00    +0.260 C 
ATOM      5  H   UNL     1      35.896 -22.229 -15.368  0.00  0.00    +0.182 HD
BRANCH   3   6
ATOM      6  O   UNL     1      37.858 -22.801 -14.896  0.00  0.00    -0.295 OA
ATOM      7  H   UNL     1      38.271 -22.100 -15.424  0.00  0.00    +0.241 HD
ENDBRANCH   3   6
ENDBRANCH   1   4
BRANCH   1   8
ATOM      8  N   UNL     1      34.405 -23.080 -16.732  0.00  0.00    -0.172 NA
ATOM      9  H   UNL     1      33.770 -22.580 -16.111  0.00  0.00    +0.149 HD
BRANCH   8  10
ATOM     10  S   UNL     1      33.695 -23.071 -18.274  0.00  0.00    +0.061 S 
ATOM     11  O   UNL     1      32.384 -22.453 -18.198  0.00  0.00    -0.153 OA
ATOM     12  O   UNL     1      33.848 -24.386 -18.866  0.00  0.00    -0.153 OA
BRANCH  10  13
ATOM     13  C   UNL     1      34.762 -21.978 -19.161  0.00  0.00    +0.122 C 
ATOM     14  C   UNL     1      34.250 -21.240 -20.214  0.00  0.00    +0.020 C 
ATOM     15  C   UNL     1      35.086 -20.367 -20.930  0.00  0.00    +0.001 C 
ATOM     16  C   UNL     1      36.088 -21.880 -18.787  0.00  0.00    +0.020 C 
ATOM     17  C   UNL     1      36.448 -20.254 -20.560  0.00  0.00    +0.000 C 
ATOM     18  C   UNL     1      36.933 -21.017 -19.486  0.00  0.00    +0.001 C 
ATOM     19  C   UNL     1      34.601 -19.603 -22.004  0.00  0.00    +0.000 C 
ATOM     20  C   UNL     1      37.284 -19.382 -21.276  0.00  0.00    +0.000 C 
ATOM     21  C   UNL     1      35.446 -18.741 -22.704  0.00  0.00    +0.000 C 
ATOM     22  C   UNL     1      36.784 -18.631 -22.340  0.00  0.00    +0.000 C 
ENDBRANCH  10  13
ENDBRANCH   8  10
ENDBRANCH   1   8
BRANCH   1  23
ATOM     23  C   UNL     1      33.796 -24.577 -14.861  0.00  0.00    +0.053 C 
BRANCH  23  24
ATOM     24  C   UNL     1      32.443 -23.976 -15.041  0.00  0.00    -0.020 C 
ATOM     25  C   UNL     1      31.503 -24.602 -15.861  0.00  0.00    -0.004 C 
ATOM     26  C   UNL     1      30.225 -24.049 -16.040  0.00  0.00    -0.000 C 
ATOM     27  C   UNL     1      32.117 -22.790 -14.389  0.00  0.00    -0.004 C 
ATOM     28  C   UNL     1      29.895 -22.842 -15.377  0.00  0.00    -0.000 C 
ATOM     29  C   UNL     1      30.852 -22.226 -14.555  0.00  0.00    -0.000 C 
ATOM     30  C   UNL     1      29.269 -24.666 -16.862  0.00  0.00    -0.000 C 
ATOM     31  C   UNL     1      28.616 -22.289 -15.556  0.00  0.00    -0.000 C 
ATOM     32  C   UNL     1      28.003 -24.102 -17.028  0.00  0.00    -0.000 C 
ATOM     33  C   UNL     1      27.678 -22.916 -16.377  0.00  0.00    -0.000 C 
ENDBRANCH  23  24
ENDBRANCH   1  23
TORSDOF 7
ENDMDL
MODEL 8
REMARK VINA RESULT:     -10.3      3.127      6.064
REMARK  Name = 9823454
REMARK  7 active torsions:
REMARK  status: ('A' for Active; 'I' for Inactive)
REMARK    1  A    between atoms: C_1  and  C_4
REMARK    2  A    between atoms: C_1  and  N_8
REMARK    3  A    between atoms: C_1  and  C_23
REMARK    4  A    between atoms: N_3  and  O_6
REMARK    5  A    between atoms: N_8  and  S_10
REMARK    6  A    between atoms: S_10  and  C_13
REMARK    7  A    between atoms: C_23  and  C_24
REMARK                            x       y       z     vdW  Elec       q    Type
REMARK                         _______ _______ _______ _____ _____    ______ ____
ROOT
ATOM      1  C   UNL     1      34.318 -23.063 -15.884  0.00  0.00    +0.158 C 
ENDROOT
BRANCH   1   4
ATOM      2  O   UNL     1      34.282 -25.407 -15.295  0.00  0.00    -0.272 OA
ATOM      3  N   UNL     1      33.094 -23.915 -13.995  0.00  0.00    -0.196 N 
ATOM      4  C   UNL     1      33.912 -24.262 -15.042  0.00  0.00    +0.260 C 
ATOM      5  H   UNL     1      32.823 -22.983 -13.829  0.00  0.00    +0.182 HD
BRANCH   3   6
ATOM      6  O   UNL     1      32.668 -24.969 -13.176  0.00  0.00    -0.295 OA
ATOM      7  H   UNL     1      32.430 -25.731 -13.727  0.00  0.00    +0.241 HD
ENDBRANCH   3   6
ENDBRANCH   1   4
BRANCH   1   8
ATOM      8  N   UNL     1      34.736 -23.619 -17.193  0.00  0.00    -0.172 NA
ATOM      9  H   UNL     1      35.688 -23.295 -17.361  0.00  0.00    +0.149 HD
BRANCH   8  10
ATOM     10  S   UNL     1      33.840 -23.258 -18.590  0.00  0.00    +0.061 S 
ATOM     11  O   UNL     1      32.597 -22.613 -18.212  0.00  0.00    -0.153 OA
ATOM     12  O   UNL     1      33.825 -24.426 -19.450  0.00  0.00    -0.153 OA
BRANCH  10  13
ATOM     13  C   UNL     1      34.863 -22.052 -19.377  0.00  0.00    +0.122 C 
ATOM     14  C   UNL     1      34.349 -21.312 -20.428  0.00  0.00    +0.020 C 
ATOM     15  C   UNL     1      35.149 -20.349 -21.065  0.00  0.00    +0.001 C 
ATOM     16  C   UNL     1      36.156 -21.868 -18.929  0.00  0.00    +0.020 C 
ATOM     17  C   UNL     1      36.477 -20.148 -20.619  0.00  0.00    +0.000 C 
ATOM     18  C   UNL     1      36.965 -20.915 -19.549  0.00  0.00    +0.001 C 
ATOM     19  C   UNL     1      34.660 -19.582 -22.135  0.00  0.00    +0.000 C 
ATOM     20  C   UNL     1      37.278 -19.186 -21.256  0.00  0.00    +0.000 C 
ATOM     21  C   UNL     1      35.470 -18.630 -22.756  0.00  0.00    +0.000 C 
ATOM     22  C   UNL     1      36.775 -18.432 -22.317  0.00  0.00    +0.000 C 
ENDBRANCH  10  13
ENDBRANCH   8  10
ENDBRANCH   1   8
BRANCH   1  23
ATOM     23  C   UNL     1      35.491 -22.304 -15.242  0.00  0.00    +0.053 C 
BRANCH  23  24
ATOM     24  C   UNL     1      36.564 -23.200 -14.724  0.00  0.00    -0.020 C 
ATOM     25  C   UNL     1      37.594 -23.617 -15.569  0.00  0.00    -0.004 C 
ATOM     26  C   UNL     1      38.612 -24.461 -15.096  0.00  0.00    -0.000 C 
ATOM     27  C   UNL     1      36.539 -23.621 -13.398  0.00  0.00    -0.004 C 
ATOM     28  C   UNL     1      38.585 -24.888 -13.747  0.00  0.00    -0.000 C 
ATOM     29  C   UNL     1      37.542 -24.459 -12.911  0.00  0.00    -0.000 C 
ATOM     30  C   UNL     1      39.654 -24.890 -15.933  0.00  0.00    -0.000 C 
ATOM     31  C   UNL     1      39.604 -25.732 -13.274  0.00  0.00    -0.000 C 
ATOM     32  C   UNL     1      40.659 -25.729 -15.446  0.00  0.00    -0.000 C 
ATOM     33  C   UNL     1      40.632 -26.149 -14.120  0.00  0.00    -0.000 C 
ENDBRANCH  23  24
ENDBRANCH   1  23
TORSDOF 7
ENDMDL
MODEL 9
REMARK VINA RESULT:     -10.2      2.215      3.488
REMARK  Name = 9823454
REMARK  7 active torsions:
REMARK  status: ('A' for Active; 'I' for Inactive)
REMARK    1  A    between atoms: C_1  and  C_4
REMARK    2  A    between atoms: C_1  and  N_8
REMARK    3  A    between atoms: C_1  and  C_23
REMARK    4  A    between atoms: N_3  and  O_6
REMARK    5  A    between atoms: N_8  and  S_10
REMARK    6  A    between atoms: S_10  and  C_13
REMARK    7  A    between atoms: C_23  and  C_24
REMARK                            x       y       z     vdW  Elec       q    Type
REMARK                         _______ _______ _______ _____ _____    ______ ____
ROOT
ATOM      1  C   UNL     1      35.432 -23.193 -16.559  0.00  0.00    +0.158 C 
ENDROOT
BRANCH   1   4
ATOM      2  O   UNL     1      37.547 -22.123 -17.033  0.00  0.00    -0.272 OA
ATOM      3  N   UNL     1      37.534 -24.047 -15.758  0.00  0.00    -0.196 N 
ATOM      4  C   UNL     1      36.943 -23.044 -16.485  0.00  0.00    +0.260 C 
ATOM      5  H   UNL     1      37.009 -24.766 -15.335  0.00  0.00    +0.182 HD
BRANCH   3   6
ATOM      6  O   UNL     1      38.930 -23.985 -15.652  0.00  0.00    -0.295 OA
ATOM      7  H   UNL     1      39.323 -24.746 -16.108  0.00  0.00    +0.241 HD
ENDBRANCH   3   6
ENDBRANCH   1   4
BRANCH   1   8
ATOM      8  N   UNL     1      34.977 -22.166 -17.527  0.00  0.00    -0.172 NA
ATOM      9  H   UNL     1      34.501 -21.443 -16.988  0.00  0.00    +0.149 HD
BRANCH   8  10
ATOM     10  S   UNL     1      33.934 -22.601 -18.794  0.00  0.00    +0.061 S 
ATOM     11  O   UNL     1      32.559 -22.403 -18.377  0.00  0.00    -0.153 OA
ATOM     12  O   UNL     1      34.358 -23.882 -19.328  0.00  0.00    -0.153 OA
BRANCH  10  13
ATOM     13  C   UNL     1      34.315 -21.382 -20.015  0.00  0.00    +0.122 C 
ATOM     14  C   UNL     1      35.628 -20.975 -20.177  0.00  0.00    +0.020 C 
ATOM     15  C   UNL     1      35.947 -20.007 -21.143  0.00  0.00    +0.001 C 
ATOM     16  C   UNL     1      33.295 -20.858 -20.785  0.00  0.00    +0.020 C 
ATOM     17  C   UNL     1      34.914 -19.459 -21.941  0.00  0.00    +0.000 C 
ATOM     18  C   UNL     1      33.594 -19.895 -21.750  0.00  0.00    +0.001 C 
ATOM     19  C   UNL     1      37.268 -19.570 -21.334  0.00  0.00    +0.000 C 
ATOM     20  C   UNL     1      35.233 -18.489 -22.906  0.00  0.00    +0.000 C 
ATOM     21  C   UNL     1      37.567 -18.607 -22.298  0.00  0.00    +0.000 C 
ATOM     22  C   UNL     1      36.552 -18.068 -23.082  0.00  0.00    +0.000 C 
ENDBRANCH  10  13
ENDBRANCH   8  10
ENDBRANCH   1   8
BRANCH   1  23
ATOM     23  C   UNL     1      34.781 -22.943 -15.189  0.00  0.00    +0.053 C 
BRANCH  23  24
ATOM     24  C   UNL     1      33.447 -23.594 -15.040  0.00  0.00    -0.020 C 
ATOM     25  C   UNL     1      32.322 -23.027 -15.641  0.00  0.00    -0.004 C 
ATOM     26  C   UNL     1      31.060 -23.628 -15.510  0.00  0.00    -0.000 C 
ATOM     27  C   UNL     1      33.325 -24.767 -14.303  0.00  0.00    -0.004 C 
ATOM     28  C   UNL     1      30.936 -24.821 -14.759  0.00  0.00    -0.000 C 
ATOM     29  C   UNL     1      32.078 -25.378 -14.163  0.00  0.00    -0.000 C 
ATOM     30  C   UNL     1      29.918 -23.070 -16.107  0.00  0.00    -0.000 C 
ATOM     31  C   UNL     1      29.674 -25.423 -14.629  0.00  0.00    -0.000 C 
ATOM     32  C   UNL     1      28.671 -23.681 -15.967  0.00  0.00    -0.000 C 
ATOM     33  C   UNL     1      28.549 -24.854 -15.228  0.00  0.00    -0.000 C 
ENDBRANCH  23  24
ENDBRANCH   1  23
TORSDOF 7
ENDMDL
