MODEL 1
REMARK VINA RESULT:     -12.4      0.000      0.000
REMARK  Name = 448605
REMARK  6 active torsions:
REMARK  status: ('A' for Active; 'I' for Inactive)
REMARK    1  A    between atoms: C_3  and  N_11
REMARK    2  A    between atoms: C_4  and  C_27
REMARK    3  A    between atoms: C_9  and  C_21
REMARK    4  A    between atoms: N_26  and  C_29
REMARK    5  A    between atoms: C_30  and  C_35
REMARK    6  A    between atoms: C_35  and  N_36
REMARK                            x       y       z     vdW  Elec       q    Type
REMARK                         _______ _______ _______ _____ _____    ______ ____
ROOT
ATOM      1  C   UNL     1      34.506 -23.123 -16.557  0.00  0.00    +0.014 C 
ATOM      2  C   UNL     1      33.551 -22.835 -17.562  0.00  0.00    +0.001 C 
ATOM      3  C   UNL     1      35.845 -22.753 -16.757  0.00  0.00    +0.057 C 
ATOM      4  C   UNL     1      35.300 -21.823 -18.917  0.00  0.00    +0.055 C 
ATOM      5  C   UNL     1      33.964 -22.183 -18.736  0.00  0.00    +0.005 C 
ATOM      6  C   UNL     1      36.239 -22.107 -17.929  0.00  0.00    +0.020 C 
ATOM      7  C   UNL     1      34.093 -23.774 -15.384  0.00  0.00    +0.004 C 
ATOM      8  C   UNL     1      32.211 -23.206 -17.363  0.00  0.00    +0.000 C 
ATOM      9  C   UNL     1      32.757 -24.135 -15.202  0.00  0.00    +0.031 C 
ATOM     10  C   UNL     1      31.818 -23.851 -16.190  0.00  0.00    +0.003 C 
ENDROOT
BRANCH   3  11
ATOM     11  N   UNL     1      36.841 -23.017 -15.785  0.00  0.00    -0.257 N 
ATOM     12  N   UNL     1      36.857 -25.363 -15.753  0.00  0.00    -0.180 NA
ATOM     13  N   UNL     1      38.329 -24.097 -14.326  0.00  0.00    -0.203 NA
ATOM     14  C   UNL     1      37.366 -24.212 -15.265  0.00  0.00    +0.091 C 
ATOM     15  C   UNL     1      37.383 -26.490 -15.232  0.00  0.00    +0.108 C 
ATOM     16  C   UNL     1      38.809 -25.264 -13.848  0.00  0.00    +0.165 C 
ATOM     17  C   UNL     1      38.371 -26.503 -14.269  0.00  0.00    +0.022 C 
ATOM     18  H   UNL     1      37.243 -22.206 -15.398  0.00  0.00    +0.164 HD
ENDBRANCH   3  11
BRANCH   9  21
ATOM     19  N   UNL     1      31.016 -25.173 -13.767  0.00  0.00    -0.343 N 
ATOM     20  N   UNL     1      33.237 -25.079 -13.046  0.00  0.00    -0.285 NA
ATOM     21  C   UNL     1      32.344 -24.808 -13.980  0.00  0.00    +0.117 C 
ATOM     22  H   UNL     1      30.759 -25.627 -12.933  0.00  0.00    +0.144 HD
ATOM     23  H   UNL     1      30.335 -24.976 -14.451  0.00  0.00    +0.144 HD
ATOM     24  H   UNL     1      32.959 -25.535 -12.218  0.00  0.00    +0.188 HD
ENDBRANCH   9  21
BRANCH   4  27
ATOM     25  O   UNL     1      36.747 -21.522 -20.714  0.00  0.00    -0.270 OA
ATOM     26  N   UNL     1      34.866 -20.124 -20.585  0.00  0.00    -0.280 N 
ATOM     27  C   UNL     1      35.711 -21.150 -20.139  0.00  0.00    +0.250 C 
ATOM     28  H   UNL     1      34.081 -19.941 -20.022  0.00  0.00    +0.155 HD
BRANCH  26  29
ATOM     29  C   UNL     1      34.995 -19.316 -21.743  0.00  0.00    +0.051 C 
ATOM     30  C   UNL     1      35.247 -17.739 -24.003  0.00  0.00    -0.044 C 
ATOM     31  C   UNL     1      34.592 -19.820 -22.967  0.00  0.00    +0.014 C 
ATOM     32  C   UNL     1      35.522 -18.042 -21.622  0.00  0.00    +0.014 C 
ATOM     33  C   UNL     1      34.719 -19.026 -24.106  0.00  0.00    -0.005 C 
ATOM     34  C   UNL     1      35.648 -17.247 -22.761  0.00  0.00    -0.005 C 
BRANCH  30  35
ATOM     35  C   UNL     1      35.382 -16.889 -25.221  0.00  0.00    -0.059 C 
BRANCH  35  36
ATOM     36  N   UNL     1      34.211 -16.084 -25.460  0.00  0.00    +0.383 N 
ATOM     37  H   UNL     1      34.494 -15.151 -25.759  0.00  0.00    -0.089 HD
ATOM     38  H   UNL     1      33.665 -16.014 -24.601  0.00  0.00    -0.089 HD
ATOM     39  H   UNL     1      33.644 -16.517 -26.188  0.00  0.00    -0.089 HD
ENDBRANCH  35  36
ENDBRANCH  30  35
ENDBRANCH  26  29
ENDBRANCH   4  27
TORSDOF 6
ENDMDL
MODEL 2
REMARK VINA RESULT:     -12.2      1.718      4.511
REMARK  Name = 448605
REMARK  6 active torsions:
REMARK  status: ('A' for Active; 'I' for Inactive)
REMARK    1  A    between atoms: C_3  and  N_11
REMARK    2  A    between atoms: C_4  and  C_27
REMARK    3  A    between atoms: C_9  and  C_21
REMARK    4  A    between atoms: N_26  and  C_29
REMARK    5  A    between atoms: C_30  and  C_35
REMARK    6  A    between atoms: C_35  and  N_36
REMARK                            x       y       z     vdW  Elec       q    Type
REMARK                         _______ _______ _______ _____ _____    ______ ____
ROOT
ATOM      1  C   UNL     1      35.286 -23.198 -16.817  0.00  0.00    +0.014 C 
ATOM      2  C   UNL     1      36.266 -22.396 -17.450  0.00  0.00    +0.001 C 
ATOM      3  C   UNL     1      33.987 -23.242 -17.347  0.00  0.00    +0.057 C 
ATOM      4  C   UNL     1      34.620 -21.716 -19.108  0.00  0.00    +0.055 C 
ATOM      5  C   UNL     1      35.916 -21.661 -18.596  0.00  0.00    +0.005 C 
ATOM      6  C   UNL     1      33.657 -22.506 -18.486  0.00  0.00    +0.020 C 
ATOM      7  C   UNL     1      35.635 -23.932 -15.672  0.00  0.00    +0.004 C 
ATOM      8  C   UNL     1      37.565 -22.352 -16.919  0.00  0.00    +0.000 C 
ATOM      9  C   UNL     1      36.931 -23.877 -15.158  0.00  0.00    +0.031 C 
ATOM     10  C   UNL     1      37.895 -23.088 -15.781  0.00  0.00    +0.003 C 
ENDROOT
BRANCH   3  11
ATOM     11  N   UNL     1      32.968 -24.028 -16.754  0.00  0.00    -0.257 N 
ATOM     12  N   UNL     1      31.084 -22.662 -17.056  0.00  0.00    -0.180 NA
ATOM     13  N   UNL     1      30.900 -24.799 -15.956  0.00  0.00    -0.203 NA
ATOM     14  C   UNL     1      31.590 -23.820 -16.582  0.00  0.00    +0.091 C 
ATOM     15  C   UNL     1      29.758 -22.496 -16.874  0.00  0.00    +0.108 C 
ATOM     16  C   UNL     1      29.579 -24.567 -15.807  0.00  0.00    +0.165 C 
ATOM     17  C   UNL     1      28.948 -23.423 -16.251  0.00  0.00    +0.022 C 
ATOM     18  H   UNL     1      33.290 -24.885 -16.391  0.00  0.00    +0.164 HD
ENDBRANCH   3  11
BRANCH   9  21
ATOM     19  N   UNL     1      36.520 -25.744 -13.575  0.00  0.00    -0.343 N 
ATOM     20  N   UNL     1      38.325 -24.297 -13.247  0.00  0.00    -0.285 NA
ATOM     21  C   UNL     1      37.277 -24.644 -13.972  0.00  0.00    +0.117 C 
ATOM     22  H   UNL     1      36.772 -26.249 -12.768  0.00  0.00    +0.144 HD
ATOM     23  H   UNL     1      35.733 -26.017 -14.100  0.00  0.00    +0.144 HD
ATOM     24  H   UNL     1      38.561 -24.816 -12.443  0.00  0.00    +0.188 HD
ENDBRANCH   9  21
BRANCH   4  27
ATOM     25  O   UNL     1      33.124 -21.031 -20.753  0.00  0.00    -0.270 OA
ATOM     26  N   UNL     1      35.296 -20.146 -20.821  0.00  0.00    -0.280 N 
ATOM     27  C   UNL     1      34.275 -20.950 -20.296  0.00  0.00    +0.250 C 
ATOM     28  H   UNL     1      36.159 -20.187 -20.350  0.00  0.00    +0.155 HD
BRANCH  26  29
ATOM     29  C   UNL     1      35.248 -19.281 -21.943  0.00  0.00    +0.051 C 
ATOM     30  C   UNL     1      35.153 -17.592 -24.134  0.00  0.00    -0.044 C 
ATOM     31  C   UNL     1      34.876 -19.792 -23.175  0.00  0.00    +0.014 C 
ATOM     32  C   UNL     1      35.573 -17.945 -21.782  0.00  0.00    +0.014 C 
ATOM     33  C   UNL     1      34.829 -18.941 -24.279  0.00  0.00    -0.005 C 
ATOM     34  C   UNL     1      35.525 -17.094 -22.885  0.00  0.00    -0.005 C 
BRANCH  30  35
ATOM     35  C   UNL     1      35.101 -16.682 -25.314  0.00  0.00    -0.059 C 
BRANCH  35  36
ATOM     36  N   UNL     1      34.100 -15.656 -25.173  0.00  0.00    +0.383 N 
ATOM     37  H   UNL     1      34.491 -14.757 -25.451  0.00  0.00    -0.089 HD
ATOM     38  H   UNL     1      33.797 -15.609 -24.200  0.00  0.00    -0.089 HD
ATOM     39  H   UNL     1      33.300 -15.878 -25.767  0.00  0.00    -0.089 HD
ENDBRANCH  35  36
ENDBRANCH  30  35
ENDBRANCH  26  29
ENDBRANCH   4  27
TORSDOF 6
ENDMDL
MODEL 3
REMARK VINA RESULT:     -11.6      1.964      4.630
REMARK  Name = 448605
REMARK  6 active torsions:
REMARK  status: ('A' for Active; 'I' for Inactive)
REMARK    1  A    between atoms: C_3  and  N_11
REMARK    2  A    between atoms: C_4  and  C_27
REMARK    3  A    between atoms: C_9  and  C_21
REMARK    4  A    between atoms: N_26  and  C_29
REMARK    5  A    between atoms: C_30  and  C_35
REMARK    6  A    between atoms: C_35  and  N_36
REMARK                            x       y       z     vdW  Elec       q    Type
REMARK                         _______ _______ _______ _____ _____    ______ ____
ROOT
ATOM      1  C   UNL     1      35.147 -23.767 -15.362  0.00  0.00    +0.014 C 
ATOM      2  C   UNL     1      36.233 -23.114 -15.995  0.00  0.00    +0.001 C 
ATOM      3  C   UNL     1      33.913 -23.846 -16.026  0.00  0.00    +0.057 C 
ATOM      4  C   UNL     1      34.815 -22.647 -17.917  0.00  0.00    +0.055 C 
ATOM      5  C   UNL     1      36.050 -22.559 -17.273  0.00  0.00    +0.005 C 
ATOM      6  C   UNL     1      33.748 -23.289 -17.295  0.00  0.00    +0.020 C 
ATOM      7  C   UNL     1      35.330 -24.322 -14.086  0.00  0.00    +0.004 C 
ATOM      8  C   UNL     1      37.467 -23.035 -15.332  0.00  0.00    +0.000 C 
ATOM      9  C   UNL     1      36.565 -24.234 -13.441  0.00  0.00    +0.031 C 
ATOM     10  C   UNL     1      37.632 -23.592 -14.064  0.00  0.00    +0.003 C 
ENDROOT
BRANCH   3  11
ATOM     11  N   UNL     1      32.794 -24.488 -15.439  0.00  0.00    -0.257 N 
ATOM     12  N   UNL     1      31.012 -23.342 -16.446  0.00  0.00    -0.180 NA
ATOM     13  N   UNL     1      30.607 -25.109 -14.858  0.00  0.00    -0.203 NA
ATOM     14  C   UNL     1      31.410 -24.305 -15.588  0.00  0.00    +0.091 C 
ATOM     15  C   UNL     1      29.677 -23.194 -16.564  0.00  0.00    +0.108 C 
ATOM     16  C   UNL     1      29.283 -24.905 -15.024  0.00  0.00    +0.165 C 
ATOM     17  C   UNL     1      28.756 -23.954 -15.873  0.00  0.00    +0.022 C 
ATOM     18  H   UNL     1      33.035 -25.200 -14.803  0.00  0.00    +0.164 HD
ENDBRANCH   3  11
BRANCH   9  21
ATOM     19  N   UNL     1      36.860 -24.012 -10.986  0.00  0.00    -0.343 N 
ATOM     20  N   UNL     1      36.788 -26.127 -11.978  0.00  0.00    -0.285 NA
ATOM     21  C   UNL     1      36.739 -24.814 -12.119  0.00  0.00    +0.117 C 
ATOM     22  H   UNL     1      36.977 -24.426 -10.101  0.00  0.00    +0.144 HD
ATOM     23  H   UNL     1      36.830 -23.031 -11.071  0.00  0.00    +0.144 HD
ATOM     24  H   UNL     1      36.905 -26.521 -11.083  0.00  0.00    +0.188 HD
ENDBRANCH   9  21
BRANCH   4  27
ATOM     25  O   UNL     1      33.756 -22.515 -19.983  0.00  0.00    -0.270 OA
ATOM     26  N   UNL     1      35.503 -21.008 -19.559  0.00  0.00    -0.280 N 
ATOM     27  C   UNL     1      34.642 -22.067 -19.239  0.00  0.00    +0.250 C 
ATOM     28  H   UNL     1      36.158 -20.764 -18.866  0.00  0.00    +0.155 HD
BRANCH  26  29
ATOM     29  C   UNL     1      35.553 -20.241 -20.750  0.00  0.00    +0.051 C 
ATOM     30  C   UNL     1      35.651 -18.743 -23.076  0.00  0.00    -0.044 C 
ATOM     31  C   UNL     1      34.426 -20.158 -21.548  0.00  0.00    +0.014 C 
ATOM     32  C   UNL     1      36.729 -19.593 -21.088  0.00  0.00    +0.014 C 
ATOM     33  C   UNL     1      34.475 -19.404 -22.721  0.00  0.00    -0.005 C 
ATOM     34  C   UNL     1      36.778 -18.838 -22.259  0.00  0.00    -0.005 C 
BRANCH  30  35
ATOM     35  C   UNL     1      35.703 -17.936 -24.329  0.00  0.00    -0.059 C 
BRANCH  35  36
ATOM     36  N   UNL     1      35.749 -16.520 -24.067  0.00  0.00    +0.383 N 
ATOM     37  H   UNL     1      35.797 -16.361 -23.061  0.00  0.00    -0.089 HD
ATOM     38  H   UNL     1      34.910 -16.077 -24.442  0.00  0.00    -0.089 HD
ATOM     39  H   UNL     1      36.574 -16.119 -24.514  0.00  0.00    -0.089 HD
ENDBRANCH  35  36
ENDBRANCH  30  35
ENDBRANCH  26  29
ENDBRANCH   4  27
TORSDOF 6
ENDMDL
MODEL 4
REMARK VINA RESULT:     -10.6      3.431      7.795
REMARK  Name = 448605
REMARK  6 active torsions:
REMARK  status: ('A' for Active; 'I' for Inactive)
REMARK    1  A    between atoms: C_3  and  N_11
REMARK    2  A    between atoms: C_4  and  C_27
REMARK    3  A    between atoms: C_9  and  C_21
REMARK    4  A    between atoms: N_26  and  C_29
REMARK    5  A    between atoms: C_30  and  C_35
REMARK    6  A    between atoms: C_35  and  N_36
REMARK                            x       y       z     vdW  Elec       q    Type
REMARK                         _______ _______ _______ _____ _____    ______ ____
ROOT
ATOM      1  C   UNL     1      36.859 -24.306 -15.069  0.00  0.00    +0.014 C 
ATOM      2  C   UNL     1      36.156 -25.098 -14.129  0.00  0.00    +0.001 C 
ATOM      3  C   UNL     1      36.154 -23.366 -15.838  0.00  0.00    +0.057 C 
ATOM      4  C   UNL     1      34.085 -23.986 -14.759  0.00  0.00    +0.055 C 
ATOM      5  C   UNL     1      34.769 -24.925 -13.986  0.00  0.00    +0.005 C 
ATOM      6  C   UNL     1      34.777 -23.207 -15.683  0.00  0.00    +0.020 C 
ATOM      7  C   UNL     1      38.245 -24.478 -15.212  0.00  0.00    +0.004 C 
ATOM      8  C   UNL     1      36.860 -26.038 -13.360  0.00  0.00    +0.000 C 
ATOM      9  C   UNL     1      38.929 -25.417 -14.439  0.00  0.00    +0.031 C 
ATOM     10  C   UNL     1      38.238 -26.195 -13.515  0.00  0.00    +0.003 C 
ENDROOT
BRANCH   3  11
ATOM     11  N   UNL     1      36.808 -22.548 -16.792  0.00  0.00    -0.257 N 
ATOM     12  N   UNL     1      35.194 -22.426 -18.491  0.00  0.00    -0.180 NA
ATOM     13  N   UNL     1      37.310 -21.295 -18.712  0.00  0.00    -0.203 NA
ATOM     14  C   UNL     1      36.420 -22.068 -18.054  0.00  0.00    +0.091 C 
ATOM     15  C   UNL     1      34.854 -21.949 -19.706  0.00  0.00    +0.108 C 
ATOM     16  C   UNL     1      36.906 -20.852 -19.921  0.00  0.00    +0.165 C 
ATOM     17  C   UNL     1      35.677 -21.150 -20.474  0.00  0.00    +0.022 C 
ATOM     18  H   UNL     1      37.708 -22.260 -16.518  0.00  0.00    +0.164 HD
ENDBRANCH   3  11
BRANCH   9  21
ATOM     19  N   UNL     1      41.017 -26.728 -14.143  0.00  0.00    -0.343 N 
ATOM     20  N   UNL     1      41.077 -24.635 -15.181  0.00  0.00    -0.285 NA
ATOM     21  C   UNL     1      40.365 -25.583 -14.598  0.00  0.00    +0.117 C 
ATOM     22  H   UNL     1      41.990 -26.819 -14.260  0.00  0.00    +0.144 HD
ATOM     23  H   UNL     1      40.505 -27.445 -13.703  0.00  0.00    +0.144 HD
ATOM     24  H   UNL     1      42.049 -24.746 -15.290  0.00  0.00    +0.188 HD
ENDBRANCH   9  21
BRANCH   4  27
ATOM     25  O   UNL     1      32.134 -24.058 -13.495  0.00  0.00    -0.270 OA
ATOM     26  N   UNL     1      31.956 -23.370 -15.731  0.00  0.00    -0.280 N 
ATOM     27  C   UNL     1      32.649 -23.820 -14.598  0.00  0.00    +0.250 C 
ATOM     28  H   UNL     1      32.501 -23.225 -16.537  0.00  0.00    +0.155 HD
BRANCH  26  29
ATOM     29  C   UNL     1      30.572 -23.097 -15.866  0.00  0.00    +0.051 C 
ATOM     30  C   UNL     1      27.869 -22.563 -16.132  0.00  0.00    -0.044 C 
ATOM     31  C   UNL     1      29.914 -22.421 -14.854  0.00  0.00    +0.014 C 
ATOM     32  C   UNL     1      29.909 -23.513 -17.009  0.00  0.00    +0.014 C 
ATOM     33  C   UNL     1      28.552 -22.152 -14.987  0.00  0.00    -0.005 C 
ATOM     34  C   UNL     1      28.548 -23.244 -17.142  0.00  0.00    -0.005 C 
BRANCH  30  35
ATOM     35  C   UNL     1      26.413 -22.275 -16.274  0.00  0.00    -0.059 C 
BRANCH  35  36
ATOM     36  N   UNL     1      26.129 -21.435 -17.409  0.00  0.00    +0.383 N 
ATOM     37  H   UNL     1      25.520 -21.932 -18.058  0.00  0.00    -0.089 HD
ATOM     38  H   UNL     1      27.001 -21.191 -17.879  0.00  0.00    -0.089 HD
ATOM     39  H   UNL     1      25.665 -20.583 -17.093  0.00  0.00    -0.089 HD
ENDBRANCH  35  36
ENDBRANCH  30  35
ENDBRANCH  26  29
ENDBRANCH   4  27
TORSDOF 6
ENDMDL
MODEL 5
REMARK VINA RESULT:     -10.5      3.074      8.238
REMARK  Name = 448605
REMARK  6 active torsions:
REMARK  status: ('A' for Active; 'I' for Inactive)
REMARK    1  A    between atoms: C_3  and  N_11
REMARK    2  A    between atoms: C_4  and  C_27
REMARK    3  A    between atoms: C_9  and  C_21
REMARK    4  A    between atoms: N_26  and  C_29
REMARK    5  A    between atoms: C_30  and  C_35
REMARK    6  A    between atoms: C_35  and  N_36
REMARK                            x       y       z     vdW  Elec       q    Type
REMARK                         _______ _______ _______ _____ _____    ______ ____
ROOT
ATOM      1  C   UNL     1      31.109 -23.222 -16.493  0.00  0.00    +0.014 C 
ATOM      2  C   UNL     1      31.126 -23.959 -15.285  0.00  0.00    +0.001 C 
ATOM      3  C   UNL     1      32.324 -22.885 -17.110  0.00  0.00    +0.057 C 
ATOM      4  C   UNL     1      33.558 -23.993 -15.356  0.00  0.00    +0.055 C 
ATOM      5  C   UNL     1      32.360 -24.338 -14.729  0.00  0.00    +0.005 C 
ATOM      6  C   UNL     1      33.540 -23.269 -16.544  0.00  0.00    +0.020 C 
ATOM      7  C   UNL     1      29.876 -22.844 -17.049  0.00  0.00    +0.004 C 
ATOM      8  C   UNL     1      29.911 -24.296 -14.668  0.00  0.00    +0.000 C 
ATOM      9  C   UNL     1      28.677 -23.187 -16.422  0.00  0.00    +0.031 C 
ATOM     10  C   UNL     1      28.694 -23.913 -15.234  0.00  0.00    +0.003 C 
ENDROOT
BRANCH   3  11
ATOM     11  N   UNL     1      32.364 -22.149 -18.320  0.00  0.00    -0.257 N 
ATOM     12  N   UNL     1      34.669 -22.079 -18.752  0.00  0.00    -0.180 NA
ATOM     13  N   UNL     1      33.097 -21.030 -20.248  0.00  0.00    -0.203 NA
ATOM     14  C   UNL     1      33.423 -21.734 -19.143  0.00  0.00    +0.091 C 
ATOM     15  C   UNL     1      35.662 -21.665 -19.565  0.00  0.00    +0.108 C 
ATOM     16  C   UNL     1      34.139 -20.647 -21.015  0.00  0.00    +0.165 C 
ATOM     17  C   UNL     1      35.455 -20.939 -20.721  0.00  0.00    +0.022 C 
ATOM     18  H   UNL     1      31.476 -21.874 -18.646  0.00  0.00    +0.164 HD
ENDBRANCH   3  11
BRANCH   9  21
ATOM     19  N   UNL     1      26.427 -22.150 -16.254  0.00  0.00    -0.343 N 
ATOM     20  N   UNL     1      27.167 -23.036 -18.286  0.00  0.00    -0.285 NA
ATOM     21  C   UNL     1      27.408 -22.789 -17.010  0.00  0.00    +0.117 C 
ATOM     22  H   UNL     1      25.575 -21.890 -16.672  0.00  0.00    +0.144 HD
ATOM     23  H   UNL     1      26.586 -21.960 -15.300  0.00  0.00    +0.144 HD
ATOM     24  H   UNL     1      26.309 -22.766 -18.686  0.00  0.00    +0.188 HD
ENDBRANCH   9  21
BRANCH   4  27
ATOM     25  O   UNL     1      34.874 -24.652 -13.554  0.00  0.00    -0.270 OA
ATOM     26  N   UNL     1      35.911 -24.475 -15.652  0.00  0.00    -0.280 N 
ATOM     27  C   UNL     1      34.827 -24.393 -14.767  0.00  0.00    +0.250 C 
ATOM     28  H   UNL     1      35.720 -24.238 -16.587  0.00  0.00    +0.155 HD
BRANCH  26  29
ATOM     29  C   UNL     1      37.248 -24.857 -15.374  0.00  0.00    +0.051 C 
ATOM     30  C   UNL     1      39.858 -25.602 -14.832  0.00  0.00    -0.044 C 
ATOM     31  C   UNL     1      38.270 -23.953 -15.605  0.00  0.00    +0.014 C 
ATOM     32  C   UNL     1      37.501 -26.125 -14.880  0.00  0.00    +0.014 C 
ATOM     33  C   UNL     1      39.586 -24.328 -15.332  0.00  0.00    -0.005 C 
ATOM     34  C   UNL     1      38.815 -26.500 -14.606  0.00  0.00    -0.005 C 
BRANCH  30  35
ATOM     35  C   UNL     1      41.265 -26.002 -14.541  0.00  0.00    -0.059 C 
BRANCH  35  36
ATOM     36  N   UNL     1      41.345 -27.285 -13.890  0.00  0.00    +0.383 N 
ATOM     37  H   UNL     1      41.287 -28.026 -14.589  0.00  0.00    -0.089 HD
ATOM     38  H   UNL     1      40.574 -27.380 -13.229  0.00  0.00    -0.089 HD
ATOM     39  H   UNL     1      42.232 -27.358 -13.391  0.00  0.00    -0.089 HD
ENDBRANCH  35  36
ENDBRANCH  30  35
ENDBRANCH  26  29
ENDBRANCH   4  27
TORSDOF 6
ENDMDL
MODEL 6
REMARK VINA RESULT:      -9.8      1.870      4.589
REMARK  Name = 448605
REMARK  6 active torsions:
REMARK  status: ('A' for Active; 'I' for Inactive)
REMARK    1  A    between atoms: C_3  and  N_11
REMARK    2  A    between atoms: C_4  and  C_27
REMARK    3  A    between atoms: C_9  and  C_21
REMARK    4  A    between atoms: N_26  and  C_29
REMARK    5  A    between atoms: C_30  and  C_35
REMARK    6  A    between atoms: C_35  and  N_36
REMARK                            x       y       z     vdW  Elec       q    Type
REMARK                         _______ _______ _______ _____ _____    ______ ____
ROOT
ATOM      1  C   UNL     1      36.814 -23.633 -15.290  0.00  0.00    +0.014 C 
ATOM      2  C   UNL     1      38.033 -23.428 -15.981  0.00  0.00    +0.001 C 
ATOM      3  C   UNL     1      35.684 -22.884 -15.654  0.00  0.00    +0.057 C 
ATOM      4  C   UNL     1      36.951 -21.743 -17.364  0.00  0.00    +0.055 C 
ATOM      5  C   UNL     1      38.084 -22.479 -17.016  0.00  0.00    +0.005 C 
ATOM      6  C   UNL     1      35.753 -21.945 -16.685  0.00  0.00    +0.020 C 
ATOM      7  C   UNL     1      36.762 -24.582 -14.257  0.00  0.00    +0.004 C 
ATOM      8  C   UNL     1      39.163 -24.177 -15.617  0.00  0.00    +0.000 C 
ATOM      9  C   UNL     1      37.896 -25.318 -13.908  0.00  0.00    +0.031 C 
ATOM     10  C   UNL     1      39.094 -25.116 -14.588  0.00  0.00    +0.003 C 
ENDROOT
BRANCH   3  11
ATOM     11  N   UNL     1      34.440 -23.050 -14.997  0.00  0.00    -0.257 N 
ATOM     12  N   UNL     1      32.940 -22.962 -16.799  0.00  0.00    -0.180 NA
ATOM     13  N   UNL     1      32.148 -23.269 -14.544  0.00  0.00    -0.203 NA
ATOM     14  C   UNL     1      33.118 -23.096 -15.467  0.00  0.00    +0.091 C 
ATOM     15  C   UNL     1      31.658 -23.011 -17.216  0.00  0.00    +0.108 C 
ATOM     16  C   UNL     1      30.890 -23.309 -15.030  0.00  0.00    +0.165 C 
ATOM     17  C   UNL     1      30.582 -23.184 -16.370  0.00  0.00    +0.022 C 
ATOM     18  H   UNL     1      34.518 -23.151 -14.021  0.00  0.00    +0.164 HD
ENDBRANCH   3  11
BRANCH   9  21
ATOM     19  N   UNL     1      37.261 -27.555 -13.038  0.00  0.00    -0.343 N 
ATOM     20  N   UNL     1      38.301 -25.999 -11.640  0.00  0.00    -0.285 NA
ATOM     21  C   UNL     1      37.826 -26.297 -12.835  0.00  0.00    +0.117 C 
ATOM     22  H   UNL     1      37.224 -28.203 -12.298  0.00  0.00    +0.144 HD
ATOM     23  H   UNL     1      36.899 -27.796 -13.922  0.00  0.00    +0.144 HD
ATOM     24  H   UNL     1      38.255 -26.661 -10.912  0.00  0.00    +0.188 HD
ENDBRANCH   9  21
BRANCH   4  27
ATOM     25  O   UNL     1      37.855 -19.848 -18.364  0.00  0.00    -0.270 OA
ATOM     26  N   UNL     1      36.131 -20.960 -19.502  0.00  0.00    -0.280 N 
ATOM     27  C   UNL     1      37.021 -20.764 -18.437  0.00  0.00    +0.250 C 
ATOM     28  H   UNL     1      35.526 -21.732 -19.418  0.00  0.00    +0.155 HD
BRANCH  26  29
ATOM     29  C   UNL     1      35.987 -20.193 -20.684  0.00  0.00    +0.051 C 
ATOM     30  C   UNL     1      35.707 -18.693 -22.994  0.00  0.00    -0.044 C 
ATOM     31  C   UNL     1      37.028 -19.375 -21.090  0.00  0.00    +0.014 C 
ATOM     32  C   UNL     1      34.809 -20.277 -21.407  0.00  0.00    +0.014 C 
ATOM     33  C   UNL     1      36.887 -18.619 -22.254  0.00  0.00    -0.005 C 
ATOM     34  C   UNL     1      34.669 -19.522 -22.570  0.00  0.00    -0.005 C 
BRANCH  30  35
ATOM     35  C   UNL     1      35.557 -17.885 -24.239  0.00  0.00    -0.059 C 
BRANCH  35  36
ATOM     36  N   UNL     1      35.939 -16.509 -24.048  0.00  0.00    +0.383 N 
ATOM     37  H   UNL     1      35.367 -16.096 -23.311  0.00  0.00    -0.089 HD
ATOM     38  H   UNL     1      35.798 -15.994 -24.917  0.00  0.00    -0.089 HD
ATOM     39  H   UNL     1      36.922 -16.464 -23.782  0.00  0.00    -0.089 HD
ENDBRANCH  35  36
ENDBRANCH  30  35
ENDBRANCH  26  29
ENDBRANCH   4  27
TORSDOF 6
ENDMDL
MODEL 7
REMARK VINA RESULT:      -9.4     10.103     17.473
REMARK  Name = 448605
REMARK  6 active torsions:
REMARK  status: ('A' for Active; 'I' for Inactive)
REMARK    1  A    between atoms: C_3  and  N_11
REMARK    2  A    between atoms: C_4  and  C_27
REMARK    3  A    between atoms: C_9  and  C_21
REMARK    4  A    between atoms: N_26  and  C_29
REMARK    5  A    between atoms: C_30  and  C_35
REMARK    6  A    between atoms: C_35  and  N_36
REMARK                            x       y       z     vdW  Elec       q    Type
REMARK                         _______ _______ _______ _____ _____    ______ ____
ROOT
ATOM      1  C   UNL     1      32.703  -6.205 -23.566  0.00  0.00    +0.014 C 
ATOM      2  C   UNL     1      31.684  -6.925 -22.895  0.00  0.00    +0.001 C 
ATOM      3  C   UNL     1      33.793  -6.902 -24.109  0.00  0.00    +0.057 C 
ATOM      4  C   UNL     1      32.881  -8.998 -23.333  0.00  0.00    +0.055 C 
ATOM      5  C   UNL     1      31.789  -8.322 -22.788  0.00  0.00    +0.005 C 
ATOM      6  C   UNL     1      33.881  -8.290 -23.993  0.00  0.00    +0.020 C 
ATOM      7  C   UNL     1      32.598  -4.809 -23.674  0.00  0.00    +0.004 C 
ATOM      8  C   UNL     1      30.594  -6.228 -22.352  0.00  0.00    +0.000 C 
ATOM      9  C   UNL     1      31.506  -4.132 -23.129  0.00  0.00    +0.031 C 
ATOM     10  C   UNL     1      30.506  -4.840 -22.469  0.00  0.00    +0.003 C 
ENDROOT
BRANCH   3  11
ATOM     11  N   UNL     1      34.839  -6.231 -24.791  0.00  0.00    -0.257 N 
ATOM     12  N   UNL     1      33.696  -5.324 -26.628  0.00  0.00    -0.180 NA
ATOM     13  N   UNL     1      36.062  -4.968 -26.344  0.00  0.00    -0.203 NA
ATOM     14  C   UNL     1      34.867  -5.474 -25.973  0.00  0.00    +0.091 C 
ATOM     15  C   UNL     1      33.760  -4.592 -27.759  0.00  0.00    +0.108 C 
ATOM     16  C   UNL     1      36.053  -4.246 -27.484  0.00  0.00    +0.165 C 
ATOM     17  C   UNL     1      34.921  -4.022 -28.240  0.00  0.00    +0.022 C 
ATOM     18  H   UNL     1      35.715  -6.313 -24.350  0.00  0.00    +0.164 HD
ENDBRANCH   3  11
BRANCH   9  21
ATOM     19  N   UNL     1      30.472  -1.957 -22.524  0.00  0.00    -0.343 N 
ATOM     20  N   UNL     1      32.228  -2.039 -24.063  0.00  0.00    -0.285 NA
ATOM     21  C   UNL     1      31.413  -2.685 -23.249  0.00  0.00    +0.117 C 
ATOM     22  H   UNL     1      30.425  -0.979 -22.621  0.00  0.00    +0.144 HD
ATOM     23  H   UNL     1      29.853  -2.421 -21.914  0.00  0.00    +0.144 HD
ATOM     24  H   UNL     1      32.167  -1.059 -24.146  0.00  0.00    +0.188 HD
ENDBRANCH   9  21
BRANCH   4  27
ATOM     25  O   UNL     1      32.353 -11.015 -22.301  0.00  0.00    -0.270 OA
ATOM     26  N   UNL     1      33.758 -11.089 -24.179  0.00  0.00    -0.280 N 
ATOM     27  C   UNL     1      32.973 -10.445 -23.213  0.00  0.00    +0.250 C 
ATOM     28  H   UNL     1      34.190 -10.503 -24.840  0.00  0.00    +0.155 HD
BRANCH  26  29
ATOM     29  C   UNL     1      34.011 -12.476 -24.328  0.00  0.00    +0.051 C 
ATOM     30  C   UNL     1      34.504 -15.184 -24.620  0.00  0.00    -0.044 C 
ATOM     31  C   UNL     1      34.578 -13.176 -23.278  0.00  0.00    +0.014 C 
ATOM     32  C   UNL     1      33.684 -13.098 -25.521  0.00  0.00    +0.014 C 
ATOM     33  C   UNL     1      34.827 -14.541 -23.425  0.00  0.00    -0.005 C 
ATOM     34  C   UNL     1      33.932 -14.462 -25.667  0.00  0.00    -0.005 C 
BRANCH  30  35
ATOM     35  C   UNL     1      34.769 -16.643 -24.776  0.00  0.00    -0.059 C 
BRANCH  35  36
ATOM     36  N   UNL     1      35.836 -17.100 -23.923  0.00  0.00    +0.383 N 
ATOM     37  H   UNL     1      36.419 -17.765 -24.431  0.00  0.00    -0.089 HD
ATOM     38  H   UNL     1      35.441 -17.555 -23.099  0.00  0.00    -0.089 HD
ATOM     39  H   UNL     1      36.403 -16.304 -23.632  0.00  0.00    -0.089 HD
ENDBRANCH  35  36
ENDBRANCH  30  35
ENDBRANCH  26  29
ENDBRANCH   4  27
TORSDOF 6
ENDMDL
