MODEL 1
REMARK VINA RESULT:     -12.1      0.000      0.000
REMARK  Name = 447731
REMARK  4 active torsions:
REMARK  status: ('A' for Active; 'I' for Inactive)
REMARK    1  A    between atoms: N_2  and  C_13
REMARK    2  A    between atoms: C_3  and  C_19
REMARK    3  A    between atoms: C_6  and  C_17
REMARK    4  A    between atoms: C_27  and  C_31
REMARK                            x       y       z     vdW  Elec       q    Type
REMARK                         _______ _______ _______ _____ _____    ______ ____
ROOT
ATOM      1  O   UNL     1      34.002 -23.918 -18.212  0.00  0.00    -0.270 OA
ATOM      2  N   UNL     1      35.458 -22.506 -17.021  0.00  0.00    -0.280 N 
ATOM      3  C   UNL     1      34.639 -22.876 -18.096  0.00  0.00    +0.249 C 
ATOM      4  H   UNL     1      35.896 -21.628 -17.095  0.00  0.00    +0.155 HD
ENDROOT
BRANCH   2  13
ATOM      5  N   UNL     1      37.459 -26.599 -12.461  0.00  0.00    +0.387 N 
ATOM      6  C   UNL     1      38.383 -25.676 -14.558  0.00  0.00    +0.001 C 
ATOM      7  C   UNL     1      37.165 -24.767 -14.630  0.00  0.00    -0.029 C 
ATOM      8  C   UNL     1      38.680 -26.132 -13.116  0.00  0.00    -0.077 C 
ATOM      9  C   UNL     1      36.268 -24.706 -13.544  0.00  0.00    -0.048 C 
ATOM     10  C   UNL     1      36.533 -25.478 -12.276  0.00  0.00    -0.055 C 
ATOM     11  C   UNL     1      36.866 -24.038 -15.793  0.00  0.00    +0.010 C 
ATOM     12  C   UNL     1      35.135 -23.881 -13.618  0.00  0.00    -0.005 C 
ATOM     13  C   UNL     1      35.729 -23.231 -15.859  0.00  0.00    +0.050 C 
ATOM     14  C   UNL     1      34.868 -23.148 -14.770  0.00  0.00    +0.014 C 
ATOM     15  H   UNL     1      37.693 -26.997 -11.552  0.00  0.00    -0.084 HD
ATOM     16  H   UNL     1      37.015 -27.308 -13.045  0.00  0.00    -0.084 HD
BRANCH   6  17
ATOM     17  C   UNL     1      39.654 -25.050 -15.143  0.00  0.00    +0.002 C 
ATOM     18  C   UNL     1      40.889 -25.802 -14.698  0.00  0.00    +0.000 C 
ENDBRANCH   6  17
ENDBRANCH   2  13
BRANCH   3  19
ATOM     19  C   UNL     1      34.571 -21.897 -19.212  0.00  0.00    +0.054 C 
ATOM     20  C   UNL     1      35.688 -20.371 -20.698  0.00  0.00    +0.000 C 
ATOM     21  C   UNL     1      34.442 -20.068 -21.297  0.00  0.00    +0.000 C 
ATOM     22  C   UNL     1      35.736 -21.299 -19.644  0.00  0.00    +0.005 C 
ATOM     23  C   UNL     1      33.347 -21.620 -19.777  0.00  0.00    +0.005 C 
ATOM     24  C   UNL     1      33.281 -20.701 -20.824  0.00  0.00    +0.000 C 
ATOM     25  C   UNL     1      34.394 -19.140 -22.350  0.00  0.00    +0.003 C 
ATOM     26  C   UNL     1      36.849 -19.737 -21.170  0.00  0.00    +0.000 C 
ATOM     27  C   UNL     1      35.557 -18.520 -22.806  0.00  0.00    +0.031 C 
ATOM     28  C   UNL     1      36.783 -18.819 -22.217  0.00  0.00    +0.003 C 
BRANCH  27  31
ATOM     29  N   UNL     1      34.836 -17.865 -25.090  0.00  0.00    -0.343 N 
ATOM     30  N   UNL     1      36.061 -16.378 -23.770  0.00  0.00    -0.285 NA
ATOM     31  C   UNL     1      35.490 -17.561 -23.898  0.00  0.00    +0.117 C 
ATOM     32  H   UNL     1      34.802 -17.202 -25.816  0.00  0.00    +0.144 HD
ATOM     33  H   UNL     1      34.406 -18.744 -25.206  0.00  0.00    +0.144 HD
ATOM     34  H   UNL     1      36.017 -15.727 -24.508  0.00  0.00    +0.188 HD
ENDBRANCH  27  31
ENDBRANCH   3  19
TORSDOF 4
ENDMDL
MODEL 2
REMARK VINA RESULT:     -11.5      1.182      2.652
REMARK  Name = 447731
REMARK  4 active torsions:
REMARK  status: ('A' for Active; 'I' for Inactive)
REMARK    1  A    between atoms: N_2  and  C_13
REMARK    2  A    between atoms: C_3  and  C_19
REMARK    3  A    between atoms: C_6  and  C_17
REMARK    4  A    between atoms: C_27  and  C_31
REMARK                            x       y       z     vdW  Elec       q    Type
REMARK                         _______ _______ _______ _____ _____    ______ ____
ROOT
ATOM      1  O   UNL     1      34.487 -23.496 -18.337  0.00  0.00    -0.270 OA
ATOM      2  N   UNL     1      36.143 -22.076 -17.459  0.00  0.00    -0.280 N 
ATOM      3  C   UNL     1      35.164 -22.475 -18.379  0.00  0.00    +0.249 C 
ATOM      4  H   UNL     1      36.592 -21.221 -17.649  0.00  0.00    +0.155 HD
ENDROOT
BRANCH   2  13
ATOM      5  N   UNL     1      36.954 -24.650 -11.605  0.00  0.00    +0.387 N 
ATOM      6  C   UNL     1      35.033 -24.038 -13.032  0.00  0.00    +0.001 C 
ATOM      7  C   UNL     1      36.027 -23.730 -14.142  0.00  0.00    -0.029 C 
ATOM      8  C   UNL     1      35.604 -25.038 -12.007  0.00  0.00    -0.077 C 
ATOM      9  C   UNL     1      37.388 -24.056 -13.978  0.00  0.00    -0.048 C 
ATOM     10  C   UNL     1      37.869 -24.775 -12.743  0.00  0.00    -0.055 C 
ATOM     11  C   UNL     1      35.633 -23.049 -15.306  0.00  0.00    +0.010 C 
ATOM     12  C   UNL     1      38.308 -23.755 -14.994  0.00  0.00    -0.005 C 
ATOM     13  C   UNL     1      36.559 -22.743 -16.305  0.00  0.00    +0.050 C 
ATOM     14  C   UNL     1      37.894 -23.101 -16.152  0.00  0.00    +0.014 C 
ATOM     15  H   UNL     1      37.270 -25.257 -10.849  0.00  0.00    -0.084 HD
ATOM     16  H   UNL     1      36.944 -23.680 -11.288  0.00  0.00    -0.084 HD
BRANCH   6  17
ATOM     17  C   UNL     1      33.690 -24.575 -13.541  0.00  0.00    +0.002 C 
ATOM     18  C   UNL     1      32.635 -23.489 -13.548  0.00  0.00    +0.000 C 
ENDBRANCH   6  17
ENDBRANCH   2  13
BRANCH   3  19
ATOM     19  C   UNL     1      34.963 -21.558 -19.532  0.00  0.00    +0.054 C 
ATOM     20  C   UNL     1      35.883 -20.037 -21.152  0.00  0.00    +0.000 C 
ATOM     21  C   UNL     1      34.585 -19.846 -21.685  0.00  0.00    +0.000 C 
ATOM     22  C   UNL     1      36.057 -20.907 -20.063  0.00  0.00    +0.005 C 
ATOM     23  C   UNL     1      33.691 -21.390 -20.031  0.00  0.00    +0.005 C 
ATOM     24  C   UNL     1      33.500 -20.530 -21.112  0.00  0.00    +0.000 C 
ATOM     25  C   UNL     1      34.410 -18.977 -22.774  0.00  0.00    +0.003 C 
ATOM     26  C   UNL     1      36.967 -19.353 -21.725  0.00  0.00    +0.000 C 
ATOM     27  C   UNL     1      35.499 -18.305 -23.330  0.00  0.00    +0.031 C 
ATOM     28  C   UNL     1      36.775 -18.493 -22.806  0.00  0.00    +0.003 C 
BRANCH  27  31
ATOM     29  N   UNL     1      35.769 -16.096 -24.429  0.00  0.00    -0.343 N 
ATOM     30  N   UNL     1      34.665 -17.833 -25.532  0.00  0.00    -0.285 NA
ATOM     31  C   UNL     1      35.301 -17.408 -24.457  0.00  0.00    +0.117 C 
ATOM     32  H   UNL     1      35.624 -15.505 -25.204  0.00  0.00    +0.144 HD
ATOM     33  H   UNL     1      36.244 -15.758 -23.635  0.00  0.00    +0.144 HD
ATOM     34  H   UNL     1      34.529 -17.227 -26.297  0.00  0.00    +0.188 HD
ENDBRANCH  27  31
ENDBRANCH   3  19
TORSDOF 4
ENDMDL
MODEL 3
REMARK VINA RESULT:     -11.0      2.216     10.218
REMARK  Name = 447731
REMARK  4 active torsions:
REMARK  status: ('A' for Active; 'I' for Inactive)
REMARK    1  A    between atoms: N_2  and  C_13
REMARK    2  A    between atoms: C_3  and  C_19
REMARK    3  A    between atoms: C_6  and  C_17
REMARK    4  A    between atoms: C_27  and  C_31
REMARK                            x       y       z     vdW  Elec       q    Type
REMARK                         _______ _______ _______ _____ _____    ______ ____
ROOT
ATOM      1  O   UNL     1      33.184 -20.960 -20.923  0.00  0.00    -0.270 OA
ATOM      2  N   UNL     1      35.337 -20.013 -20.932  0.00  0.00    -0.280 N 
ATOM      3  C   UNL     1      34.313 -20.843 -20.457  0.00  0.00    +0.249 C 
ATOM      4  H   UNL     1      36.186 -20.045 -20.434  0.00  0.00    +0.155 HD
ENDROOT
BRANCH   2  13
ATOM      5  N   UNL     1      34.360 -15.290 -25.208  0.00  0.00    +0.387 N 
ATOM      6  C   UNL     1      34.450 -15.474 -22.746  0.00  0.00    +0.001 C 
ATOM      7  C   UNL     1      34.892 -16.919 -22.926  0.00  0.00    -0.029 C 
ATOM      8  C   UNL     1      34.777 -14.612 -23.982  0.00  0.00    -0.077 C 
ATOM      9  C   UNL     1      35.201 -17.405 -24.213  0.00  0.00    -0.048 C 
ATOM     10  C   UNL     1      35.171 -16.492 -25.414  0.00  0.00    -0.055 C 
ATOM     11  C   UNL     1      34.924 -17.813 -21.844  0.00  0.00    +0.010 C 
ATOM     12  C   UNL     1      35.591 -18.742 -24.382  0.00  0.00    -0.005 C 
ATOM     13  C   UNL     1      35.301 -19.145 -22.026  0.00  0.00    +0.050 C 
ATOM     14  C   UNL     1      35.640 -19.607 -23.292  0.00  0.00    +0.014 C 
ATOM     15  H   UNL     1      34.482 -14.659 -26.001  0.00  0.00    -0.084 HD
ATOM     16  H   UNL     1      33.378 -15.557 -25.127  0.00  0.00    -0.084 HD
BRANCH   6  17
ATOM     17  C   UNL     1      35.049 -14.798 -21.507  0.00  0.00    +0.002 C 
ATOM     18  C   UNL     1      33.986 -14.069 -20.715  0.00  0.00    +0.000 C 
ENDBRANCH   6  17
ENDBRANCH   2  13
BRANCH   3  19
ATOM     19  C   UNL     1      34.647 -21.637 -19.246  0.00  0.00    +0.054 C 
ATOM     20  C   UNL     1      36.260 -22.318 -17.597  0.00  0.00    +0.000 C 
ATOM     21  C   UNL     1      35.269 -23.120 -16.982  0.00  0.00    +0.000 C 
ATOM     22  C   UNL     1      35.929 -21.573 -18.741  0.00  0.00    +0.005 C 
ATOM     23  C   UNL     1      33.665 -22.409 -18.667  0.00  0.00    +0.005 C 
ATOM     24  C   UNL     1      33.976 -23.155 -17.531  0.00  0.00    +0.000 C 
ATOM     25  C   UNL     1      35.599 -23.865 -15.839  0.00  0.00    +0.003 C 
ATOM     26  C   UNL     1      37.552 -22.284 -17.049  0.00  0.00    +0.000 C 
ATOM     27  C   UNL     1      36.889 -23.820 -15.308  0.00  0.00    +0.031 C 
ATOM     28  C   UNL     1      37.863 -23.030 -15.912  0.00  0.00    +0.003 C 
BRANCH  27  31
ATOM     29  N   UNL     1      36.448 -25.696 -13.743  0.00  0.00    -0.343 N 
ATOM     30  N   UNL     1      38.254 -24.261 -13.381  0.00  0.00    -0.285 NA
ATOM     31  C   UNL     1      37.215 -24.596 -14.123  0.00  0.00    +0.117 C 
ATOM     32  H   UNL     1      36.686 -26.209 -12.937  0.00  0.00    +0.144 HD
ATOM     33  H   UNL     1      35.667 -25.961 -14.282  0.00  0.00    +0.144 HD
ATOM     34  H   UNL     1      38.477 -24.785 -12.578  0.00  0.00    +0.188 HD
ENDBRANCH  27  31
ENDBRANCH   3  19
TORSDOF 4
ENDMDL
MODEL 4
REMARK VINA RESULT:     -10.9      8.750     15.533
REMARK  Name = 447731
REMARK  4 active torsions:
REMARK  status: ('A' for Active; 'I' for Inactive)
REMARK    1  A    between atoms: N_2  and  C_13
REMARK    2  A    between atoms: C_3  and  C_19
REMARK    3  A    between atoms: C_6  and  C_17
REMARK    4  A    between atoms: C_27  and  C_31
REMARK                            x       y       z     vdW  Elec       q    Type
REMARK                         _______ _______ _______ _____ _____    ______ ____
ROOT
ATOM      1  O   UNL     1      30.927 -11.070 -22.130  0.00  0.00    -0.270 OA
ATOM      2  N   UNL     1      32.922 -10.109 -22.922  0.00  0.00    -0.280 N 
ATOM      3  C   UNL     1      32.121 -11.134 -22.403  0.00  0.00    +0.249 C 
ATOM      4  H   UNL     1      33.867 -10.337 -23.082  0.00  0.00    +0.155 HD
ENDROOT
BRANCH   2  13
ATOM      5  N   UNL     1      32.491  -3.833 -24.325  0.00  0.00    +0.387 N 
ATOM      6  C   UNL     1      34.143  -5.632 -24.695  0.00  0.00    +0.001 C 
ATOM      7  C   UNL     1      33.123  -6.609 -24.128  0.00  0.00    -0.029 C 
ATOM      8  C   UNL     1      33.475  -4.366 -25.266  0.00  0.00    -0.077 C 
ATOM      9  C   UNL     1      31.809  -6.175 -23.857  0.00  0.00    -0.048 C 
ATOM     10  C   UNL     1      31.373  -4.770 -24.188  0.00  0.00    -0.055 C 
ATOM     11  C   UNL     1      33.482  -7.924 -23.789  0.00  0.00    +0.010 C 
ATOM     12  C   UNL     1      30.874  -7.071 -23.317  0.00  0.00    -0.005 C 
ATOM     13  C   UNL     1      32.546  -8.803 -23.240  0.00  0.00    +0.050 C 
ATOM     14  C   UNL     1      31.242  -8.378 -23.010  0.00  0.00    +0.014 C 
ATOM     15  H   UNL     1      32.142  -2.939 -24.671  0.00  0.00    -0.084 HD
ATOM     16  H   UNL     1      32.934  -3.702 -23.416  0.00  0.00    -0.084 HD
BRANCH   6  17
ATOM     17  C   UNL     1      35.041  -6.241 -25.778  0.00  0.00    +0.002 C 
ATOM     18  C   UNL     1      35.729  -5.163 -26.588  0.00  0.00    +0.000 C 
ENDBRANCH   6  17
ENDBRANCH   2  13
BRANCH   3  19
ATOM     19  C   UNL     1      32.822 -12.419 -22.140  0.00  0.00    +0.054 C 
ATOM     20  C   UNL     1      34.116 -14.276 -22.955  0.00  0.00    +0.000 C 
ATOM     21  C   UNL     1      34.130 -14.818 -21.647  0.00  0.00    +0.000 C 
ATOM     22  C   UNL     1      33.450 -13.060 -23.187  0.00  0.00    +0.005 C 
ATOM     23  C   UNL     1      32.821 -12.925 -20.860  0.00  0.00    +0.005 C 
ATOM     24  C   UNL     1      33.477 -14.130 -20.611  0.00  0.00    +0.000 C 
ATOM     25  C   UNL     1      34.795 -16.033 -21.414  0.00  0.00    +0.003 C 
ATOM     26  C   UNL     1      34.768 -14.964 -23.990  0.00  0.00    +0.000 C 
ATOM     27  C   UNL     1      35.438 -16.703 -22.455  0.00  0.00    +0.031 C 
ATOM     28  C   UNL     1      35.424 -16.169 -23.741  0.00  0.00    +0.003 C 
BRANCH  27  31
ATOM     29  N   UNL     1      37.237 -18.343 -22.942  0.00  0.00    -0.343 N 
ATOM     30  N   UNL     1      35.687 -18.763 -21.246  0.00  0.00    -0.285 NA
ATOM     31  C   UNL     1      36.123 -17.960 -22.198  0.00  0.00    +0.117 C 
ATOM     32  H   UNL     1      37.686 -19.198 -22.751  0.00  0.00    +0.144 HD
ATOM     33  H   UNL     1      37.576 -17.759 -23.658  0.00  0.00    +0.144 HD
ATOM     34  H   UNL     1      36.149 -19.615 -21.070  0.00  0.00    +0.188 HD
ENDBRANCH  27  31
ENDBRANCH   3  19
TORSDOF 4
ENDMDL
MODEL 5
REMARK VINA RESULT:     -10.8      2.235     10.461
REMARK  Name = 447731
REMARK  4 active torsions:
REMARK  status: ('A' for Active; 'I' for Inactive)
REMARK    1  A    between atoms: N_2  and  C_13
REMARK    2  A    between atoms: C_3  and  C_19
REMARK    3  A    between atoms: C_6  and  C_17
REMARK    4  A    between atoms: C_27  and  C_31
REMARK                            x       y       z     vdW  Elec       q    Type
REMARK                         _______ _______ _______ _____ _____    ______ ____
ROOT
ATOM      1  O   UNL     1      34.045 -21.187 -20.960  0.00  0.00    -0.270 OA
ATOM      2  N   UNL     1      35.883 -19.724 -20.851  0.00  0.00    -0.280 N 
ATOM      3  C   UNL     1      35.073 -20.785 -20.425  0.00  0.00    +0.249 C 
ATOM      4  H   UNL     1      36.677 -19.538 -20.298  0.00  0.00    +0.155 HD
ENDROOT
BRANCH   2  13
ATOM      5  N   UNL     1      34.203 -15.264 -25.190  0.00  0.00    +0.387 N 
ATOM      6  C   UNL     1      34.425 -15.364 -22.731  0.00  0.00    +0.001 C 
ATOM      7  C   UNL     1      35.013 -16.758 -22.897  0.00  0.00    -0.029 C 
ATOM      8  C   UNL     1      34.599 -14.509 -24.003  0.00  0.00    -0.077 C 
ATOM      9  C   UNL     1      35.315 -17.245 -24.185  0.00  0.00    -0.048 C 
ATOM     10  C   UNL     1      35.131 -16.378 -25.405  0.00  0.00    -0.055 C 
ATOM     11  C   UNL     1      35.192 -17.610 -21.795  0.00  0.00    +0.010 C 
ATOM     12  C   UNL     1      35.841 -18.537 -24.339  0.00  0.00    -0.005 C 
ATOM     13  C   UNL     1      35.704 -18.899 -21.962  0.00  0.00    +0.050 C 
ATOM     14  C   UNL     1      36.033 -19.359 -23.232  0.00  0.00    +0.014 C 
ATOM     15  H   UNL     1      34.220 -14.649 -26.003  0.00  0.00    -0.084 HD
ATOM     16  H   UNL     1      33.261 -15.633 -25.055  0.00  0.00    -0.084 HD
BRANCH   6  17
ATOM     17  C   UNL     1      35.002 -14.591 -21.540  0.00  0.00    +0.002 C 
ATOM     18  C   UNL     1      33.900 -14.052 -20.653  0.00  0.00    +0.000 C 
ENDBRANCH   6  17
ENDBRANCH   2  13
BRANCH   3  19
ATOM     19  C   UNL     1      35.514 -21.463 -19.178  0.00  0.00    +0.054 C 
ATOM     20  C   UNL     1      35.011 -22.892 -17.309  0.00  0.00    +0.000 C 
ATOM     21  C   UNL     1      36.339 -22.728 -16.848  0.00  0.00    +0.000 C 
ATOM     22  C   UNL     1      34.609 -22.244 -18.490  0.00  0.00    +0.005 C 
ATOM     23  C   UNL     1      36.810 -21.287 -18.750  0.00  0.00    +0.005 C 
ATOM     24  C   UNL     1      37.226 -21.922 -17.580  0.00  0.00    +0.000 C 
ATOM     25  C   UNL     1      36.741 -23.374 -15.667  0.00  0.00    +0.003 C 
ATOM     26  C   UNL     1      34.124 -23.697 -16.577  0.00  0.00    +0.000 C 
ATOM     27  C   UNL     1      35.846 -24.170 -14.952  0.00  0.00    +0.031 C 
ATOM     28  C   UNL     1      34.540 -24.331 -15.407  0.00  0.00    +0.003 C 
BRANCH  27  31
ATOM     29  N   UNL     1      37.587 -25.281 -13.575  0.00  0.00    -0.343 N 
ATOM     30  N   UNL     1      35.419 -25.022 -12.747  0.00  0.00    -0.285 NA
ATOM     31  C   UNL     1      36.277 -24.832 -13.732  0.00  0.00    +0.117 C 
ATOM     32  H   UNL     1      37.859 -25.727 -12.740  0.00  0.00    +0.144 HD
ATOM     33  H   UNL     1      38.242 -25.152 -14.299  0.00  0.00    +0.144 HD
ATOM     34  H   UNL     1      35.709 -25.471 -11.920  0.00  0.00    +0.188 HD
ENDBRANCH  27  31
ENDBRANCH   3  19
TORSDOF 4
ENDMDL
MODEL 6
REMARK VINA RESULT:     -10.5      8.604     15.512
REMARK  Name = 447731
REMARK  4 active torsions:
REMARK  status: ('A' for Active; 'I' for Inactive)
REMARK    1  A    between atoms: N_2  and  C_13
REMARK    2  A    between atoms: C_3  and  C_19
REMARK    3  A    between atoms: C_6  and  C_17
REMARK    4  A    between atoms: C_27  and  C_31
REMARK                            x       y       z     vdW  Elec       q    Type
REMARK                         _______ _______ _______ _____ _____    ______ ____
ROOT
ATOM      1  O   UNL     1      32.108 -11.264 -21.795  0.00  0.00    -0.270 OA
ATOM      2  N   UNL     1      33.128 -10.316 -23.690  0.00  0.00    -0.280 N 
ATOM      3  C   UNL     1      32.837 -11.339 -22.778  0.00  0.00    +0.249 C 
ATOM      4  H   UNL     1      33.737 -10.554 -24.426  0.00  0.00    +0.155 HD
ENDROOT
BRANCH   2  13
ATOM      5  N   UNL     1      32.268  -3.928 -23.668  0.00  0.00    +0.387 N 
ATOM      6  C   UNL     1      33.948  -5.497 -24.574  0.00  0.00    +0.001 C 
ATOM      7  C   UNL     1      33.040  -6.636 -24.132  0.00  0.00    -0.029 C 
ATOM      8  C   UNL     1      33.165  -4.187 -24.792  0.00  0.00    -0.077 C 
ATOM      9  C   UNL     1      31.746  -6.357 -23.647  0.00  0.00    -0.048 C 
ATOM     10  C   UNL     1      31.215  -4.946 -23.625  0.00  0.00    -0.055 C 
ATOM     11  C   UNL     1      33.492  -7.966 -24.120  0.00  0.00    +0.010 C 
ATOM     12  C   UNL     1      30.917  -7.406 -23.223  0.00  0.00    -0.005 C 
ATOM     13  C   UNL     1      32.662  -9.000 -23.683  0.00  0.00    +0.050 C 
ATOM     14  C   UNL     1      31.374  -8.721 -23.240  0.00  0.00    +0.014 C 
ATOM     15  H   UNL     1      31.844  -3.007 -23.778  0.00  0.00    -0.084 HD
ATOM     16  H   UNL     1      32.801  -3.961 -22.799  0.00  0.00    -0.084 HD
BRANCH   6  17
ATOM     17  C   UNL     1      34.748  -5.806 -25.845  0.00  0.00    +0.002 C 
ATOM     18  C   UNL     1      34.529  -4.743 -26.899  0.00  0.00    +0.000 C 
ENDBRANCH   6  17
ENDBRANCH   2  13
BRANCH   3  19
ATOM     19  C   UNL     1      33.515 -12.636 -23.038  0.00  0.00    +0.054 C 
ATOM     20  C   UNL     1      34.426 -14.700 -22.204  0.00  0.00    +0.000 C 
ATOM     21  C   UNL     1      34.781 -15.059 -23.526  0.00  0.00    +0.000 C 
ATOM     22  C   UNL     1      33.786 -13.470 -21.974  0.00  0.00    +0.005 C 
ATOM     23  C   UNL     1      33.849 -12.962 -24.333  0.00  0.00    +0.005 C 
ATOM     24  C   UNL     1      34.486 -14.178 -24.580  0.00  0.00    +0.000 C 
ATOM     25  C   UNL     1      35.421 -16.288 -23.756  0.00  0.00    +0.003 C 
ATOM     26  C   UNL     1      34.721 -15.580 -21.151  0.00  0.00    +0.000 C 
ATOM     27  C   UNL     1      35.707 -17.150 -22.698  0.00  0.00    +0.031 C 
ATOM     28  C   UNL     1      35.358 -16.796 -21.397  0.00  0.00    +0.003 C 
BRANCH  27  31
ATOM     29  N   UNL     1      37.719 -18.604 -22.653  0.00  0.00    -0.343 N 
ATOM     30  N   UNL     1      35.694 -19.421 -23.482  0.00  0.00    -0.285 NA
ATOM     31  C   UNL     1      36.371 -18.419 -22.952  0.00  0.00    +0.117 C 
ATOM     32  H   UNL     1      38.148 -19.472 -22.833  0.00  0.00    +0.144 HD
ATOM     33  H   UNL     1      38.242 -17.869 -22.260  0.00  0.00    +0.144 HD
ATOM     34  H   UNL     1      36.141 -20.281 -23.655  0.00  0.00    +0.188 HD
ENDBRANCH  27  31
ENDBRANCH   3  19
TORSDOF 4
ENDMDL
MODEL 7
REMARK VINA RESULT:     -10.4      2.821     10.348
REMARK  Name = 447731
REMARK  4 active torsions:
REMARK  status: ('A' for Active; 'I' for Inactive)
REMARK    1  A    between atoms: N_2  and  C_13
REMARK    2  A    between atoms: C_3  and  C_19
REMARK    3  A    between atoms: C_6  and  C_17
REMARK    4  A    between atoms: C_27  and  C_31
REMARK                            x       y       z     vdW  Elec       q    Type
REMARK                         _______ _______ _______ _____ _____    ______ ____
ROOT
ATOM      1  O   UNL     1      37.147 -21.273 -20.900  0.00  0.00    -0.270 OA
ATOM      2  N   UNL     1      35.226 -19.937 -20.663  0.00  0.00    -0.280 N 
ATOM      3  C   UNL     1      36.144 -20.925 -20.285  0.00  0.00    +0.249 C 
ATOM      4  H   UNL     1      34.474 -19.787 -20.045  0.00  0.00    +0.155 HD
ENDROOT
BRANCH   2  13
ATOM      5  N   UNL     1      34.485 -15.479 -25.259  0.00  0.00    +0.387 N 
ATOM      6  C   UNL     1      34.481 -15.509 -22.788  0.00  0.00    +0.001 C 
ATOM      7  C   UNL     1      34.906 -16.969 -22.861  0.00  0.00    -0.029 C 
ATOM      8  C   UNL     1      34.867 -14.731 -24.062  0.00  0.00    -0.077 C 
ATOM      9  C   UNL     1      35.255 -17.539 -24.103  0.00  0.00    -0.048 C 
ATOM     10  C   UNL     1      35.283 -16.703 -25.358  0.00  0.00    -0.055 C 
ATOM     11  C   UNL     1      34.883 -17.793 -21.724  0.00  0.00    +0.010 C 
ATOM     12  C   UNL     1      35.629 -18.889 -24.173  0.00  0.00    -0.005 C 
ATOM     13  C   UNL     1      35.245 -19.139 -21.809  0.00  0.00    +0.050 C 
ATOM     14  C   UNL     1      35.623 -19.685 -23.030  0.00  0.00    +0.014 C 
ATOM     15  H   UNL     1      34.647 -14.902 -26.084  0.00  0.00    -0.084 HD
ATOM     16  H   UNL     1      33.497 -15.727 -25.198  0.00  0.00    -0.084 HD
BRANCH   6  17
ATOM     17  C   UNL     1      35.045 -14.765 -21.572  0.00  0.00    +0.002 C 
ATOM     18  C   UNL     1      33.937 -14.316 -20.645  0.00  0.00    +0.000 C 
ENDBRANCH   6  17
ENDBRANCH   2  13
BRANCH   3  19
ATOM     19  C   UNL     1      35.836 -21.628 -19.012  0.00  0.00    +0.054 C 
ATOM     20  C   UNL     1      34.242 -22.740 -17.595  0.00  0.00    +0.000 C 
ATOM     21  C   UNL     1      35.261 -22.942 -16.634  0.00  0.00    +0.000 C 
ATOM     22  C   UNL     1      34.549 -22.074 -18.793  0.00  0.00    +0.005 C 
ATOM     23  C   UNL     1      36.845 -21.811 -18.094  0.00  0.00    +0.005 C 
ATOM     24  C   UNL     1      36.558 -22.470 -16.899  0.00  0.00    +0.000 C 
ATOM     25  C   UNL     1      34.955 -23.607 -15.436  0.00  0.00    +0.003 C 
ATOM     26  C   UNL     1      32.946 -23.211 -17.330  0.00  0.00    +0.000 C 
ATOM     27  C   UNL     1      33.661 -24.068 -15.189  0.00  0.00    +0.031 C 
ATOM     28  C   UNL     1      32.659 -23.870 -16.135  0.00  0.00    +0.003 C 
BRANCH  27  31
ATOM     29  N   UNL     1      32.151 -25.423 -13.759  0.00  0.00    -0.343 N 
ATOM     30  N   UNL     1      34.239 -24.750 -12.959  0.00  0.00    -0.285 NA
ATOM     31  C   UNL     1      33.360 -24.755 -13.944  0.00  0.00    +0.117 C 
ATOM     32  H   UNL     1      31.967 -25.882 -12.908  0.00  0.00    +0.144 HD
ATOM     33  H   UNL     1      31.480 -25.436 -14.480  0.00  0.00    +0.144 HD
ATOM     34  H   UNL     1      34.037 -25.214 -12.115  0.00  0.00    +0.188 HD
ENDBRANCH  27  31
ENDBRANCH   3  19
TORSDOF 4
ENDMDL
MODEL 8
REMARK VINA RESULT:     -10.3      2.757      4.949
REMARK  Name = 447731
REMARK  4 active torsions:
REMARK  status: ('A' for Active; 'I' for Inactive)
REMARK    1  A    between atoms: N_2  and  C_13
REMARK    2  A    between atoms: C_3  and  C_19
REMARK    3  A    between atoms: C_6  and  C_17
REMARK    4  A    between atoms: C_27  and  C_31
REMARK                            x       y       z     vdW  Elec       q    Type
REMARK                         _______ _______ _______ _____ _____    ______ ____
ROOT
ATOM      1  O   UNL     1      37.690 -19.164 -20.259  0.00  0.00    -0.270 OA
ATOM      2  N   UNL     1      35.743 -20.482 -20.184  0.00  0.00    -0.280 N 
ATOM      3  C   UNL     1      36.592 -19.493 -20.697  0.00  0.00    +0.249 C 
ATOM      4  H   UNL     1      34.894 -20.615 -20.665  0.00  0.00    +0.155 HD
ENDROOT
BRANCH   2  13
ATOM      5  N   UNL     1      35.473 -23.898 -14.725  0.00  0.00    +0.387 N 
ATOM      6  C   UNL     1      33.862 -23.158 -16.445  0.00  0.00    +0.001 C 
ATOM      7  C   UNL     1      35.045 -22.636 -17.248  0.00  0.00    -0.029 C 
ATOM      8  C   UNL     1      34.275 -24.279 -15.471  0.00  0.00    -0.077 C 
ATOM      9  C   UNL     1      36.360 -22.923 -16.830  0.00  0.00    -0.048 C 
ATOM     10  C   UNL     1      36.618 -23.804 -15.634  0.00  0.00    -0.055 C 
ATOM     11  C   UNL     1      34.859 -21.800 -18.362  0.00  0.00    +0.010 C 
ATOM     12  C   UNL     1      37.451 -22.427 -17.561  0.00  0.00    -0.005 C 
ATOM     13  C   UNL     1      35.953 -21.301 -19.073  0.00  0.00    +0.050 C 
ATOM     14  C   UNL     1      37.246 -21.619 -18.676  0.00  0.00    +0.014 C 
ATOM     15  H   UNL     1      35.665 -24.601 -14.011  0.00  0.00    -0.084 HD
ATOM     16  H   UNL     1      35.320 -22.991 -14.284  0.00  0.00    -0.084 HD
BRANCH   6  17
ATOM     17  C   UNL     1      32.706 -23.667 -17.314  0.00  0.00    +0.002 C 
ATOM     18  C   UNL     1      31.377 -23.135 -16.821  0.00  0.00    +0.000 C 
ENDBRANCH   6  17
ENDBRANCH   2  13
BRANCH   3  19
ATOM     19  C   UNL     1      36.075 -18.763 -21.884  0.00  0.00    +0.054 C 
ATOM     20  C   UNL     1      35.339 -16.706 -22.891  0.00  0.00    +0.000 C 
ATOM     21  C   UNL     1      35.110 -17.401 -24.103  0.00  0.00    +0.000 C 
ATOM     22  C   UNL     1      35.828 -17.410 -21.778  0.00  0.00    +0.005 C 
ATOM     23  C   UNL     1      35.861 -19.462 -23.051  0.00  0.00    +0.005 C 
ATOM     24  C   UNL     1      35.375 -18.779 -24.166  0.00  0.00    +0.000 C 
ATOM     25  C   UNL     1      34.620 -16.698 -25.216  0.00  0.00    +0.003 C 
ATOM     26  C   UNL     1      35.073 -15.329 -22.828  0.00  0.00    +0.000 C 
ATOM     27  C   UNL     1      34.361 -15.329 -25.136  0.00  0.00    +0.031 C 
ATOM     28  C   UNL     1      34.588 -14.647 -23.943  0.00  0.00    +0.003 C 
BRANCH  27  31
ATOM     29  N   UNL     1      33.582 -13.250 -26.246  0.00  0.00    -0.343 N 
ATOM     30  N   UNL     1      33.642 -15.265 -27.427  0.00  0.00    -0.285 NA
ATOM     31  C   UNL     1      33.855 -14.616 -26.297  0.00  0.00    +0.117 C 
ATOM     32  H   UNL     1      33.240 -12.786 -27.044  0.00  0.00    +0.144 HD
ATOM     33  H   UNL     1      33.731 -12.749 -25.412  0.00  0.00    +0.144 HD
ATOM     34  H   UNL     1      33.299 -14.784 -28.214  0.00  0.00    +0.188 HD
ENDBRANCH  27  31
ENDBRANCH   3  19
TORSDOF 4
ENDMDL
MODEL 9
REMARK VINA RESULT:     -10.2      3.104     10.817
REMARK  Name = 447731
REMARK  4 active torsions:
REMARK  status: ('A' for Active; 'I' for Inactive)
REMARK    1  A    between atoms: N_2  and  C_13
REMARK    2  A    between atoms: C_3  and  C_19
REMARK    3  A    between atoms: C_6  and  C_17
REMARK    4  A    between atoms: C_27  and  C_31
REMARK                            x       y       z     vdW  Elec       q    Type
REMARK                         _______ _______ _______ _____ _____    ______ ____
ROOT
ATOM      1  O   UNL     1      34.698 -20.149 -22.603  0.00  0.00    -0.270 OA
ATOM      2  N   UNL     1      35.343 -18.296 -21.306  0.00  0.00    -0.280 N 
ATOM      3  C   UNL     1      35.089 -19.652 -21.552  0.00  0.00    +0.249 C 
ATOM      4  H   UNL     1      35.654 -18.073 -20.398  0.00  0.00    +0.155 HD
ENDROOT
BRANCH   2  13
ATOM      5  N   UNL     1      33.637 -13.066 -24.663  0.00  0.00    +0.387 N 
ATOM      6  C   UNL     1      33.433 -13.825 -22.321  0.00  0.00    +0.001 C 
ATOM      7  C   UNL     1      34.298 -15.021 -22.692  0.00  0.00    -0.029 C 
ATOM      8  C   UNL     1      33.663 -12.630 -23.268  0.00  0.00    -0.077 C 
ATOM      9  C   UNL     1      34.912 -15.078 -23.960  0.00  0.00    -0.048 C 
ATOM     10  C   UNL     1      34.784 -13.935 -24.936  0.00  0.00    -0.055 C 
ATOM     11  C   UNL     1      34.438 -16.117 -21.825  0.00  0.00    +0.010 C 
ATOM     12  C   UNL     1      35.694 -16.190 -24.309  0.00  0.00    -0.005 C 
ATOM     13  C   UNL     1      35.209 -17.223 -22.189  0.00  0.00    +0.050 C 
ATOM     14  C   UNL     1      35.841 -17.256 -23.426  0.00  0.00    +0.014 C 
ATOM     15  H   UNL     1      33.679 -12.249 -25.274  0.00  0.00    -0.084 HD
ATOM     16  H   UNL     1      32.775 -13.583 -24.838  0.00  0.00    -0.084 HD
BRANCH   6  17
ATOM     17  C   UNL     1      33.629 -13.348 -20.878  0.00  0.00    +0.002 C 
ATOM     18  C   UNL     1      32.303 -13.208 -20.163  0.00  0.00    +0.000 C 
ENDBRANCH   6  17
ENDBRANCH   2  13
BRANCH   3  19
ATOM     19  C   UNL     1      35.299 -20.560 -20.395  0.00  0.00    +0.054 C 
ATOM     20  C   UNL     1      34.399 -22.103 -18.783  0.00  0.00    +0.000 C 
ATOM     21  C   UNL     1      35.694 -22.256 -18.232  0.00  0.00    +0.000 C 
ATOM     22  C   UNL     1      34.217 -21.240 -19.878  0.00  0.00    +0.005 C 
ATOM     23  C   UNL     1      36.568 -20.692 -19.877  0.00  0.00    +0.005 C 
ATOM     24  C   UNL     1      36.768 -21.543 -18.790  0.00  0.00    +0.000 C 
ATOM     25  C   UNL     1      35.877 -23.117 -17.137  0.00  0.00    +0.003 C 
ATOM     26  C   UNL     1      33.326 -22.815 -18.224  0.00  0.00    +0.000 C 
ATOM     27  C   UNL     1      34.799 -23.817 -16.595  0.00  0.00    +0.031 C 
ATOM     28  C   UNL     1      33.526 -23.666 -17.138  0.00  0.00    +0.003 C 
BRANCH  27  31
ATOM     29  N   UNL     1      34.193 -24.638 -14.332  0.00  0.00    -0.343 N 
ATOM     30  N   UNL     1      35.980 -25.594 -15.491  0.00  0.00    -0.285 NA
ATOM     31  C   UNL     1      35.005 -24.705 -15.462  0.00  0.00    +0.117 C 
ATOM     32  H   UNL     1      34.349 -25.249 -13.576  0.00  0.00    +0.144 HD
ATOM     33  H   UNL     1      33.461 -23.980 -14.289  0.00  0.00    +0.144 HD
ATOM     34  H   UNL     1      36.122 -26.196 -14.725  0.00  0.00    +0.188 HD
ENDBRANCH  27  31
ENDBRANCH   3  19
TORSDOF 4
ENDMDL
