MODEL 1
REMARK VINA RESULT:     -11.0      0.000      0.000
REMARK  Name = 11697697
REMARK  7 active torsions:
REMARK  status: ('A' for Active; 'I' for Inactive)
REMARK    1  A    between atoms: N_2  and  C_14
REMARK    2  A    between atoms: C_8  and  C_32
REMARK    3  A    between atoms: C_13  and  O_19
REMARK    4  A    between atoms: O_19  and  C_20
REMARK    5  A    between atoms: C_20  and  C_21
REMARK    6  A    between atoms: C_21  and  C_22
REMARK    7  A    between atoms: C_22  and  N_23
REMARK                            x       y       z     vdW  Elec       q    Type
REMARK                         _______ _______ _______ _____ _____    ______ ____
ROOT
ATOM      1  O   UNL     1      32.369 -12.777 -21.847  0.00  0.00    -0.273 OA
ATOM      2  N   UNL     1      33.667 -12.158 -23.712  0.00  0.00    -0.215 N 
ATOM      3  N   UNL     1      34.029  -9.846 -24.143  0.00  0.00    -0.394 NA
ATOM      4  C   UNL     1      32.651 -10.500 -22.234  0.00  0.00    +0.156 C 
ATOM      5  C   UNL     1      32.858 -11.922 -22.580  0.00  0.00    +0.245 C 
ATOM      6  C   UNL     1      34.185 -11.095 -24.457  0.00  0.00    +0.170 C 
ATOM      7  C   UNL     1      33.265  -9.523 -23.016  0.00  0.00    +0.123 C 
ATOM      8  C   UNL     1      31.872 -10.143 -21.125  0.00  0.00    +0.064 C 
ATOM      9  C   UNL     1      33.094  -8.176 -22.678  0.00  0.00    +0.028 C 
ATOM     10  C   UNL     1      31.709  -8.797 -20.799  0.00  0.00    +0.001 C 
ATOM     11  C   UNL     1      34.934 -11.362 -25.746  0.00  0.00    +0.084 C 
ATOM     12  C   UNL     1      32.320  -7.814 -21.574  0.00  0.00    +0.002 C 
ENDROOT
BRANCH   2  14
ATOM     13  C   UNL     1      34.535 -16.177 -24.638  0.00  0.00    +0.139 C 
ATOM     14  C   UNL     1      33.964 -13.528 -24.029  0.00  0.00    +0.060 C 
ATOM     15  C   UNL     1      35.112 -15.579 -23.517  0.00  0.00    +0.038 C 
ATOM     16  C   UNL     1      33.671 -15.444 -25.453  0.00  0.00    +0.038 C 
ATOM     17  C   UNL     1      34.825 -14.249 -23.212  0.00  0.00    +0.018 C 
ATOM     18  C   UNL     1      33.385 -14.115 -25.146  0.00  0.00    +0.018 C 
BRANCH  13  19
ATOM     19  O   UNL     1      34.816 -17.475 -24.937  0.00  0.00    -0.476 OA
BRANCH  19  20
ATOM     20  C   UNL     1      35.692 -18.171 -24.052  0.00  0.00    +0.203 C 
BRANCH  20  21
ATOM     21  C   UNL     1      34.913 -19.280 -23.358  0.00  0.00    +0.025 C 
BRANCH  21  22
ATOM     22  C   UNL     1      35.064 -19.205 -21.842  0.00  0.00    -0.074 C 
BRANCH  22  23
ATOM     23  N   UNL     1      34.829 -20.512 -21.246  0.00  0.00    +0.387 N 
ATOM     24  C   UNL     1      35.854 -20.871 -20.267  0.00  0.00    -0.077 C 
ATOM     25  C   UNL     1      33.565 -20.571 -20.512  0.00  0.00    -0.077 C 
ATOM     26  C   UNL     1      35.218 -22.032 -19.518  0.00  0.00    -0.025 C 
ATOM     27  C   UNL     1      33.713 -21.838 -19.681  0.00  0.00    -0.025 C 
ATOM     28  H   UNL     1      34.830 -21.151 -22.041  0.00  0.00    -0.080 HD
ENDBRANCH  22  23
ENDBRANCH  21  22
ENDBRANCH  20  21
ENDBRANCH  19  20
ENDBRANCH  13  19
ENDBRANCH   2  14
BRANCH   8  32
ATOM     29  F   UNL     1      30.252 -11.886 -20.888  0.00  0.00    -0.166 F 
ATOM     30  F   UNL     1      32.037 -12.029 -19.663  0.00  0.00    -0.166 F 
ATOM     31  F   UNL     1      30.523 -10.535 -19.206  0.00  0.00    -0.166 F 
ATOM     32  C   UNL     1      31.185 -11.130 -20.239  0.00  0.00    +0.416 C 
ENDBRANCH   8  32
TORSDOF 7
ENDMDL
MODEL 2
REMARK VINA RESULT:     -10.9      3.691      6.670
REMARK  Name = 11697697
REMARK  7 active torsions:
REMARK  status: ('A' for Active; 'I' for Inactive)
REMARK    1  A    between atoms: N_2  and  C_14
REMARK    2  A    between atoms: C_8  and  C_32
REMARK    3  A    between atoms: C_13  and  O_19
REMARK    4  A    between atoms: O_19  and  C_20
REMARK    5  A    between atoms: C_20  and  C_21
REMARK    6  A    between atoms: C_21  and  C_22
REMARK    7  A    between atoms: C_22  and  N_23
REMARK                            x       y       z     vdW  Elec       q    Type
REMARK                         _______ _______ _______ _____ _____    ______ ____
ROOT
ATOM      1  O   UNL     1      34.970 -16.486 -20.927  0.00  0.00    -0.273 OA
ATOM      2  N   UNL     1      35.234 -18.099 -22.624  0.00  0.00    -0.215 N 
ATOM      3  N   UNL     1      34.913 -17.446 -24.889  0.00  0.00    -0.394 NA
ATOM      4  C   UNL     1      34.602 -15.791 -23.117  0.00  0.00    +0.156 C 
ATOM      5  C   UNL     1      34.931 -16.820 -22.109  0.00  0.00    +0.245 C 
ATOM      6  C   UNL     1      35.175 -18.351 -23.997  0.00  0.00    +0.170 C 
ATOM      7  C   UNL     1      34.630 -16.142 -24.466  0.00  0.00    +0.123 C 
ATOM      8  C   UNL     1      34.292 -14.483 -22.725  0.00  0.00    +0.064 C 
ATOM      9  C   UNL     1      34.344 -15.165 -25.428  0.00  0.00    +0.028 C 
ATOM     10  C   UNL     1      34.008 -13.520 -23.693  0.00  0.00    +0.001 C 
ATOM     11  C   UNL     1      35.367 -19.758 -24.523  0.00  0.00    +0.084 C 
ATOM     12  C   UNL     1      34.035 -13.860 -25.043  0.00  0.00    +0.002 C 
ENDROOT
BRANCH   2  14
ATOM     13  C   UNL     1      36.440 -21.040 -19.856  0.00  0.00    +0.139 C 
ATOM     14  C   UNL     1      35.646 -19.102 -21.681  0.00  0.00    +0.060 C 
ATOM     15  C   UNL     1      37.375 -20.143 -20.373  0.00  0.00    +0.038 C 
ATOM     16  C   UNL     1      35.105 -20.964 -20.257  0.00  0.00    +0.038 C 
ATOM     17  C   UNL     1      36.977 -19.170 -21.289  0.00  0.00    +0.018 C 
ATOM     18  C   UNL     1      34.708 -19.991 -21.173  0.00  0.00    +0.018 C 
BRANCH  13  19
ATOM     19  O   UNL     1      36.830 -21.990 -18.962  0.00  0.00    -0.476 OA
BRANCH  19  20
ATOM     20  C   UNL     1      37.212 -21.542 -17.663  0.00  0.00    +0.203 C 
BRANCH  20  21
ATOM     21  C   UNL     1      36.569 -22.448 -16.621  0.00  0.00    +0.025 C 
BRANCH  21  22
ATOM     22  C   UNL     1      37.595 -22.961 -15.617  0.00  0.00    -0.074 C 
BRANCH  22  23
ATOM     23  N   UNL     1      37.693 -24.411 -15.690  0.00  0.00    +0.387 N 
ATOM     24  C   UNL     1      38.687 -24.951 -14.764  0.00  0.00    -0.077 C 
ATOM     25  C   UNL     1      36.439 -25.074 -15.331  0.00  0.00    -0.077 C 
ATOM     26  C   UNL     1      38.347 -26.434 -14.725  0.00  0.00    -0.025 C 
ATOM     27  C   UNL     1      36.870 -26.516 -15.101  0.00  0.00    -0.025 C 
ATOM     28  H   UNL     1      37.947 -24.593 -16.661  0.00  0.00    -0.080 HD
ENDBRANCH  22  23
ENDBRANCH  21  22
ENDBRANCH  20  21
ENDBRANCH  19  20
ENDBRANCH  13  19
ENDBRANCH   2  14
BRANCH   8  32
ATOM     29  F   UNL     1      33.680 -12.798 -21.141  0.00  0.00    -0.166 F 
ATOM     30  F   UNL     1      33.524 -14.862 -20.492  0.00  0.00    -0.166 F 
ATOM     31  F   UNL     1      35.482 -13.946 -20.738  0.00  0.00    -0.166 F 
ATOM     32  C   UNL     1      34.243 -14.031 -21.302  0.00  0.00    +0.416 C 
ENDBRANCH   8  32
TORSDOF 7
ENDMDL
MODEL 3
REMARK VINA RESULT:     -10.6      3.571      6.383
REMARK  Name = 11697697
REMARK  7 active torsions:
REMARK  status: ('A' for Active; 'I' for Inactive)
REMARK    1  A    between atoms: N_2  and  C_14
REMARK    2  A    between atoms: C_8  and  C_32
REMARK    3  A    between atoms: C_13  and  O_19
REMARK    4  A    between atoms: O_19  and  C_20
REMARK    5  A    between atoms: C_20  and  C_21
REMARK    6  A    between atoms: C_21  and  C_22
REMARK    7  A    between atoms: C_22  and  N_23
REMARK                            x       y       z     vdW  Elec       q    Type
REMARK                         _______ _______ _______ _____ _____    ______ ____
ROOT
ATOM      1  O   UNL     1      34.974 -16.508 -20.966  0.00  0.00    -0.273 OA
ATOM      2  N   UNL     1      35.267 -18.183 -22.595  0.00  0.00    -0.215 N 
ATOM      3  N   UNL     1      34.997 -17.612 -24.890  0.00  0.00    -0.394 NA
ATOM      4  C   UNL     1      34.657 -15.893 -23.187  0.00  0.00    +0.156 C 
ATOM      5  C   UNL     1      34.959 -16.885 -22.134  0.00  0.00    +0.245 C 
ATOM      6  C   UNL     1      35.236 -18.485 -23.960  0.00  0.00    +0.170 C 
ATOM      7  C   UNL     1      34.712 -16.293 -24.521  0.00  0.00    +0.123 C 
ATOM      8  C   UNL     1      34.345 -14.569 -22.851  0.00  0.00    +0.064 C 
ATOM      9  C   UNL     1      34.452 -15.351 -25.524  0.00  0.00    +0.028 C 
ATOM     10  C   UNL     1      34.087 -13.641 -23.858  0.00  0.00    +0.001 C 
ATOM     11  C   UNL     1      35.432 -19.912 -24.429  0.00  0.00    +0.084 C 
ATOM     12  C   UNL     1      34.142 -14.031 -25.194  0.00  0.00    +0.002 C 
ENDROOT
BRANCH   2  14
ATOM     13  C   UNL     1      36.399 -21.031 -19.702  0.00  0.00    +0.139 C 
ATOM     14  C   UNL     1      35.652 -19.153 -21.608  0.00  0.00    +0.060 C 
ATOM     15  C   UNL     1      35.073 -20.959 -20.128  0.00  0.00    +0.038 C 
ATOM     16  C   UNL     1      37.350 -20.158 -20.232  0.00  0.00    +0.038 C 
ATOM     17  C   UNL     1      34.698 -20.017 -21.085  0.00  0.00    +0.018 C 
ATOM     18  C   UNL     1      36.975 -19.216 -21.189  0.00  0.00    +0.018 C 
BRANCH  13  19
ATOM     19  O   UNL     1      36.764 -21.950 -18.767  0.00  0.00    -0.476 OA
BRANCH  19  20
ATOM     20  C   UNL     1      37.357 -21.455 -17.567  0.00  0.00    +0.203 C 
BRANCH  20  21
ATOM     21  C   UNL     1      36.887 -22.309 -16.397  0.00  0.00    +0.025 C 
BRANCH  21  22
ATOM     22  C   UNL     1      35.875 -23.360 -16.843  0.00  0.00    -0.074 C 
BRANCH  22  23
ATOM     23  N   UNL     1      34.518 -22.876 -16.634  0.00  0.00    +0.387 N 
ATOM     24  C   UNL     1      33.602 -23.308 -17.688  0.00  0.00    -0.077 C 
ATOM     25  C   UNL     1      33.932 -23.380 -15.391  0.00  0.00    -0.077 C 
ATOM     26  C   UNL     1      32.233 -23.042 -17.081  0.00  0.00    -0.025 C 
ATOM     27  C   UNL     1      32.450 -23.086 -15.571  0.00  0.00    -0.025 C 
ATOM     28  H   UNL     1      34.618 -21.861 -16.615  0.00  0.00    -0.080 HD
ENDBRANCH  22  23
ENDBRANCH  21  22
ENDBRANCH  20  21
ENDBRANCH  19  20
ENDBRANCH  13  19
ENDBRANCH   2  14
BRANCH   8  32
ATOM     29  F   UNL     1      35.479 -14.015 -20.819  0.00  0.00    -0.166 F 
ATOM     30  F   UNL     1      33.761 -12.801 -21.349  0.00  0.00    -0.166 F 
ATOM     31  F   UNL     1      33.475 -14.842 -20.654  0.00  0.00    -0.166 F 
ATOM     32  C   UNL     1      34.268 -14.065 -21.446  0.00  0.00    +0.416 C 
ENDBRANCH   8  32
TORSDOF 7
ENDMDL
MODEL 4
REMARK VINA RESULT:     -10.2      3.464      6.142
REMARK  Name = 11697697
REMARK  7 active torsions:
REMARK  status: ('A' for Active; 'I' for Inactive)
REMARK    1  A    between atoms: N_2  and  C_14
REMARK    2  A    between atoms: C_8  and  C_32
REMARK    3  A    between atoms: C_13  and  O_19
REMARK    4  A    between atoms: O_19  and  C_20
REMARK    5  A    between atoms: C_20  and  C_21
REMARK    6  A    between atoms: C_21  and  C_22
REMARK    7  A    between atoms: C_22  and  N_23
REMARK                            x       y       z     vdW  Elec       q    Type
REMARK                         _______ _______ _______ _____ _____    ______ ____
ROOT
ATOM      1  O   UNL     1      34.887 -15.634 -22.324  0.00  0.00    -0.273 OA
ATOM      2  N   UNL     1      34.997 -17.519 -23.732  0.00  0.00    -0.215 N 
ATOM      3  N   UNL     1      34.469 -17.262 -26.038  0.00  0.00    -0.394 NA
ATOM      4  C   UNL     1      34.320 -15.322 -24.559  0.00  0.00    +0.156 C 
ATOM      5  C   UNL     1      34.740 -16.166 -23.421  0.00  0.00    +0.245 C 
ATOM      6  C   UNL     1      34.813 -18.003 -25.030  0.00  0.00    +0.170 C 
ATOM      7  C   UNL     1      34.225 -15.901 -25.824  0.00  0.00    +0.123 C 
ATOM      8  C   UNL     1      34.045 -13.961 -24.374  0.00  0.00    +0.064 C 
ATOM      9  C   UNL     1      33.852 -15.101 -26.910  0.00  0.00    +0.028 C 
ATOM     10  C   UNL     1      33.674 -13.175 -25.464  0.00  0.00    +0.001 C 
ATOM     11  C   UNL     1      34.957 -19.483 -25.318  0.00  0.00    +0.084 C 
ATOM     12  C   UNL     1      33.578 -13.744 -26.732  0.00  0.00    +0.002 C 
ENDROOT
BRANCH   2  14
ATOM     13  C   UNL     1      36.454 -19.961 -20.622  0.00  0.00    +0.139 C 
ATOM     14  C   UNL     1      35.493 -18.350 -22.671  0.00  0.00    +0.060 C 
ATOM     15  C   UNL     1      35.109 -20.021 -20.983  0.00  0.00    +0.038 C 
ATOM     16  C   UNL     1      37.318 -19.091 -21.289  0.00  0.00    +0.038 C 
ATOM     17  C   UNL     1      34.626 -19.213 -22.012  0.00  0.00    +0.018 C 
ATOM     18  C   UNL     1      36.835 -18.283 -22.317  0.00  0.00    +0.018 C 
BRANCH  13  19
ATOM     19  O   UNL     1      36.925 -20.749 -19.617  0.00  0.00    -0.476 OA
BRANCH  19  20
ATOM     20  C   UNL     1      36.198 -21.943 -19.333  0.00  0.00    +0.203 C 
BRANCH  20  21
ATOM     21  C   UNL     1      36.077 -22.098 -17.822  0.00  0.00    +0.025 C 
BRANCH  21  22
ATOM     22  C   UNL     1      37.447 -22.172 -17.156  0.00  0.00    -0.074 C 
BRANCH  22  23
ATOM     23  N   UNL     1      37.311 -22.577 -15.764  0.00  0.00    +0.387 N 
ATOM     24  C   UNL     1      35.923 -22.850 -15.395  0.00  0.00    -0.077 C 
ATOM     25  C   UNL     1      38.034 -23.814 -15.471  0.00  0.00    -0.077 C 
ATOM     26  C   UNL     1      36.062 -23.608 -14.083  0.00  0.00    -0.025 C 
ATOM     27  C   UNL     1      37.450 -24.239 -14.131  0.00  0.00    -0.025 C 
ATOM     28  H   UNL     1      37.691 -21.789 -15.240  0.00  0.00    -0.080 HD
ENDBRANCH  22  23
ENDBRANCH  21  22
ENDBRANCH  20  21
ENDBRANCH  19  20
ENDBRANCH  13  19
ENDBRANCH   2  14
BRANCH   8  32
ATOM     29  F   UNL     1      33.217 -13.726 -22.143  0.00  0.00    -0.166 F 
ATOM     30  F   UNL     1      35.340 -13.403 -22.443  0.00  0.00    -0.166 F 
ATOM     31  F   UNL     1      33.907 -11.927 -23.150  0.00  0.00    -0.166 F 
ATOM     32  C   UNL     1      34.126 -13.270 -23.052  0.00  0.00    +0.416 C 
ENDBRANCH   8  32
TORSDOF 7
ENDMDL
MODEL 5
REMARK VINA RESULT:     -10.0      5.550     11.783
REMARK  Name = 11697697
REMARK  7 active torsions:
REMARK  status: ('A' for Active; 'I' for Inactive)
REMARK    1  A    between atoms: N_2  and  C_14
REMARK    2  A    between atoms: C_8  and  C_32
REMARK    3  A    between atoms: C_13  and  O_19
REMARK    4  A    between atoms: O_19  and  C_20
REMARK    5  A    between atoms: C_20  and  C_21
REMARK    6  A    between atoms: C_21  and  C_22
REMARK    7  A    between atoms: C_22  and  N_23
REMARK                            x       y       z     vdW  Elec       q    Type
REMARK                         _______ _______ _______ _____ _____    ______ ____
ROOT
ATOM      1  O   UNL     1      31.525 -22.590 -17.704  0.00  0.00    -0.273 OA
ATOM      2  N   UNL     1      33.781 -22.922 -17.112  0.00  0.00    -0.215 N 
ATOM      3  N   UNL     1      34.282 -24.187 -15.160  0.00  0.00    -0.394 NA
ATOM      4  C   UNL     1      31.945 -23.802 -15.762  0.00  0.00    +0.156 C 
ATOM      5  C   UNL     1      32.384 -23.028 -16.942  0.00  0.00    +0.245 C 
ATOM      6  C   UNL     1      34.661 -23.485 -16.184  0.00  0.00    +0.170 C 
ATOM      7  C   UNL     1      32.913 -24.368 -14.934  0.00  0.00    +0.123 C 
ATOM      8  C   UNL     1      30.582 -23.982 -15.495  0.00  0.00    +0.064 C 
ATOM      9  C   UNL     1      32.503 -25.123 -13.829  0.00  0.00    +0.028 C 
ATOM     10  C   UNL     1      30.187 -24.735 -14.390  0.00  0.00    +0.001 C 
ATOM     11  C   UNL     1      36.151 -23.245 -16.303  0.00  0.00    +0.084 C 
ATOM     12  C   UNL     1      31.146 -25.307 -13.558  0.00  0.00    +0.002 C 
ENDROOT
BRANCH   2  14
ATOM     13  C   UNL     1      35.146 -20.959 -20.583  0.00  0.00    +0.139 C 
ATOM     14  C   UNL     1      34.247 -22.254 -18.296  0.00  0.00    +0.060 C 
ATOM     15  C   UNL     1      33.778 -21.092 -20.349  0.00  0.00    +0.038 C 
ATOM     16  C   UNL     1      36.064 -21.477 -19.668  0.00  0.00    +0.038 C 
ATOM     17  C   UNL     1      33.326 -21.742 -19.202  0.00  0.00    +0.018 C 
ATOM     18  C   UNL     1      35.611 -22.127 -18.520  0.00  0.00    +0.018 C 
BRANCH  13  19
ATOM     19  O   UNL     1      35.588 -20.325 -21.704  0.00  0.00    -0.476 OA
BRANCH  19  20
ATOM     20  C   UNL     1      34.628 -19.572 -22.444  0.00  0.00    +0.203 C 
BRANCH  20  21
ATOM     21  C   UNL     1      35.275 -19.085 -23.734  0.00  0.00    +0.025 C 
BRANCH  21  22
ATOM     22  C   UNL     1      36.115 -17.833 -23.500  0.00  0.00    -0.074 C 
BRANCH  22  23
ATOM     23  N   UNL     1      35.648 -16.746 -24.348  0.00  0.00    +0.387 N 
ATOM     24  C   UNL     1      34.698 -17.197 -25.363  0.00  0.00    -0.077 C 
ATOM     25  C   UNL     1      34.936 -15.715 -23.592  0.00  0.00    -0.077 C 
ATOM     26  C   UNL     1      34.069 -15.898 -25.843  0.00  0.00    -0.025 C 
ATOM     27  C   UNL     1      34.228 -14.922 -24.681  0.00  0.00    -0.025 C 
ATOM     28  H   UNL     1      36.501 -16.378 -24.769  0.00  0.00    -0.080 HD
ENDBRANCH  22  23
ENDBRANCH  21  22
ENDBRANCH  20  21
ENDBRANCH  19  20
ENDBRANCH  13  19
ENDBRANCH   2  14
BRANCH   8  32
ATOM     29  F   UNL     1      29.598 -22.062 -16.527  0.00  0.00    -0.166 F 
ATOM     30  F   UNL     1      29.426 -23.946 -17.588  0.00  0.00    -0.166 F 
ATOM     31  F   UNL     1      28.253 -23.602 -15.789  0.00  0.00    -0.166 F 
ATOM     32  C   UNL     1      29.487 -23.408 -16.335  0.00  0.00    +0.416 C 
ENDBRANCH   8  32
TORSDOF 7
ENDMDL
MODEL 6
REMARK VINA RESULT:      -9.7      3.270      9.574
REMARK  Name = 11697697
REMARK  7 active torsions:
REMARK  status: ('A' for Active; 'I' for Inactive)
REMARK    1  A    between atoms: N_2  and  C_14
REMARK    2  A    between atoms: C_8  and  C_32
REMARK    3  A    between atoms: C_13  and  O_19
REMARK    4  A    between atoms: O_19  and  C_20
REMARK    5  A    between atoms: C_20  and  C_21
REMARK    6  A    between atoms: C_21  and  C_22
REMARK    7  A    between atoms: C_22  and  N_23
REMARK                            x       y       z     vdW  Elec       q    Type
REMARK                         _______ _______ _______ _____ _____    ______ ____
ROOT
ATOM      1  O   UNL     1      34.945 -15.438 -22.480  0.00  0.00    -0.273 OA
ATOM      2  N   UNL     1      34.092 -14.866 -24.600  0.00  0.00    -0.215 N 
ATOM      3  N   UNL     1      33.886 -16.566 -26.252  0.00  0.00    -0.394 NA
ATOM      4  C   UNL     1      34.806 -17.139 -24.062  0.00  0.00    +0.156 C 
ATOM      5  C   UNL     1      34.645 -15.733 -23.634  0.00  0.00    +0.245 C 
ATOM      6  C   UNL     1      33.771 -15.329 -25.879  0.00  0.00    +0.170 C 
ATOM      7  C   UNL     1      34.398 -17.500 -25.345  0.00  0.00    +0.123 C 
ATOM      8  C   UNL     1      35.337 -18.094 -23.185  0.00  0.00    +0.064 C 
ATOM      9  C   UNL     1      34.524 -18.835 -25.747  0.00  0.00    +0.028 C 
ATOM     10  C   UNL     1      35.459 -19.420 -23.598  0.00  0.00    +0.001 C 
ATOM     11  C   UNL     1      33.310 -14.358 -26.947  0.00  0.00    +0.084 C 
ATOM     12  C   UNL     1      35.052 -19.791 -24.877  0.00  0.00    +0.002 C 
ENDROOT
BRANCH   2  14
ATOM     13  C   UNL     1      33.342 -10.893 -23.408  0.00  0.00    +0.139 C 
ATOM     14  C   UNL     1      33.837 -13.512 -24.193  0.00  0.00    +0.060 C 
ATOM     15  C   UNL     1      34.255 -11.154 -24.429  0.00  0.00    +0.038 C 
ATOM     16  C   UNL     1      32.677 -11.948 -22.780  0.00  0.00    +0.038 C 
ATOM     17  C   UNL     1      34.504 -12.468 -24.823  0.00  0.00    +0.018 C 
ATOM     18  C   UNL     1      32.927 -13.262 -23.175  0.00  0.00    +0.018 C 
BRANCH  13  19
ATOM     19  O   UNL     1      33.100  -9.611 -23.022  0.00  0.00    -0.476 OA
BRANCH  19  20
ATOM     20  C   UNL     1      32.231  -9.421 -21.907  0.00  0.00    +0.203 C 
BRANCH  20  21
ATOM     21  C   UNL     1      32.500  -8.050 -21.300  0.00  0.00    +0.025 C 
BRANCH  21  22
ATOM     22  C   UNL     1      33.673  -7.357 -21.985  0.00  0.00    -0.074 C 
BRANCH  22  23
ATOM     23  N   UNL     1      33.230  -6.699 -23.205  0.00  0.00    +0.387 N 
ATOM     24  C   UNL     1      32.529  -5.444 -22.941  0.00  0.00    -0.077 C 
ATOM     25  C   UNL     1      34.345  -6.334 -24.079  0.00  0.00    -0.077 C 
ATOM     26  C   UNL     1      32.516  -4.766 -24.302  0.00  0.00    -0.025 C 
ATOM     27  C   UNL     1      33.708  -5.353 -25.053  0.00  0.00    -0.025 C 
ATOM     28  H   UNL     1      32.618  -7.385 -23.647  0.00  0.00    -0.080 HD
ENDBRANCH  22  23
ENDBRANCH  21  22
ENDBRANCH  20  21
ENDBRANCH  19  20
ENDBRANCH  13  19
ENDBRANCH   2  14
BRANCH   8  32
ATOM     29  F   UNL     1      34.930 -16.989 -21.104  0.00  0.00    -0.166 F 
ATOM     30  F   UNL     1      35.963 -18.894 -21.020  0.00  0.00    -0.166 F 
ATOM     31  F   UNL     1      36.993 -17.133 -21.774  0.00  0.00    -0.166 F 
ATOM     32  C   UNL     1      35.795 -17.784 -21.797  0.00  0.00    +0.416 C 
ENDBRANCH   8  32
TORSDOF 7
ENDMDL
MODEL 7
REMARK VINA RESULT:      -9.7      4.906      7.833
REMARK  Name = 11697697
REMARK  7 active torsions:
REMARK  status: ('A' for Active; 'I' for Inactive)
REMARK    1  A    between atoms: N_2  and  C_14
REMARK    2  A    between atoms: C_8  and  C_32
REMARK    3  A    between atoms: C_13  and  O_19
REMARK    4  A    between atoms: O_19  and  C_20
REMARK    5  A    between atoms: C_20  and  C_21
REMARK    6  A    between atoms: C_21  and  C_22
REMARK    7  A    between atoms: C_22  and  N_23
REMARK                            x       y       z     vdW  Elec       q    Type
REMARK                         _______ _______ _______ _____ _____    ______ ____
ROOT
ATOM      1  O   UNL     1      33.865  -6.321 -24.638  0.00  0.00    -0.273 OA
ATOM      2  N   UNL     1      32.052  -5.812 -23.223  0.00  0.00    -0.215 N 
ATOM      3  N   UNL     1      30.943  -3.723 -23.485  0.00  0.00    -0.394 NA
ATOM      4  C   UNL     1      32.851  -4.246 -24.920  0.00  0.00    +0.156 C 
ATOM      5  C   UNL     1      32.994  -5.552 -24.241  0.00  0.00    +0.245 C 
ATOM      6  C   UNL     1      31.090  -4.859 -22.876  0.00  0.00    +0.170 C 
ATOM      7  C   UNL     1      31.816  -3.397 -24.529  0.00  0.00    +0.123 C 
ATOM      8  C   UNL     1      33.723  -3.880 -25.953  0.00  0.00    +0.064 C 
ATOM      9  C   UNL     1      31.660  -2.171 -25.185  0.00  0.00    +0.028 C 
ATOM     10  C   UNL     1      33.558  -2.656 -26.597  0.00  0.00    +0.001 C 
ATOM     11  C   UNL     1      30.177  -5.095 -21.691  0.00  0.00    +0.084 C 
ATOM     12  C   UNL     1      32.526  -1.801 -26.215  0.00  0.00    +0.002 C 
ENDROOT
BRANCH   2  14
ATOM     13  C   UNL     1      32.197  -9.608 -21.397  0.00  0.00    +0.139 C 
ATOM     14  C   UNL     1      32.102  -7.106 -22.601  0.00  0.00    +0.060 C 
ATOM     15  C   UNL     1      32.753  -8.502 -20.754  0.00  0.00    +0.038 C 
ATOM     16  C   UNL     1      31.594  -9.457 -22.647  0.00  0.00    +0.038 C 
ATOM     17  C   UNL     1      32.705  -7.246 -21.358  0.00  0.00    +0.018 C 
ATOM     18  C   UNL     1      31.547  -8.201 -23.250  0.00  0.00    +0.018 C 
BRANCH  13  19
ATOM     19  O   UNL     1      32.245 -10.834 -20.808  0.00  0.00    -0.476 OA
BRANCH  19  20
ATOM     20  C   UNL     1      31.633 -11.915 -21.509  0.00  0.00    +0.203 C 
BRANCH  20  21
ATOM     21  C   UNL     1      32.675 -13.000 -21.746  0.00  0.00    +0.025 C 
BRANCH  21  22
ATOM     22  C   UNL     1      33.278 -12.902 -23.143  0.00  0.00    -0.074 C 
BRANCH  22  23
ATOM     23  N   UNL     1      33.530 -14.231 -23.680  0.00  0.00    +0.387 N 
ATOM     24  C   UNL     1      33.546 -14.249 -25.142  0.00  0.00    -0.077 C 
ATOM     25  C   UNL     1      34.836 -14.755 -23.279  0.00  0.00    -0.077 C 
ATOM     26  C   UNL     1      34.196 -15.587 -25.460  0.00  0.00    -0.025 C 
ATOM     27  C   UNL     1      35.041 -15.922 -24.235  0.00  0.00    -0.025 C 
ATOM     28  H   UNL     1      32.769 -14.797 -23.306  0.00  0.00    -0.080 HD
ENDBRANCH  22  23
ENDBRANCH  21  22
ENDBRANCH  20  21
ENDBRANCH  19  20
ENDBRANCH  13  19
ENDBRANCH   2  14
BRANCH   8  32
ATOM     29  F   UNL     1      35.685  -5.144 -25.427  0.00  0.00    -0.166 F 
ATOM     30  F   UNL     1      34.443  -5.883 -27.045  0.00  0.00    -0.166 F 
ATOM     31  F   UNL     1      35.649  -4.095 -27.331  0.00  0.00    -0.166 F 
ATOM     32  C   UNL     1      34.853  -4.736 -26.428  0.00  0.00    +0.416 C 
ENDBRANCH   8  32
TORSDOF 7
ENDMDL
MODEL 8
REMARK VINA RESULT:      -9.6      7.024     13.258
REMARK  Name = 11697697
REMARK  7 active torsions:
REMARK  status: ('A' for Active; 'I' for Inactive)
REMARK    1  A    between atoms: N_2  and  C_14
REMARK    2  A    between atoms: C_8  and  C_32
REMARK    3  A    between atoms: C_13  and  O_19
REMARK    4  A    between atoms: O_19  and  C_20
REMARK    5  A    between atoms: C_20  and  C_21
REMARK    6  A    between atoms: C_21  and  C_22
REMARK    7  A    between atoms: C_22  and  N_23
REMARK                            x       y       z     vdW  Elec       q    Type
REMARK                         _______ _______ _______ _____ _____    ______ ____
ROOT
ATOM      1  O   UNL     1      37.581 -24.086 -16.151  0.00  0.00    -0.273 OA
ATOM      2  N   UNL     1      35.344 -23.362 -16.006  0.00  0.00    -0.215 N 
ATOM      3  N   UNL     1      34.150 -23.723 -13.980  0.00  0.00    -0.394 NA
ATOM      4  C   UNL     1      36.459 -24.505 -14.157  0.00  0.00    +0.156 C 
ATOM      5  C   UNL     1      36.520 -23.987 -15.540  0.00  0.00    +0.245 C 
ATOM      6  C   UNL     1      34.202 -23.294 -15.203  0.00  0.00    +0.170 C 
ATOM      7  C   UNL     1      35.284 -24.329 -13.427  0.00  0.00    +0.123 C 
ATOM      8  C   UNL     1      37.568 -25.138 -13.582  0.00  0.00    +0.064 C 
ATOM      9  C   UNL     1      35.228 -24.795 -12.108  0.00  0.00    +0.028 C 
ATOM     10  C   UNL     1      37.500 -25.597 -12.268  0.00  0.00    +0.001 C 
ATOM     11  C   UNL     1      32.907 -22.746 -15.766  0.00  0.00    +0.084 C 
ATOM     12  C   UNL     1      36.331 -25.425 -11.530  0.00  0.00    +0.002 C 
ENDROOT
BRANCH   2  14
ATOM     13  C   UNL     1      35.493 -21.622 -19.842  0.00  0.00    +0.139 C 
ATOM     14  C   UNL     1      35.394 -22.768 -17.313  0.00  0.00    +0.060 C 
ATOM     15  C   UNL     1      36.546 -21.431 -18.948  0.00  0.00    +0.038 C 
ATOM     16  C   UNL     1      34.389 -22.390 -19.466  0.00  0.00    +0.038 C 
ATOM     17  C   UNL     1      36.497 -22.006 -17.679  0.00  0.00    +0.018 C 
ATOM     18  C   UNL     1      34.341 -22.964 -18.197  0.00  0.00    +0.018 C 
BRANCH  13  19
ATOM     19  O   UNL     1      35.541 -21.060 -21.081  0.00  0.00    -0.476 OA
BRANCH  19  20
ATOM     20  C   UNL     1      34.656 -19.970 -21.334  0.00  0.00    +0.203 C 
BRANCH  20  21
ATOM     21  C   UNL     1      35.001 -19.359 -22.686  0.00  0.00    +0.025 C 
BRANCH  21  22
ATOM     22  C   UNL     1      36.038 -18.250 -22.549  0.00  0.00    -0.074 C 
BRANCH  22  23
ATOM     23  N   UNL     1      35.879 -17.275 -23.618  0.00  0.00    +0.387 N 
ATOM     24  C   UNL     1      34.995 -17.750 -24.681  0.00  0.00    -0.077 C 
ATOM     25  C   UNL     1      35.274 -16.028 -23.150  0.00  0.00    -0.077 C 
ATOM     26  C   UNL     1      34.670 -16.478 -25.449  0.00  0.00    -0.025 C 
ATOM     27  C   UNL     1      34.857 -15.345 -24.444  0.00  0.00    -0.025 C 
ATOM     28  H   UNL     1      36.829 -17.124 -23.959  0.00  0.00    -0.080 HD
ENDBRANCH  22  23
ENDBRANCH  21  22
ENDBRANCH  20  21
ENDBRANCH  19  20
ENDBRANCH  13  19
ENDBRANCH   2  14
BRANCH   8  32
ATOM     29  F   UNL     1      38.763 -26.242 -15.336  0.00  0.00    -0.166 F 
ATOM     30  F   UNL     1      39.384 -24.223 -14.842  0.00  0.00    -0.166 F 
ATOM     31  F   UNL     1      39.832 -25.860 -13.482  0.00  0.00    -0.166 F 
ATOM     32  C   UNL     1      38.861 -25.361 -14.299  0.00  0.00    +0.416 C 
ENDBRANCH   8  32
TORSDOF 7
ENDMDL
MODEL 9
REMARK VINA RESULT:      -9.4      2.344      3.244
REMARK  Name = 11697697
REMARK  7 active torsions:
REMARK  status: ('A' for Active; 'I' for Inactive)
REMARK    1  A    between atoms: N_2  and  C_14
REMARK    2  A    between atoms: C_8  and  C_32
REMARK    3  A    between atoms: C_13  and  O_19
REMARK    4  A    between atoms: O_19  and  C_20
REMARK    5  A    between atoms: C_20  and  C_21
REMARK    6  A    between atoms: C_21  and  C_22
REMARK    7  A    between atoms: C_22  and  N_23
REMARK                            x       y       z     vdW  Elec       q    Type
REMARK                         _______ _______ _______ _____ _____    ______ ____
ROOT
ATOM      1  O   UNL     1      33.582 -10.973 -23.747  0.00  0.00    -0.273 OA
ATOM      2  N   UNL     1      33.193 -12.719 -22.214  0.00  0.00    -0.215 N 
ATOM      3  N   UNL     1      32.223 -12.200 -20.104  0.00  0.00    -0.394 NA
ATOM      4  C   UNL     1      32.668 -10.392 -21.688  0.00  0.00    +0.156 C 
ATOM      5  C   UNL     1      33.212 -11.376 -22.647  0.00  0.00    +0.245 C 
ATOM      6  C   UNL     1      32.726 -13.055 -20.941  0.00  0.00    +0.170 C 
ATOM      7  C   UNL     1      32.175 -10.849 -20.467  0.00  0.00    +0.123 C 
ATOM      8  C   UNL     1      32.627  -9.029 -22.010  0.00  0.00    +0.064 C 
ATOM      9  C   UNL     1      31.635  -9.925 -19.564  0.00  0.00    +0.028 C 
ATOM     10  C   UNL     1      32.087  -8.119 -21.102  0.00  0.00    +0.001 C 
ATOM     11  C   UNL     1      32.841 -14.479 -20.439  0.00  0.00    +0.084 C 
ATOM     12  C   UNL     1      31.591  -8.566 -19.880  0.00  0.00    +0.002 C 
ENDROOT
BRANCH   2  14
ATOM     13  C   UNL     1      34.475 -15.641 -24.968  0.00  0.00    +0.139 C 
ATOM     14  C   UNL     1      33.631 -13.714 -23.154  0.00  0.00    +0.060 C 
ATOM     15  C   UNL     1      35.107 -15.525 -23.729  0.00  0.00    +0.038 C 
ATOM     16  C   UNL     1      33.420 -14.789 -25.296  0.00  0.00    +0.038 C 
ATOM     17  C   UNL     1      34.683 -14.558 -22.819  0.00  0.00    +0.018 C 
ATOM     18  C   UNL     1      32.997 -13.822 -24.384  0.00  0.00    +0.018 C 
BRANCH  13  19
ATOM     19  O   UNL     1      34.889 -16.584 -25.857  0.00  0.00    -0.476 OA
BRANCH  19  20
ATOM     20  C   UNL     1      34.298 -17.879 -25.753  0.00  0.00    +0.203 C 
BRANCH  20  21
ATOM     21  C   UNL     1      35.207 -18.768 -24.914  0.00  0.00    +0.025 C 
BRANCH  21  22
ATOM     22  C   UNL     1      34.504 -19.250 -23.649  0.00  0.00    -0.074 C 
BRANCH  22  23
ATOM     23  N   UNL     1      35.336 -18.999 -22.482  0.00  0.00    +0.387 N 
ATOM     24  C   UNL     1      35.395 -20.149 -21.581  0.00  0.00    -0.077 C 
ATOM     25  C   UNL     1      36.728 -18.723 -22.838  0.00  0.00    -0.077 C 
ATOM     26  C   UNL     1      36.581 -19.821 -20.686  0.00  0.00    -0.025 C 
ATOM     27  C   UNL     1      37.456 -18.881 -21.511  0.00  0.00    -0.025 C 
ATOM     28  H   UNL     1      34.898 -18.194 -22.034  0.00  0.00    -0.080 HD
ENDBRANCH  22  23
ENDBRANCH  21  22
ENDBRANCH  20  21
ENDBRANCH  19  20
ENDBRANCH  13  19
ENDBRANCH   2  14
BRANCH   8  32
ATOM     29  F   UNL     1      33.036  -7.105 -23.371  0.00  0.00    -0.166 F 
ATOM     30  F   UNL     1      34.448  -8.743 -23.533  0.00  0.00    -0.166 F 
ATOM     31  F   UNL     1      32.455  -8.940 -24.381  0.00  0.00    -0.166 F 
ATOM     32  C   UNL     1      33.133  -8.464 -23.298  0.00  0.00    +0.416 C 
ENDBRANCH   8  32
TORSDOF 7
ENDMDL
