MODEL 1
REMARK VINA RESULT:     -12.9      0.000      0.000
REMARK  Name = 25023705
REMARK  6 active torsions:
REMARK  status: ('A' for Active; 'I' for Inactive)
REMARK    1  A    between atoms: C_1  and  C_8
REMARK    2  A    between atoms: C_1  and  C_20
REMARK    3  A    between atoms: C_20  and  N_22
REMARK    4  A    between atoms: C_23  and  C_25
REMARK    5  A    between atoms: C_30  and  O_31
REMARK    6  A    between atoms: O_31  and  C_32
REMARK                            x       y       z     vdW  Elec       q    Type
REMARK                         _______ _______ _______ _____ _____    ______ ____
ROOT
ATOM      1  C   UNL     1      32.720 -23.940 -15.293  0.00  0.00    +0.066 C 
ATOM      2  C   UNL     1      32.245 -22.474 -15.147  0.00  0.00    +0.009 C 
ATOM      3  C   UNL     1      31.602 -24.825 -14.691  0.00  0.00    +0.009 C 
ENDROOT
BRANCH   1   8
ATOM      4  N   UNL     1      35.159 -24.277 -15.390  0.00  0.00    -0.347 NA
ATOM      5  N   UNL     1      37.441 -24.599 -15.614  0.00  0.00    -0.266 NA
ATOM      6  N   UNL     1      38.891 -24.702 -13.694  0.00  0.00    -0.316 NA
ATOM      7  N   UNL     1      39.752 -24.926 -15.860  0.00  0.00    -0.283 N 
ATOM      8  C   UNL     1      34.082 -24.090 -14.588  0.00  0.00    +0.122 C 
ATOM      9  C   UNL     1      34.142 -24.029 -13.212  0.00  0.00    +0.026 C 
ATOM     10  C   UNL     1      35.390 -24.170 -12.629  0.00  0.00    +0.001 C 
ATOM     11  C   UNL     1      36.370 -24.414 -14.833  0.00  0.00    +0.137 C 
ATOM     12  C   UNL     1      36.515 -24.365 -13.442  0.00  0.00    +0.199 C 
ATOM     13  C   UNL     1      37.802 -24.515 -12.929  0.00  0.00    +0.187 C 
ATOM     14  C   UNL     1      38.641 -24.732 -15.011  0.00  0.00    +0.207 C 
ATOM     15  H   UNL     1      39.626 -24.958 -16.836  0.00  0.00    +0.156 HD
ATOM     16  H   UNL     1      40.653 -25.030 -15.476  0.00  0.00    +0.156 HD
ATOM     17  N   UNL     1      38.003 -24.472 -11.528  0.00  0.00    -0.334 N 
ATOM     18  H   UNL     1      38.909 -24.577 -11.157  0.00  0.00    +0.144 HD
ATOM     19  H   UNL     1      37.236 -24.338 -10.924  0.00  0.00    +0.144 HD
ENDBRANCH   1   8
BRANCH   1  20
ATOM     20  C   UNL     1      32.842 -24.261 -16.809  0.00  0.00    +0.096 C 
BRANCH  20  22
ATOM     21  O   UNL     1      33.902 -24.453 -19.470  0.00  0.00    -0.270 OA
ATOM     22  N   UNL     1      33.410 -23.190 -17.588  0.00  0.00    -0.300 N 
ATOM     23  C   UNL     1      33.900 -23.379 -18.873  0.00  0.00    +0.246 C 
ATOM     24  H   UNL     1      33.453 -22.289 -17.193  0.00  0.00    +0.150 HD
BRANCH  23  25
ATOM     25  C   UNL     1      34.479 -22.180 -19.533  0.00  0.00    +0.054 C 
ATOM     26  C   UNL     1      33.643 -21.263 -20.168  0.00  0.00    +0.008 C 
ATOM     27  C   UNL     1      35.859 -21.974 -19.516  0.00  0.00    +0.008 C 
ATOM     28  C   UNL     1      34.188 -20.138 -20.788  0.00  0.00    +0.038 C 
ATOM     29  C   UNL     1      36.403 -20.848 -20.135  0.00  0.00    +0.038 C 
ATOM     30  C   UNL     1      35.567 -19.931 -20.772  0.00  0.00    +0.145 C 
BRANCH  30  31
ATOM     31  O   UNL     1      36.098 -18.834 -21.378  0.00  0.00    -0.453 OA
BRANCH  31  32
ATOM     32  C   UNL     1      35.609 -18.489 -22.627  0.00  0.00    +0.145 C 
ATOM     33  C   UNL     1      35.151 -19.481 -23.494  0.00  0.00    +0.037 C 
ATOM     34  C   UNL     1      35.577 -17.150 -23.018  0.00  0.00    +0.037 C 
ATOM     35  C   UNL     1      34.660 -19.134 -24.753  0.00  0.00    +0.003 C 
ATOM     36  C   UNL     1      35.085 -16.804 -24.277  0.00  0.00    +0.003 C 
ATOM     37  C   UNL     1      34.627 -17.795 -25.144  0.00  0.00    +0.000 C 
ENDBRANCH  31  32
ENDBRANCH  30  31
ENDBRANCH  23  25
ENDBRANCH  20  22
ENDBRANCH   1  20
TORSDOF 6
ENDMDL
MODEL 2
REMARK VINA RESULT:     -12.0      0.953      2.173
REMARK  Name = 25023705
REMARK  6 active torsions:
REMARK  status: ('A' for Active; 'I' for Inactive)
REMARK    1  A    between atoms: C_1  and  C_8
REMARK    2  A    between atoms: C_1  and  C_20
REMARK    3  A    between atoms: C_20  and  N_22
REMARK    4  A    between atoms: C_23  and  C_25
REMARK    5  A    between atoms: C_30  and  O_31
REMARK    6  A    between atoms: O_31  and  C_32
REMARK                            x       y       z     vdW  Elec       q    Type
REMARK                         _______ _______ _______ _____ _____    ______ ____
ROOT
ATOM      1  C   UNL     1      32.308 -23.840 -15.548  0.00  0.00    +0.066 C 
ATOM      2  C   UNL     1      32.015 -22.345 -15.275  0.00  0.00    +0.009 C 
ATOM      3  C   UNL     1      31.140 -24.638 -14.919  0.00  0.00    +0.009 C 
ENDROOT
BRANCH   1   8
ATOM      4  N   UNL     1      33.838 -24.010 -13.624  0.00  0.00    -0.347 NA
ATOM      5  N   UNL     1      35.177 -24.127 -11.739  0.00  0.00    -0.266 NA
ATOM      6  N   UNL     1      37.459 -24.883 -11.861  0.00  0.00    -0.316 NA
ATOM      7  N   UNL     1      36.519 -24.238  -9.816  0.00  0.00    -0.283 N 
ATOM      8  C   UNL     1      33.689 -24.187 -14.959  0.00  0.00    +0.122 C 
ATOM      9  C   UNL     1      34.684 -24.648 -15.795  0.00  0.00    +0.026 C 
ATOM     10  C   UNL     1      35.906 -24.945 -15.217  0.00  0.00    +0.001 C 
ATOM     11  C   UNL     1      35.017 -24.297 -13.057  0.00  0.00    +0.137 C 
ATOM     12  C   UNL     1      36.079 -24.769 -13.837  0.00  0.00    +0.199 C 
ATOM     13  C   UNL     1      37.277 -25.046 -13.182  0.00  0.00    +0.187 C 
ATOM     14  C   UNL     1      36.381 -24.427 -11.209  0.00  0.00    +0.207 C 
ATOM     15  H   UNL     1      35.759 -23.904  -9.288  0.00  0.00    +0.156 HD
ATOM     16  H   UNL     1      37.376 -24.440  -9.375  0.00  0.00    +0.156 HD
ATOM     17  N   UNL     1      38.382 -25.528 -13.927  0.00  0.00    -0.334 N 
ATOM     18  H   UNL     1      39.233 -25.726 -13.473  0.00  0.00    +0.144 HD
ATOM     19  H   UNL     1      38.299 -25.664 -14.899  0.00  0.00    +0.144 HD
ENDBRANCH   1   8
BRANCH   1  20
ATOM     20  C   UNL     1      32.288 -24.065 -17.086  0.00  0.00    +0.096 C 
BRANCH  20  22
ATOM     21  O   UNL     1      33.916 -24.405 -19.427  0.00  0.00    -0.270 OA
ATOM     22  N   UNL     1      32.944 -23.025 -17.836  0.00  0.00    -0.300 N 
ATOM     23  C   UNL     1      33.715 -23.286 -18.961  0.00  0.00    +0.246 C 
ATOM     24  H   UNL     1      32.842 -22.091 -17.539  0.00  0.00    +0.150 HD
BRANCH  23  25
ATOM     25  C   UNL     1      34.347 -22.107 -19.606  0.00  0.00    +0.054 C 
ATOM     26  C   UNL     1      33.556 -21.159 -20.255  0.00  0.00    +0.008 C 
ATOM     27  C   UNL     1      35.733 -21.948 -19.563  0.00  0.00    +0.008 C 
ATOM     28  C   UNL     1      34.151 -20.053 -20.862  0.00  0.00    +0.038 C 
ATOM     29  C   UNL     1      36.327 -20.841 -20.169  0.00  0.00    +0.038 C 
ATOM     30  C   UNL     1      35.536 -19.894 -20.819  0.00  0.00    +0.145 C 
BRANCH  30  31
ATOM     31  O   UNL     1      36.116 -18.816 -21.413  0.00  0.00    -0.453 OA
BRANCH  31  32
ATOM     32  C   UNL     1      35.635 -18.427 -22.652  0.00  0.00    +0.145 C 
ATOM     33  C   UNL     1      35.567 -17.073 -22.979  0.00  0.00    +0.037 C 
ATOM     34  C   UNL     1      35.218 -19.389 -23.572  0.00  0.00    +0.037 C 
ATOM     35  C   UNL     1      35.082 -16.680 -24.227  0.00  0.00    +0.003 C 
ATOM     36  C   UNL     1      34.734 -18.997 -24.820  0.00  0.00    +0.003 C 
ATOM     37  C   UNL     1      34.665 -17.643 -25.147  0.00  0.00    +0.000 C 
ENDBRANCH  31  32
ENDBRANCH  30  31
ENDBRANCH  23  25
ENDBRANCH  20  22
ENDBRANCH   1  20
TORSDOF 6
ENDMDL
MODEL 3
REMARK VINA RESULT:     -11.7      5.069      8.431
REMARK  Name = 25023705
REMARK  6 active torsions:
REMARK  status: ('A' for Active; 'I' for Inactive)
REMARK    1  A    between atoms: C_1  and  C_8
REMARK    2  A    between atoms: C_1  and  C_20
REMARK    3  A    between atoms: C_20  and  N_22
REMARK    4  A    between atoms: C_23  and  C_25
REMARK    5  A    between atoms: C_30  and  O_31
REMARK    6  A    between atoms: O_31  and  C_32
REMARK                            x       y       z     vdW  Elec       q    Type
REMARK                         _______ _______ _______ _____ _____    ______ ____
ROOT
ATOM      1  C   UNL     1      35.726 -18.931 -22.586  0.00  0.00    +0.066 C 
ATOM      2  C   UNL     1      34.505 -18.554 -23.461  0.00  0.00    +0.009 C 
ATOM      3  C   UNL     1      36.780 -19.539 -23.543  0.00  0.00    +0.009 C 
ENDROOT
BRANCH   1   8
ATOM      4  N   UNL     1      36.204 -20.298 -20.593  0.00  0.00    -0.347 NA
ATOM      5  N   UNL     1      36.780 -21.541 -18.727  0.00  0.00    -0.266 NA
ATOM      6  N   UNL     1      35.156 -22.877 -17.554  0.00  0.00    -0.316 NA
ATOM      7  N   UNL     1      37.383 -22.796 -16.837  0.00  0.00    -0.283 N 
ATOM      8  C   UNL     1      35.260 -19.894 -21.477  0.00  0.00    +0.122 C 
ATOM      9  C   UNL     1      33.941 -20.292 -21.437  0.00  0.00    +0.026 C 
ATOM     10  C   UNL     1      33.574 -21.158 -20.421  0.00  0.00    +0.001 C 
ATOM     11  C   UNL     1      35.857 -21.136 -19.607  0.00  0.00    +0.137 C 
ATOM     12  C   UNL     1      34.537 -21.586 -19.497  0.00  0.00    +0.199 C 
ATOM     13  C   UNL     1      34.245 -22.457 -18.449  0.00  0.00    +0.187 C 
ATOM     14  C   UNL     1      36.388 -22.386 -17.750  0.00  0.00    +0.207 C 
ATOM     15  H   UNL     1      38.306 -22.466 -16.934  0.00  0.00    +0.156 HD
ATOM     16  H   UNL     1      37.154 -23.412 -16.103  0.00  0.00    +0.156 HD
ATOM     17  N   UNL     1      32.923 -22.941 -18.293  0.00  0.00    -0.334 N 
ATOM     18  H   UNL     1      32.708 -23.557 -17.555  0.00  0.00    +0.144 HD
ATOM     19  H   UNL     1      32.219 -22.663 -18.923  0.00  0.00    +0.144 HD
ENDBRANCH   1   8
BRANCH   1  20
ATOM     20  C   UNL     1      36.307 -17.624 -21.977  0.00  0.00    +0.096 C 
BRANCH  20  22
ATOM     21  O   UNL     1      35.761 -15.429 -23.745  0.00  0.00    -0.270 OA
ATOM     22  N   UNL     1      35.328 -16.586 -21.782  0.00  0.00    -0.300 N 
ATOM     23  C   UNL     1      35.134 -15.559 -22.697  0.00  0.00    +0.246 C 
ATOM     24  H   UNL     1      34.774 -16.605 -20.968  0.00  0.00    +0.150 HD
BRANCH  23  25
ATOM     25  C   UNL     1      34.103 -14.551 -22.337  0.00  0.00    +0.054 C 
ATOM     26  C   UNL     1      33.673 -14.436 -21.016  0.00  0.00    +0.008 C 
ATOM     27  C   UNL     1      33.566 -13.722 -23.322  0.00  0.00    +0.008 C 
ATOM     28  C   UNL     1      32.705 -13.490 -20.679  0.00  0.00    +0.038 C 
ATOM     29  C   UNL     1      32.598 -12.776 -22.984  0.00  0.00    +0.038 C 
ATOM     30  C   UNL     1      32.167 -12.661 -21.663  0.00  0.00    +0.145 C 
BRANCH  30  31
ATOM     31  O   UNL     1      31.221 -11.740 -21.334  0.00  0.00    -0.453 OA
BRANCH  31  32
ATOM     32  C   UNL     1      31.589 -10.404 -21.350  0.00  0.00    +0.145 C 
ATOM     33  C   UNL     1      31.567  -9.690 -22.547  0.00  0.00    +0.037 C 
ATOM     34  C   UNL     1      31.984  -9.775 -20.169  0.00  0.00    +0.037 C 
ATOM     35  C   UNL     1      31.939  -8.345 -22.564  0.00  0.00    +0.003 C 
ATOM     36  C   UNL     1      32.355  -8.431 -20.186  0.00  0.00    +0.003 C 
ATOM     37  C   UNL     1      32.333  -7.716 -21.383  0.00  0.00    +0.000 C 
ENDBRANCH  31  32
ENDBRANCH  30  31
ENDBRANCH  23  25
ENDBRANCH  20  22
ENDBRANCH   1  20
TORSDOF 6
ENDMDL
MODEL 4
REMARK VINA RESULT:     -11.6      1.007      1.364
REMARK  Name = 25023705
REMARK  6 active torsions:
REMARK  status: ('A' for Active; 'I' for Inactive)
REMARK    1  A    between atoms: C_1  and  C_8
REMARK    2  A    between atoms: C_1  and  C_20
REMARK    3  A    between atoms: C_20  and  N_22
REMARK    4  A    between atoms: C_23  and  C_25
REMARK    5  A    between atoms: C_30  and  O_31
REMARK    6  A    between atoms: O_31  and  C_32
REMARK                            x       y       z     vdW  Elec       q    Type
REMARK                         _______ _______ _______ _____ _____    ______ ____
ROOT
ATOM      1  C   UNL     1      32.263 -23.967 -14.751  0.00  0.00    +0.066 C 
ATOM      2  C   UNL     1      31.803 -22.491 -14.667  0.00  0.00    +0.009 C 
ATOM      3  C   UNL     1      31.245 -24.791 -13.925  0.00  0.00    +0.009 C 
ENDROOT
BRANCH   1   8
ATOM      4  N   UNL     1      34.691 -23.947 -15.162  0.00  0.00    -0.347 NA
ATOM      5  N   UNL     1      36.949 -23.907 -15.677  0.00  0.00    -0.266 NA
ATOM      6  N   UNL     1      38.632 -24.178 -13.977  0.00  0.00    -0.316 NA
ATOM      7  N   UNL     1      39.232 -23.865 -16.218  0.00  0.00    -0.283 N 
ATOM      8  C   UNL     1      33.711 -24.063 -14.234  0.00  0.00    +0.122 C 
ATOM      9  C   UNL     1      33.937 -24.260 -12.889  0.00  0.00    +0.026 C 
ATOM     10  C   UNL     1      35.256 -24.340 -12.476  0.00  0.00    +0.001 C 
ATOM     11  C   UNL     1      35.971 -24.022 -14.770  0.00  0.00    +0.137 C 
ATOM     12  C   UNL     1      36.284 -24.221 -13.421  0.00  0.00    +0.199 C 
ATOM     13  C   UNL     1      37.634 -24.290 -13.084  0.00  0.00    +0.187 C 
ATOM     14  C   UNL     1      38.222 -23.990 -15.239  0.00  0.00    +0.207 C 
ATOM     15  H   UNL     1      38.988 -23.726 -17.162  0.00  0.00    +0.156 HD
ATOM     16  H   UNL     1      40.180 -23.917 -15.956  0.00  0.00    +0.156 HD
ATOM     17  N   UNL     1      38.004 -24.490 -11.731  0.00  0.00    -0.334 N 
ATOM     18  H   UNL     1      38.956 -24.541 -11.483  0.00  0.00    +0.144 HD
ATOM     19  H   UNL     1      37.310 -24.579 -11.038  0.00  0.00    +0.144 HD
ENDBRANCH   1   8
BRANCH   1  20
ATOM     20  C   UNL     1      32.173 -24.419 -16.236  0.00  0.00    +0.096 C 
BRANCH  20  22
ATOM     21  O   UNL     1      31.363 -22.344 -18.047  0.00  0.00    -0.270 OA
ATOM     22  N   UNL     1      33.026 -23.672 -17.125  0.00  0.00    -0.300 N 
ATOM     23  C   UNL     1      32.541 -22.682 -17.969  0.00  0.00    +0.246 C 
ATOM     24  H   UNL     1      33.990 -23.872 -17.135  0.00  0.00    +0.150 HD
BRANCH  23  25
ATOM     25  C   UNL     1      33.545 -22.023 -18.844  0.00  0.00    +0.054 C 
ATOM     26  C   UNL     1      33.135 -21.101 -19.806  0.00  0.00    +0.008 C 
ATOM     27  C   UNL     1      34.900 -22.329 -18.702  0.00  0.00    +0.008 C 
ATOM     28  C   UNL     1      34.078 -20.484 -20.628  0.00  0.00    +0.038 C 
ATOM     29  C   UNL     1      35.843 -21.711 -19.524  0.00  0.00    +0.038 C 
ATOM     30  C   UNL     1      35.432 -20.789 -20.487  0.00  0.00    +0.145 C 
BRANCH  30  31
ATOM     31  O   UNL     1      36.352 -20.189 -21.290  0.00  0.00    -0.453 OA
BRANCH  31  32
ATOM     32  C   UNL     1      35.897 -19.249 -22.200  0.00  0.00    +0.145 C 
ATOM     33  C   UNL     1      36.040 -17.889 -21.927  0.00  0.00    +0.037 C 
ATOM     34  C   UNL     1      35.294 -19.664 -23.388  0.00  0.00    +0.037 C 
ATOM     35  C   UNL     1      35.581 -16.942 -22.843  0.00  0.00    +0.003 C 
ATOM     36  C   UNL     1      34.835 -18.717 -24.304  0.00  0.00    +0.003 C 
ATOM     37  C   UNL     1      34.978 -17.356 -24.031  0.00  0.00    +0.000 C 
ENDBRANCH  31  32
ENDBRANCH  30  31
ENDBRANCH  23  25
ENDBRANCH  20  22
ENDBRANCH   1  20
TORSDOF 6
ENDMDL
MODEL 5
REMARK VINA RESULT:     -11.6      5.010     11.030
REMARK  Name = 25023705
REMARK  6 active torsions:
REMARK  status: ('A' for Active; 'I' for Inactive)
REMARK    1  A    between atoms: C_1  and  C_8
REMARK    2  A    between atoms: C_1  and  C_20
REMARK    3  A    between atoms: C_20  and  N_22
REMARK    4  A    between atoms: C_23  and  C_25
REMARK    5  A    between atoms: C_30  and  O_31
REMARK    6  A    between atoms: O_31  and  C_32
REMARK                            x       y       z     vdW  Elec       q    Type
REMARK                         _______ _______ _______ _____ _____    ______ ____
ROOT
ATOM      1  C   UNL     1      35.871 -19.044 -22.563  0.00  0.00    +0.066 C 
ATOM      2  C   UNL     1      37.258 -18.986 -21.879  0.00  0.00    +0.009 C 
ATOM      3  C   UNL     1      36.049 -19.898 -23.843  0.00  0.00    +0.009 C 
ENDROOT
BRANCH   1   8
ATOM      4  N   UNL     1      35.059 -17.311 -24.114  0.00  0.00    -0.347 NA
ATOM      5  N   UNL     1      34.301 -15.772 -25.670  0.00  0.00    -0.266 NA
ATOM      6  N   UNL     1      33.756 -13.512 -25.041  0.00  0.00    -0.316 NA
ATOM      7  N   UNL     1      33.535 -14.226 -27.261  0.00  0.00    -0.283 N 
ATOM      8  C   UNL     1      35.392 -17.605 -22.834  0.00  0.00    +0.122 C 
ATOM      9  C   UNL     1      35.329 -16.706 -21.791  0.00  0.00    +0.026 C 
ATOM     10  C   UNL     1      34.894 -15.426 -22.088  0.00  0.00    +0.001 C 
ATOM     11  C   UNL     1      34.635 -16.075 -24.409  0.00  0.00    +0.137 C 
ATOM     12  C   UNL     1      34.543 -15.103 -23.407  0.00  0.00    +0.199 C 
ATOM     13  C   UNL     1      34.096 -13.838 -23.783  0.00  0.00    +0.187 C 
ATOM     14  C   UNL     1      33.881 -14.515 -25.922  0.00  0.00    +0.207 C 
ATOM     15  H   UNL     1      33.609 -14.925 -27.950  0.00  0.00    +0.156 HD
ATOM     16  H   UNL     1      33.222 -13.324 -27.504  0.00  0.00    +0.156 HD
ATOM     17  N   UNL     1      33.985 -12.820 -22.805  0.00  0.00    -0.334 N 
ATOM     18  H   UNL     1      33.671 -11.923 -23.062  0.00  0.00    +0.144 HD
ATOM     19  H   UNL     1      34.223 -13.008 -21.868  0.00  0.00    +0.144 HD
ENDBRANCH   1   8
BRANCH   1  20
ATOM     20  C   UNL     1      34.891 -19.784 -21.609  0.00  0.00    +0.096 C 
BRANCH  20  22
ATOM     21  O   UNL     1      34.118 -22.111 -20.116  0.00  0.00    -0.270 OA
ATOM     22  N   UNL     1      35.511 -20.280 -20.407  0.00  0.00    -0.300 N 
ATOM     23  C   UNL     1      35.065 -21.420 -19.752  0.00  0.00    +0.246 C 
ATOM     24  H   UNL     1      36.281 -19.791 -20.036  0.00  0.00    +0.150 HD
BRANCH  23  25
ATOM     25  C   UNL     1      35.795 -21.785 -18.510  0.00  0.00    +0.054 C 
ATOM     26  C   UNL     1      35.188 -22.604 -17.559  0.00  0.00    +0.008 C 
ATOM     27  C   UNL     1      37.088 -21.306 -18.296  0.00  0.00    +0.008 C 
ATOM     28  C   UNL     1      35.873 -22.945 -16.393  0.00  0.00    +0.038 C 
ATOM     29  C   UNL     1      37.774 -21.647 -17.130  0.00  0.00    +0.038 C 
ATOM     30  C   UNL     1      37.166 -22.466 -16.178  0.00  0.00    +0.145 C 
BRANCH  30  31
ATOM     31  O   UNL     1      37.834 -22.796 -15.040  0.00  0.00    -0.453 OA
BRANCH  31  32
ATOM     32  C   UNL     1      37.705 -24.094 -14.571  0.00  0.00    +0.145 C 
ATOM     33  C   UNL     1      36.935 -24.352 -13.438  0.00  0.00    +0.037 C 
ATOM     34  C   UNL     1      38.348 -25.141 -15.232  0.00  0.00    +0.037 C 
ATOM     35  C   UNL     1      36.806 -25.658 -12.965  0.00  0.00    +0.003 C 
ATOM     36  C   UNL     1      38.219 -26.447 -14.759  0.00  0.00    +0.003 C 
ATOM     37  C   UNL     1      37.449 -26.705 -13.626  0.00  0.00    +0.000 C 
ENDBRANCH  31  32
ENDBRANCH  30  31
ENDBRANCH  23  25
ENDBRANCH  20  22
ENDBRANCH   1  20
TORSDOF 6
ENDMDL
MODEL 6
REMARK VINA RESULT:     -11.5      8.961     13.719
REMARK  Name = 25023705
REMARK  6 active torsions:
REMARK  status: ('A' for Active; 'I' for Inactive)
REMARK    1  A    between atoms: C_1  and  C_8
REMARK    2  A    between atoms: C_1  and  C_20
REMARK    3  A    between atoms: C_20  and  N_22
REMARK    4  A    between atoms: C_23  and  C_25
REMARK    5  A    between atoms: C_30  and  O_31
REMARK    6  A    between atoms: O_31  and  C_32
REMARK                            x       y       z     vdW  Elec       q    Type
REMARK                         _______ _______ _______ _____ _____    ______ ____
ROOT
ATOM      1  C   UNL     1      31.923 -11.576 -21.289  0.00  0.00    +0.066 C 
ATOM      2  C   UNL     1      30.425 -11.850 -21.011  0.00  0.00    +0.009 C 
ATOM      3  C   UNL     1      32.712 -12.235 -20.131  0.00  0.00    +0.009 C 
ENDROOT
BRANCH   1   8
ATOM      4  N   UNL     1      32.212  -9.546 -22.654  0.00  0.00    -0.347 NA
ATOM      5  N   UNL     1      32.472  -7.714 -24.046  0.00  0.00    -0.266 NA
ATOM      6  N   UNL     1      32.777  -5.495 -23.162  0.00  0.00    -0.316 NA
ATOM      7  N   UNL     1      32.735  -5.868 -25.473  0.00  0.00    -0.283 N 
ATOM      8  C   UNL     1      32.134 -10.053 -21.400  0.00  0.00    +0.122 C 
ATOM      9  C   UNL     1      32.234  -9.298 -20.251  0.00  0.00    +0.026 C 
ATOM     10  C   UNL     1      32.423  -7.936 -20.406  0.00  0.00    +0.001 C 
ATOM     11  C   UNL     1      32.395  -8.228 -22.813  0.00  0.00    +0.137 C 
ATOM     12  C   UNL     1      32.506  -7.392 -21.696  0.00  0.00    +0.199 C 
ATOM     13  C   UNL     1      32.696  -6.032 -21.933  0.00  0.00    +0.187 C 
ATOM     14  C   UNL     1      32.658  -6.382 -24.160  0.00  0.00    +0.207 C 
ATOM     15  H   UNL     1      32.655  -6.475 -26.244  0.00  0.00    +0.156 HD
ATOM     16  H   UNL     1      32.870  -4.903 -25.617  0.00  0.00    +0.156 HD
ATOM     17  N   UNL     1      32.813  -5.144 -20.835  0.00  0.00    -0.334 N 
ATOM     18  H   UNL     1      32.948  -4.182 -20.994  0.00  0.00    +0.144 HD
ATOM     19  H   UNL     1      32.761  -5.489 -19.915  0.00  0.00    +0.144 HD
ENDBRANCH   1   8
BRANCH   1  20
ATOM     20  C   UNL     1      32.308 -12.288 -22.616  0.00  0.00    +0.096 C 
BRANCH  20  22
ATOM     21  O   UNL     1      34.606 -13.217 -24.063  0.00  0.00    -0.270 OA
ATOM     22  N   UNL     1      32.994 -13.540 -22.428  0.00  0.00    -0.300 N 
ATOM     23  C   UNL     1      34.103 -13.905 -23.180  0.00  0.00    +0.246 C 
ATOM     24  H   UNL     1      32.663 -14.162 -21.740  0.00  0.00    +0.150 HD
BRANCH  23  25
ATOM     25  C   UNL     1      34.680 -15.242 -22.882  0.00  0.00    +0.054 C 
ATOM     26  C   UNL     1      35.028 -16.099 -23.925  0.00  0.00    +0.008 C 
ATOM     27  C   UNL     1      34.873 -15.638 -21.558  0.00  0.00    +0.008 C 
ATOM     28  C   UNL     1      35.568 -17.354 -23.644  0.00  0.00    +0.038 C 
ATOM     29  C   UNL     1      35.414 -16.893 -21.278  0.00  0.00    +0.038 C 
ATOM     30  C   UNL     1      35.761 -17.751 -22.321  0.00  0.00    +0.145 C 
BRANCH  30  31
ATOM     31  O   UNL     1      36.286 -18.976 -22.048  0.00  0.00    -0.453 OA
BRANCH  31  32
ATOM     32  C   UNL     1      35.525 -19.848 -21.286  0.00  0.00    +0.145 C 
ATOM     33  C   UNL     1      36.150 -20.732 -20.407  0.00  0.00    +0.037 C 
ATOM     34  C   UNL     1      34.134 -19.842 -21.399  0.00  0.00    +0.037 C 
ATOM     35  C   UNL     1      35.384 -21.611 -19.640  0.00  0.00    +0.003 C 
ATOM     36  C   UNL     1      33.369 -20.720 -20.632  0.00  0.00    +0.003 C 
ATOM     37  C   UNL     1      33.994 -21.605 -19.753  0.00  0.00    +0.000 C 
ENDBRANCH  31  32
ENDBRANCH  30  31
ENDBRANCH  23  25
ENDBRANCH  20  22
ENDBRANCH   1  20
TORSDOF 6
ENDMDL
MODEL 7
REMARK VINA RESULT:     -11.5      2.355      4.774
REMARK  Name = 25023705
REMARK  6 active torsions:
REMARK  status: ('A' for Active; 'I' for Inactive)
REMARK    1  A    between atoms: C_1  and  C_8
REMARK    2  A    between atoms: C_1  and  C_20
REMARK    3  A    between atoms: C_20  and  N_22
REMARK    4  A    between atoms: C_23  and  C_25
REMARK    5  A    between atoms: C_30  and  O_31
REMARK    6  A    between atoms: O_31  and  C_32
REMARK                            x       y       z     vdW  Elec       q    Type
REMARK                         _______ _______ _______ _____ _____    ______ ____
ROOT
ATOM      1  C   UNL     1      34.275 -22.530 -19.117  0.00  0.00    +0.066 C 
ATOM      2  C   UNL     1      32.981 -21.717 -19.361  0.00  0.00    +0.009 C 
ATOM      3  C   UNL     1      34.216 -23.746 -20.074  0.00  0.00    +0.009 C 
ENDROOT
BRANCH   1   8
ATOM      4  N   UNL     1      33.217 -23.435 -17.084  0.00  0.00    -0.347 NA
ATOM      5  N   UNL     1      32.112 -24.306 -15.245  0.00  0.00    -0.266 NA
ATOM      6  N   UNL     1      33.202 -24.520 -13.108  0.00  0.00    -0.316 NA
ATOM      7  N   UNL     1      30.976 -25.191 -13.392  0.00  0.00    -0.283 N 
ATOM      8  C   UNL     1      34.344 -22.912 -17.625  0.00  0.00    +0.122 C 
ATOM      9  C   UNL     1      35.516 -22.709 -16.929  0.00  0.00    +0.026 C 
ATOM     10  C   UNL     1      35.525 -23.068 -15.592  0.00  0.00    +0.001 C 
ATOM     11  C   UNL     1      33.219 -23.787 -15.791  0.00  0.00    +0.137 C 
ATOM     12  C   UNL     1      34.369 -23.612 -15.014  0.00  0.00    +0.199 C 
ATOM     13  C   UNL     1      34.301 -23.998 -13.677  0.00  0.00    +0.187 C 
ATOM     14  C   UNL     1      32.157 -24.645 -13.940  0.00  0.00    +0.207 C 
ATOM     15  H   UNL     1      30.178 -25.304 -13.957  0.00  0.00    +0.156 HD
ATOM     16  H   UNL     1      30.950 -25.456 -12.444  0.00  0.00    +0.156 HD
ATOM     17  N   UNL     1      35.439 -23.842 -12.849  0.00  0.00    -0.334 N 
ATOM     18  H   UNL     1      35.400 -24.112 -11.902  0.00  0.00    +0.144 HD
ATOM     19  H   UNL     1      36.269 -23.463 -13.218  0.00  0.00    +0.144 HD
ENDBRANCH   1   8
BRANCH   1  20
ATOM     20  C   UNL     1      35.487 -21.643 -19.518  0.00  0.00    +0.096 C 
BRANCH  20  22
ATOM     21  O   UNL     1      37.125 -19.485 -20.466  0.00  0.00    -0.270 OA
ATOM     22  N   UNL     1      35.260 -20.844 -20.695  0.00  0.00    -0.300 N 
ATOM     23  C   UNL     1      36.112 -19.815 -21.076  0.00  0.00    +0.246 C 
ATOM     24  H   UNL     1      34.469 -21.033 -21.250  0.00  0.00    +0.150 HD
BRANCH  23  25
ATOM     25  C   UNL     1      35.723 -19.067 -22.299  0.00  0.00    +0.054 C 
ATOM     26  C   UNL     1      36.132 -17.745 -22.467  0.00  0.00    +0.008 C 
ATOM     27  C   UNL     1      34.947 -19.688 -23.278  0.00  0.00    +0.008 C 
ATOM     28  C   UNL     1      35.765 -17.043 -23.616  0.00  0.00    +0.038 C 
ATOM     29  C   UNL     1      34.581 -18.986 -24.427  0.00  0.00    +0.038 C 
ATOM     30  C   UNL     1      34.990 -17.663 -24.595  0.00  0.00    +0.145 C 
BRANCH  30  31
ATOM     31  O   UNL     1      34.630 -16.978 -25.714  0.00  0.00    -0.453 OA
BRANCH  31  32
ATOM     32  C   UNL     1      34.331 -15.632 -25.577  0.00  0.00    +0.145 C 
ATOM     33  C   UNL     1      33.835 -14.915 -26.665  0.00  0.00    +0.037 C 
ATOM     34  C   UNL     1      34.527 -14.995 -24.351  0.00  0.00    +0.037 C 
ATOM     35  C   UNL     1      33.534 -13.559 -26.528  0.00  0.00    +0.003 C 
ATOM     36  C   UNL     1      34.226 -13.640 -24.214  0.00  0.00    +0.003 C 
ATOM     37  C   UNL     1      33.730 -12.922 -25.302  0.00  0.00    +0.000 C 
ENDBRANCH  31  32
ENDBRANCH  30  31
ENDBRANCH  23  25
ENDBRANCH  20  22
ENDBRANCH   1  20
TORSDOF 6
ENDMDL
MODEL 8
REMARK VINA RESULT:     -11.3      8.992     14.095
REMARK  Name = 25023705
REMARK  6 active torsions:
REMARK  status: ('A' for Active; 'I' for Inactive)
REMARK    1  A    between atoms: C_1  and  C_8
REMARK    2  A    between atoms: C_1  and  C_20
REMARK    3  A    between atoms: C_20  and  N_22
REMARK    4  A    between atoms: C_23  and  C_25
REMARK    5  A    between atoms: C_30  and  O_31
REMARK    6  A    between atoms: O_31  and  C_32
REMARK                            x       y       z     vdW  Elec       q    Type
REMARK                         _______ _______ _______ _____ _____    ______ ____
ROOT
ATOM      1  C   UNL     1      32.114 -11.401 -21.864  0.00  0.00    +0.066 C 
ATOM      2  C   UNL     1      30.700 -11.325 -21.238  0.00  0.00    +0.009 C 
ATOM      3  C   UNL     1      33.057 -11.927 -20.755  0.00  0.00    +0.009 C 
ENDROOT
BRANCH   1   8
ATOM      4  N   UNL     1      31.692  -8.979 -22.023  0.00  0.00    -0.347 NA
ATOM      5  N   UNL     1      31.190  -6.719 -22.092  0.00  0.00    -0.266 NA
ATOM      6  N   UNL     1      32.541  -5.168 -23.344  0.00  0.00    -0.316 NA
ATOM      7  N   UNL     1      30.665  -4.432 -22.151  0.00  0.00    -0.283 N 
ATOM      8  C   UNL     1      32.494 -10.005 -22.396  0.00  0.00    +0.122 C 
ATOM      9  C   UNL     1      33.600  -9.869 -23.206  0.00  0.00    +0.026 C 
ATOM     10  C   UNL     1      33.898  -8.594 -23.658  0.00  0.00    +0.001 C 
ATOM     11  C   UNL     1      31.974  -7.742 -22.455  0.00  0.00    +0.137 C 
ATOM     12  C   UNL     1      33.080  -7.519 -23.282  0.00  0.00    +0.199 C 
ATOM     13  C   UNL     1      33.315  -6.210 -23.695  0.00  0.00    +0.187 C 
ATOM     14  C   UNL     1      31.510  -5.491 -22.551  0.00  0.00    +0.207 C 
ATOM     15  H   UNL     1      29.892  -4.613 -21.570  0.00  0.00    +0.156 HD
ATOM     16  H   UNL     1      30.850  -3.514 -22.456  0.00  0.00    +0.156 HD
ATOM     17  N   UNL     1      34.423  -5.932 -24.533  0.00  0.00    -0.334 N 
ATOM     18  H   UNL     1      34.596  -5.009 -24.830  0.00  0.00    +0.144 HD
ATOM     19  H   UNL     1      35.019  -6.661 -24.818  0.00  0.00    +0.144 HD
ENDBRANCH   1   8
BRANCH   1  20
ATOM     20  C   UNL     1      32.078 -12.443 -23.017  0.00  0.00    +0.096 C 
BRANCH  20  22
ATOM     21  O   UNL     1      34.482 -13.301 -24.331  0.00  0.00    -0.270 OA
ATOM     22  N   UNL     1      32.827 -13.642 -22.742  0.00  0.00    -0.300 N 
ATOM     23  C   UNL     1      33.985 -13.975 -23.433  0.00  0.00    +0.246 C 
ATOM     24  H   UNL     1      32.505 -14.249 -22.037  0.00  0.00    +0.150 HD
BRANCH  23  25
ATOM     25  C   UNL     1      34.626 -15.260 -23.049  0.00  0.00    +0.054 C 
ATOM     26  C   UNL     1      34.786 -15.583 -21.702  0.00  0.00    +0.008 C 
ATOM     27  C   UNL     1      35.068 -16.140 -24.037  0.00  0.00    +0.008 C 
ATOM     28  C   UNL     1      35.388 -16.789 -21.343  0.00  0.00    +0.038 C 
ATOM     29  C   UNL     1      35.670 -17.346 -23.677  0.00  0.00    +0.038 C 
ATOM     30  C   UNL     1      35.831 -17.669 -22.329  0.00  0.00    +0.145 C 
BRANCH  30  31
ATOM     31  O   UNL     1      36.421 -18.844 -21.978  0.00  0.00    -0.453 OA
BRANCH  31  32
ATOM     32  C   UNL     1      35.666 -19.754 -21.256  0.00  0.00    +0.145 C 
ATOM     33  C   UNL     1      34.277 -19.761 -21.382  0.00  0.00    +0.037 C 
ATOM     34  C   UNL     1      36.294 -20.660 -20.403  0.00  0.00    +0.037 C 
ATOM     35  C   UNL     1      33.515 -20.676 -20.654  0.00  0.00    +0.003 C 
ATOM     36  C   UNL     1      35.533 -21.575 -19.675  0.00  0.00    +0.003 C 
ATOM     37  C   UNL     1      34.144 -21.583 -19.800  0.00  0.00    +0.000 C 
ENDBRANCH  31  32
ENDBRANCH  30  31
ENDBRANCH  23  25
ENDBRANCH  20  22
ENDBRANCH   1  20
TORSDOF 6
ENDMDL
MODEL 9
REMARK VINA RESULT:     -11.0      2.353      4.996
REMARK  Name = 25023705
REMARK  6 active torsions:
REMARK  status: ('A' for Active; 'I' for Inactive)
REMARK    1  A    between atoms: C_1  and  C_8
REMARK    2  A    between atoms: C_1  and  C_20
REMARK    3  A    between atoms: C_20  and  N_22
REMARK    4  A    between atoms: C_23  and  C_25
REMARK    5  A    between atoms: C_30  and  O_31
REMARK    6  A    between atoms: O_31  and  C_32
REMARK                            x       y       z     vdW  Elec       q    Type
REMARK                         _______ _______ _______ _____ _____    ______ ____
ROOT
ATOM      1  C   UNL     1      34.793 -23.552 -15.599  0.00  0.00    +0.066 C 
ATOM      2  C   UNL     1      35.625 -24.337 -14.555  0.00  0.00    +0.009 C 
ATOM      3  C   UNL     1      35.076 -22.051 -15.346  0.00  0.00    +0.009 C 
ENDROOT
BRANCH   1   8
ATOM      4  N   UNL     1      32.432 -23.312 -16.261  0.00  0.00    -0.347 NA
ATOM      5  N   UNL     1      30.251 -22.997 -16.973  0.00  0.00    -0.266 NA
ATOM      6  N   UNL     1      28.420 -24.219 -15.997  0.00  0.00    -0.316 NA
ATOM      7  N   UNL     1      28.047 -22.664 -17.708  0.00  0.00    -0.283 N 
ATOM      8  C   UNL     1      33.310 -23.942 -15.444  0.00  0.00    +0.122 C 
ATOM      9  C   UNL     1      32.955 -24.888 -14.506  0.00  0.00    +0.026 C 
ATOM     10  C   UNL     1      31.611 -25.202 -14.406  0.00  0.00    +0.001 C 
ATOM     11  C   UNL     1      31.129 -23.612 -16.171  0.00  0.00    +0.137 C 
ATOM     12  C   UNL     1      30.686 -24.562 -15.243  0.00  0.00    +0.199 C 
ATOM     13  C   UNL     1      29.319 -24.824 -15.202  0.00  0.00    +0.187 C 
ATOM     14  C   UNL     1      28.949 -23.329 -16.848  0.00  0.00    +0.207 C 
ATOM     15  H   UNL     1      28.381 -21.999 -18.352  0.00  0.00    +0.156 HD
ATOM     16  H   UNL     1      27.084 -22.866 -17.661  0.00  0.00    +0.156 HD
ATOM     17  N   UNL     1      28.820 -25.778 -14.281  0.00  0.00    -0.334 N 
ATOM     18  H   UNL     1      27.855 -25.969 -14.245  0.00  0.00    +0.144 HD
ATOM     19  H   UNL     1      29.438 -26.248 -13.676  0.00  0.00    +0.144 HD
ENDBRANCH   1   8
BRANCH   1  20
ATOM     20  C   UNL     1      35.318 -23.921 -17.015  0.00  0.00    +0.096 C 
BRANCH  20  22
ATOM     21  O   UNL     1      34.061 -23.451 -19.552  0.00  0.00    -0.270 OA
ATOM     22  N   UNL     1      35.519 -22.784 -17.876  0.00  0.00    -0.300 N 
ATOM     23  C   UNL     1      34.863 -22.643 -19.092  0.00  0.00    +0.246 C 
ATOM     24  H   UNL     1      36.146 -22.080 -17.592  0.00  0.00    +0.150 HD
BRANCH  23  25
ATOM     25  C   UNL     1      35.199 -21.426 -19.876  0.00  0.00    +0.054 C 
ATOM     26  C   UNL     1      36.528 -21.023 -20.001  0.00  0.00    +0.008 C 
ATOM     27  C   UNL     1      34.184 -20.688 -20.486  0.00  0.00    +0.008 C 
ATOM     28  C   UNL     1      36.842 -19.880 -20.736  0.00  0.00    +0.038 C 
ATOM     29  C   UNL     1      34.499 -19.546 -21.222  0.00  0.00    +0.038 C 
ATOM     30  C   UNL     1      35.828 -19.141 -21.346  0.00  0.00    +0.145 C 
BRANCH  30  31
ATOM     31  O   UNL     1      36.135 -18.025 -22.062  0.00  0.00    -0.453 OA
BRANCH  31  32
ATOM     32  C   UNL     1      35.492 -17.840 -23.274  0.00  0.00    +0.145 C 
ATOM     33  C   UNL     1      35.365 -16.558 -23.807  0.00  0.00    +0.037 C 
ATOM     34  C   UNL     1      34.970 -18.937 -23.961  0.00  0.00    +0.037 C 
ATOM     35  C   UNL     1      34.716 -16.371 -25.028  0.00  0.00    +0.003 C 
ATOM     36  C   UNL     1      34.321 -18.750 -25.182  0.00  0.00    +0.003 C 
ATOM     37  C   UNL     1      34.194 -17.467 -25.715  0.00  0.00    +0.000 C 
ENDBRANCH  31  32
ENDBRANCH  30  31
ENDBRANCH  23  25
ENDBRANCH  20  22
ENDBRANCH   1  20
TORSDOF 6
ENDMDL
