MODEL 1
REMARK VINA RESULT:     -11.1      0.000      0.000
REMARK  Name = 5472495
REMARK  6 active torsions:
REMARK  status: ('A' for Active; 'I' for Inactive)
REMARK    1  A    between atoms: C_2  and  C_23
REMARK    2  A    between atoms: C_3  and  C_7
REMARK    3  A    between atoms: C_7  and  C_13
REMARK    4  A    between atoms: C_16  and  S_19
REMARK    5  A    between atoms: C_23  and  C_25
REMARK    6  A    between atoms: C_25  and  O_26
REMARK                            x       y       z     vdW  Elec       q    Type
REMARK                         _______ _______ _______ _____ _____    ______ ____
ROOT
ATOM      1  F   UNL     1      37.286 -23.641 -13.185  0.00  0.00    -0.204 F 
ATOM      2  C   UNL     1      32.806 -23.244 -15.256  0.00  0.00    -0.030 C 
ATOM      3  C   UNL     1      33.692 -23.196 -17.373  0.00  0.00    -0.036 C 
ATOM      4  C   UNL     1      32.475 -23.158 -16.563  0.00  0.00    +0.037 C 
ATOM      5  C   UNL     1      34.274 -23.345 -15.168  0.00  0.00    -0.005 C 
ATOM      6  C   UNL     1      34.830 -23.316 -16.458  0.00  0.00    -0.008 C 
ATOM      7  C   UNL     1      35.092 -23.455 -14.053  0.00  0.00    +0.029 C 
ATOM      8  C   UNL     1      36.198 -23.395 -16.659  0.00  0.00    +0.002 C 
ATOM      9  C   UNL     1      31.117 -23.038 -17.166  0.00  0.00    +0.009 C 
ATOM     10  C   UNL     1      36.474 -23.535 -14.246  0.00  0.00    +0.140 C 
ATOM     11  C   UNL     1      37.022 -23.505 -15.538  0.00  0.00    +0.030 C 
ENDROOT
BRANCH   3  12
ATOM     12  C   UNL     1      33.782 -23.134 -18.707  0.00  0.00    +0.049 C 
BRANCH  12  13
ATOM     13  C   UNL     1      34.388 -22.035 -19.477  0.00  0.00    -0.018 C 
ATOM     14  C   UNL     1      35.767 -21.898 -19.497  0.00  0.00    -0.003 C 
ATOM     15  C   UNL     1      33.568 -21.158 -20.171  0.00  0.00    -0.003 C 
ATOM     16  C   UNL     1      35.529 -19.969 -20.931  0.00  0.00    +0.106 C 
ATOM     17  C   UNL     1      36.341 -20.859 -20.229  0.00  0.00    +0.018 C 
ATOM     18  C   UNL     1      34.142 -20.119 -20.903  0.00  0.00    +0.018 C 
BRANCH  16  19
ATOM     19  S   UNL     1      36.248 -18.668 -21.846  0.00  0.00    +0.010 S 
ATOM     20  O   UNL     1      35.735 -17.411 -21.319  0.00  0.00    -0.169 OA
ATOM     21  O   UNL     1      37.687 -18.884 -21.925  0.00  0.00    -0.169 OA
ATOM     22  C   UNL     1      35.603 -18.874 -23.490  0.00  0.00    +0.182 C 
ENDBRANCH  16  19
ENDBRANCH  12  13
ENDBRANCH   3  12
BRANCH   2  23
ATOM     23  C   UNL     1      31.946 -23.249 -14.045  0.00  0.00    +0.132 C 
BRANCH  23  25
ATOM     24  O   UNL     1      30.259 -25.012 -14.178  0.00  0.00    -0.250 OA
ATOM     25  C   UNL     1      31.359 -24.620 -13.817  0.00  0.00    +0.318 C 
BRANCH  25  26
ATOM     26  O   UNL     1      32.242 -25.391 -13.128  0.00  0.00    -0.480 OA
ATOM     27  H   UNL     1      32.963 -25.788 -13.574  0.00  0.00    +0.295 HD
ENDBRANCH  25  26
ENDBRANCH  23  25
ENDBRANCH   2  23
TORSDOF 6
ENDMDL
MODEL 2
REMARK VINA RESULT:     -10.4      4.462      9.626
REMARK  Name = 5472495
REMARK  6 active torsions:
REMARK  status: ('A' for Active; 'I' for Inactive)
REMARK    1  A    between atoms: C_2  and  C_23
REMARK    2  A    between atoms: C_3  and  C_7
REMARK    3  A    between atoms: C_7  and  C_13
REMARK    4  A    between atoms: C_16  and  S_19
REMARK    5  A    between atoms: C_23  and  C_25
REMARK    6  A    between atoms: C_25  and  O_26
REMARK                            x       y       z     vdW  Elec       q    Type
REMARK                         _______ _______ _______ _____ _____    ______ ____
ROOT
ATOM      1  F   UNL     1      33.550 -12.954 -22.275  0.00  0.00    -0.204 F 
ATOM      2  C   UNL     1      35.258 -17.082 -24.409  0.00  0.00    -0.030 C 
ATOM      3  C   UNL     1      35.962 -17.936 -22.398  0.00  0.00    -0.036 C 
ATOM      4  C   UNL     1      35.860 -18.150 -23.841  0.00  0.00    +0.037 C 
ATOM      5  C   UNL     1      34.942 -16.120 -23.338  0.00  0.00    -0.005 C 
ATOM      6  C   UNL     1      35.369 -16.630 -22.100  0.00  0.00    -0.008 C 
ATOM      7  C   UNL     1      34.326 -14.880 -23.412  0.00  0.00    +0.029 C 
ATOM      8  C   UNL     1      35.191 -15.920 -20.924  0.00  0.00    +0.002 C 
ATOM      9  C   UNL     1      36.368 -19.386 -24.503  0.00  0.00    +0.009 C 
ATOM     10  C   UNL     1      34.143 -14.155 -22.231  0.00  0.00    +0.140 C 
ATOM     11  C   UNL     1      34.572 -14.671 -20.998  0.00  0.00    +0.030 C 
ENDROOT
BRANCH   3  12
ATOM     12  C   UNL     1      36.497 -18.762 -21.490  0.00  0.00    +0.049 C 
BRANCH  12  13
ATOM     13  C   UNL     1      35.782 -19.830 -20.773  0.00  0.00    -0.018 C 
ATOM     14  C   UNL     1      36.492 -20.689 -19.949  0.00  0.00    -0.003 C 
ATOM     15  C   UNL     1      34.410 -19.957 -20.933  0.00  0.00    -0.003 C 
ATOM     16  C   UNL     1      34.435 -21.840 -19.420  0.00  0.00    +0.106 C 
ATOM     17  C   UNL     1      35.814 -21.701 -19.268  0.00  0.00    +0.018 C 
ATOM     18  C   UNL     1      33.733 -20.968 -20.252  0.00  0.00    +0.018 C 
BRANCH  16  19
ATOM     19  S   UNL     1      33.587 -23.106 -18.567  0.00  0.00    +0.010 S 
ATOM     20  O   UNL     1      32.226 -22.648 -18.322  0.00  0.00    -0.169 OA
ATOM     21  O   UNL     1      33.811 -24.371 -19.255  0.00  0.00    -0.169 OA
ATOM     22  C   UNL     1      34.418 -23.216 -16.999  0.00  0.00    +0.182 C 
ENDBRANCH  16  19
ENDBRANCH  12  13
ENDBRANCH   3  12
BRANCH   2  23
ATOM     23  C   UNL     1      34.923 -16.812 -25.831  0.00  0.00    +0.132 C 
BRANCH  23  25
ATOM     24  O   UNL     1      32.800 -17.999 -26.066  0.00  0.00    -0.250 OA
ATOM     25  C   UNL     1      33.439 -16.957 -26.062  0.00  0.00    +0.318 C 
BRANCH  25  26
ATOM     26  O   UNL     1      32.884 -15.735 -26.278  0.00  0.00    -0.480 OA
ATOM     27  H   UNL     1      33.378 -15.067 -26.711  0.00  0.00    +0.295 HD
ENDBRANCH  25  26
ENDBRANCH  23  25
ENDBRANCH   2  23
TORSDOF 6
ENDMDL
MODEL 3
REMARK VINA RESULT:     -10.4      1.914      3.444
REMARK  Name = 5472495
REMARK  6 active torsions:
REMARK  status: ('A' for Active; 'I' for Inactive)
REMARK    1  A    between atoms: C_2  and  C_23
REMARK    2  A    between atoms: C_3  and  C_7
REMARK    3  A    between atoms: C_7  and  C_13
REMARK    4  A    between atoms: C_16  and  S_19
REMARK    5  A    between atoms: C_23  and  C_25
REMARK    6  A    between atoms: C_25  and  O_26
REMARK                            x       y       z     vdW  Elec       q    Type
REMARK                         _______ _______ _______ _____ _____    ______ ____
ROOT
ATOM      1  F   UNL     1      29.764 -23.167 -14.057  0.00  0.00    -0.204 F 
ATOM      2  C   UNL     1      34.585 -23.216 -15.179  0.00  0.00    -0.030 C 
ATOM      3  C   UNL     1      34.151 -23.177 -17.433  0.00  0.00    -0.036 C 
ATOM      4  C   UNL     1      35.179 -23.206 -16.393  0.00  0.00    +0.037 C 
ATOM      5  C   UNL     1      33.127 -23.192 -15.391  0.00  0.00    -0.005 C 
ATOM      6  C   UNL     1      32.847 -23.169 -16.767  0.00  0.00    -0.008 C 
ATOM      7  C   UNL     1      32.095 -23.192 -14.463  0.00  0.00    +0.029 C 
ATOM      8  C   UNL     1      31.545 -23.145 -17.241  0.00  0.00    +0.002 C 
ATOM      9  C   UNL     1      36.636 -23.221 -16.709  0.00  0.00    +0.009 C 
ATOM     10  C   UNL     1      30.778 -23.168 -14.932  0.00  0.00    +0.140 C 
ATOM     11  C   UNL     1      30.506 -23.145 -16.309  0.00  0.00    +0.030 C 
ENDROOT
BRANCH   3  12
ATOM     12  C   UNL     1      34.337 -23.161 -18.758  0.00  0.00    +0.049 C 
BRANCH  12  13
ATOM     13  C   UNL     1      34.748 -21.994 -19.555  0.00  0.00    -0.018 C 
ATOM     14  C   UNL     1      33.782 -21.231 -20.192  0.00  0.00    -0.003 C 
ATOM     15  C   UNL     1      36.095 -21.678 -19.655  0.00  0.00    -0.003 C 
ATOM     16  C   UNL     1      35.522 -19.794 -21.054  0.00  0.00    +0.106 C 
ATOM     17  C   UNL     1      34.172 -20.124 -20.946  0.00  0.00    +0.018 C 
ATOM     18  C   UNL     1      36.484 -20.571 -20.408  0.00  0.00    +0.018 C 
BRANCH  16  19
ATOM     19  S   UNL     1      36.009 -18.408 -21.998  0.00  0.00    +0.010 S 
ATOM     20  O   UNL     1      35.540 -17.212 -21.312  0.00  0.00    -0.169 OA
ATOM     21  O   UNL     1      37.418 -18.540 -22.340  0.00  0.00    -0.169 OA
ATOM     22  C   UNL     1      35.092 -18.563 -23.514  0.00  0.00    +0.182 C 
ENDBRANCH  16  19
ENDBRANCH  12  13
ENDBRANCH   3  12
BRANCH   2  23
ATOM     23  C   UNL     1      35.180 -23.244 -13.818  0.00  0.00    +0.132 C 
BRANCH  23  25
ATOM     24  O   UNL     1      36.379 -25.374 -13.828  0.00  0.00    -0.250 OA
ATOM     25  C   UNL     1      35.482 -24.663 -13.401  0.00  0.00    +0.318 C 
BRANCH  25  26
ATOM     26  O   UNL     1      34.591 -25.064 -12.456  0.00  0.00    -0.480 OA
ATOM     27  H   UNL     1      33.757 -24.643 -12.390  0.00  0.00    +0.295 HD
ENDBRANCH  25  26
ENDBRANCH  23  25
ENDBRANCH   2  23
TORSDOF 6
ENDMDL
MODEL 4
REMARK VINA RESULT:      -9.8      5.226      9.979
REMARK  Name = 5472495
REMARK  6 active torsions:
REMARK  status: ('A' for Active; 'I' for Inactive)
REMARK    1  A    between atoms: C_2  and  C_23
REMARK    2  A    between atoms: C_3  and  C_7
REMARK    3  A    between atoms: C_7  and  C_13
REMARK    4  A    between atoms: C_16  and  S_19
REMARK    5  A    between atoms: C_23  and  C_25
REMARK    6  A    between atoms: C_25  and  O_26
REMARK                            x       y       z     vdW  Elec       q    Type
REMARK                         _______ _______ _______ _____ _____    ______ ____
ROOT
ATOM      1  F   UNL     1      33.254 -13.881 -27.061  0.00  0.00    -0.204 F 
ATOM      2  C   UNL     1      34.405 -14.750 -22.325  0.00  0.00    -0.030 C 
ATOM      3  C   UNL     1      35.340 -16.784 -22.835  0.00  0.00    -0.036 C 
ATOM      4  C   UNL     1      35.022 -15.822 -21.780  0.00  0.00    +0.037 C 
ATOM      5  C   UNL     1      34.300 -14.981 -23.778  0.00  0.00    -0.005 C 
ATOM      6  C   UNL     1      34.869 -16.224 -24.103  0.00  0.00    -0.008 C 
ATOM      7  C   UNL     1      33.751 -14.178 -24.767  0.00  0.00    +0.029 C 
ATOM      8  C   UNL     1      34.900 -16.686 -25.409  0.00  0.00    +0.002 C 
ATOM      9  C   UNL     1      35.360 -16.064 -20.348  0.00  0.00    +0.009 C 
ATOM     10  C   UNL     1      33.777 -14.637 -26.087  0.00  0.00    +0.140 C 
ATOM     11  C   UNL     1      34.347 -15.879 -26.405  0.00  0.00    +0.030 C 
ENDROOT
BRANCH   3  12
ATOM     12  C   UNL     1      35.949 -17.968 -22.697  0.00  0.00    +0.049 C 
BRANCH  12  13
ATOM     13  C   UNL     1      35.482 -19.082 -21.855  0.00  0.00    -0.018 C 
ATOM     14  C   UNL     1      36.394 -19.771 -21.073  0.00  0.00    -0.003 C 
ATOM     15  C   UNL     1      34.138 -19.421 -21.860  0.00  0.00    -0.003 C 
ATOM     16  C   UNL     1      34.602 -21.178 -20.269  0.00  0.00    +0.106 C 
ATOM     17  C   UNL     1      35.952 -20.826 -20.274  0.00  0.00    +0.018 C 
ATOM     18  C   UNL     1      33.695 -20.475 -21.062  0.00  0.00    +0.018 C 
BRANCH  16  19
ATOM     19  S   UNL     1      34.049 -22.498 -19.269  0.00  0.00    +0.010 S 
ATOM     20  O   UNL     1      32.714 -22.169 -18.789  0.00  0.00    -0.169 OA
ATOM     21  O   UNL     1      34.274 -23.752 -19.975  0.00  0.00    -0.169 OA
ATOM     22  C   UNL     1      35.150 -22.486 -17.873  0.00  0.00    +0.182 C 
ENDBRANCH  16  19
ENDBRANCH  12  13
ENDBRANCH   3  12
BRANCH   2  23
ATOM     23  C   UNL     1      33.886 -13.513 -21.688  0.00  0.00    +0.132 C 
BRANCH  23  25
ATOM     24  O   UNL     1      32.287 -14.486 -20.117  0.00  0.00    -0.250 OA
ATOM     25  C   UNL     1      32.532 -13.763 -21.071  0.00  0.00    +0.318 C 
BRANCH  25  26
ATOM     26  O   UNL     1      31.583 -13.056 -21.741  0.00  0.00    -0.480 OA
ATOM     27  H   UNL     1      30.987 -12.509 -21.269  0.00  0.00    +0.295 HD
ENDBRANCH  25  26
ENDBRANCH  23  25
ENDBRANCH   2  23
TORSDOF 6
ENDMDL
MODEL 5
REMARK VINA RESULT:      -9.7      5.162     10.638
REMARK  Name = 5472495
REMARK  6 active torsions:
REMARK  status: ('A' for Active; 'I' for Inactive)
REMARK    1  A    between atoms: C_2  and  C_23
REMARK    2  A    between atoms: C_3  and  C_7
REMARK    3  A    between atoms: C_7  and  C_13
REMARK    4  A    between atoms: C_16  and  S_19
REMARK    5  A    between atoms: C_23  and  C_25
REMARK    6  A    between atoms: C_25  and  O_26
REMARK                            x       y       z     vdW  Elec       q    Type
REMARK                         _______ _______ _______ _____ _____    ______ ____
ROOT
ATOM      1  F   UNL     1      32.588 -12.268 -20.899  0.00  0.00    -0.204 F 
ATOM      2  C   UNL     1      33.872 -15.075 -24.770  0.00  0.00    -0.030 C 
ATOM      3  C   UNL     1      35.270 -16.363 -23.484  0.00  0.00    -0.036 C 
ATOM      4  C   UNL     1      34.721 -16.125 -24.818  0.00  0.00    +0.037 C 
ATOM      5  C   UNL     1      33.838 -14.586 -23.380  0.00  0.00    -0.005 C 
ATOM      6  C   UNL     1      34.690 -15.367 -22.581  0.00  0.00    -0.008 C 
ATOM      7  C   UNL     1      33.121 -13.536 -22.825  0.00  0.00    +0.029 C 
ATOM      8  C   UNL     1      34.843 -15.117 -21.227  0.00  0.00    +0.002 C 
ATOM      9  C   UNL     1      35.095 -16.958 -25.997  0.00  0.00    +0.009 C 
ATOM     10  C   UNL     1      33.269 -13.276 -21.460  0.00  0.00    +0.140 C 
ATOM     11  C   UNL     1      34.123 -14.060 -20.668  0.00  0.00    +0.030 C 
ENDROOT
BRANCH   3  12
ATOM     12  C   UNL     1      36.145 -17.310 -23.123  0.00  0.00    +0.049 C 
BRANCH  12  13
ATOM     13  C   UNL     1      35.854 -18.466 -22.260  0.00  0.00    -0.018 C 
ATOM     14  C   UNL     1      34.582 -19.017 -22.267  0.00  0.00    -0.003 C 
ATOM     15  C   UNL     1      36.857 -18.984 -21.455  0.00  0.00    -0.003 C 
ATOM     16  C   UNL     1      35.307 -20.645 -20.636  0.00  0.00    +0.106 C 
ATOM     17  C   UNL     1      34.307 -20.114 -21.450  0.00  0.00    +0.018 C 
ATOM     18  C   UNL     1      36.582 -20.081 -20.639  0.00  0.00    +0.018 C 
BRANCH  16  19
ATOM     19  S   UNL     1      34.961 -22.017 -19.614  0.00  0.00    +0.010 S 
ATOM     20  O   UNL     1      33.660 -21.800 -18.995  0.00  0.00    -0.169 OA
ATOM     21  O   UNL     1      35.208 -23.241 -20.364  0.00  0.00    -0.169 OA
ATOM     22  C   UNL     1      36.194 -21.937 -18.334  0.00  0.00    +0.182 C 
ENDBRANCH  16  19
ENDBRANCH  12  13
ENDBRANCH   3  12
BRANCH   2  23
ATOM     23  C   UNL     1      33.067 -14.440 -25.845  0.00  0.00    +0.132 C 
BRANCH  23  25
ATOM     24  O   UNL     1      34.186 -12.274 -26.025  0.00  0.00    -0.250 OA
ATOM     25  C   UNL     1      33.853 -13.342 -26.518  0.00  0.00    +0.318 C 
BRANCH  25  26
ATOM     26  O   UNL     1      34.153 -13.706 -27.794  0.00  0.00    -0.480 OA
ATOM     27  H   UNL     1      33.603 -14.312 -28.248  0.00  0.00    +0.295 HD
ENDBRANCH  25  26
ENDBRANCH  23  25
ENDBRANCH   2  23
TORSDOF 6
ENDMDL
MODEL 6
REMARK VINA RESULT:      -9.3      4.565      7.000
REMARK  Name = 5472495
REMARK  6 active torsions:
REMARK  status: ('A' for Active; 'I' for Inactive)
REMARK    1  A    between atoms: C_2  and  C_23
REMARK    2  A    between atoms: C_3  and  C_7
REMARK    3  A    between atoms: C_7  and  C_13
REMARK    4  A    between atoms: C_16  and  S_19
REMARK    5  A    between atoms: C_23  and  C_25
REMARK    6  A    between atoms: C_25  and  O_26
REMARK                            x       y       z     vdW  Elec       q    Type
REMARK                         _______ _______ _______ _____ _____    ______ ____
ROOT
ATOM      1  F   UNL     1      37.326 -22.276 -17.876  0.00  0.00    -0.204 F 
ATOM      2  C   UNL     1      36.895 -24.078 -13.285  0.00  0.00    -0.030 C 
ATOM      3  C   UNL     1      34.612 -24.232 -13.465  0.00  0.00    -0.036 C 
ATOM      4  C   UNL     1      35.781 -24.445 -12.613  0.00  0.00    +0.037 C 
ATOM      5  C   UNL     1      36.482 -23.607 -14.619  0.00  0.00    -0.005 C 
ATOM      6  C   UNL     1      35.085 -23.695 -14.743  0.00  0.00    -0.008 C 
ATOM      7  C   UNL     1      37.252 -23.130 -15.670  0.00  0.00    +0.029 C 
ATOM      8  C   UNL     1      34.435 -23.313 -15.904  0.00  0.00    +0.002 C 
ATOM      9  C   UNL     1      35.674 -24.986 -11.228  0.00  0.00    +0.009 C 
ATOM     10  C   UNL     1      36.605 -22.741 -16.846  0.00  0.00    +0.140 C 
ATOM     11  C   UNL     1      35.209 -22.831 -16.962  0.00  0.00    +0.030 C 
ENDROOT
BRANCH   3  12
ATOM     12  C   UNL     1      33.331 -24.472 -13.160  0.00  0.00    +0.049 C 
BRANCH  12  13
ATOM     13  C   UNL     1      32.175 -24.215 -14.035  0.00  0.00    -0.018 C 
ATOM     14  C   UNL     1      31.747 -22.912 -14.231  0.00  0.00    -0.003 C 
ATOM     15  C   UNL     1      31.536 -25.281 -14.649  0.00  0.00    -0.003 C 
ATOM     16  C   UNL     1      30.001 -23.731 -15.686  0.00  0.00    +0.106 C 
ATOM     17  C   UNL     1      30.653 -22.668 -15.062  0.00  0.00    +0.018 C 
ATOM     18  C   UNL     1      30.443 -25.038 -15.479  0.00  0.00    +0.018 C 
BRANCH  16  19
ATOM     19  S   UNL     1      28.632 -23.425 -16.725  0.00  0.00    +0.010 S 
ATOM     20  O   UNL     1      29.024 -22.413 -17.697  0.00  0.00    -0.169 OA
ATOM     21  O   UNL     1      28.094 -24.698 -17.185  0.00  0.00    -0.169 OA
ATOM     22  C   UNL     1      27.413 -22.706 -15.649  0.00  0.00    +0.182 C 
ENDBRANCH  16  19
ENDBRANCH  12  13
ENDBRANCH   3  12
BRANCH   2  23
ATOM     23  C   UNL     1      38.320 -24.099 -12.867  0.00  0.00    +0.132 C 
BRANCH  23  25
ATOM     24  O   UNL     1      38.595 -26.456 -13.452  0.00  0.00    -0.250 OA
ATOM     25  C   UNL     1      39.020 -25.311 -13.432  0.00  0.00    +0.318 C 
BRANCH  25  26
ATOM     26  O   UNL     1      40.232 -24.951 -13.932  0.00  0.00    -0.480 OA
ATOM     27  H   UNL     1      40.321 -24.750 -14.843  0.00  0.00    +0.295 HD
ENDBRANCH  25  26
ENDBRANCH  23  25
ENDBRANCH   2  23
TORSDOF 6
ENDMDL
MODEL 7
REMARK VINA RESULT:      -8.9     13.329     18.291
REMARK  Name = 5472495
REMARK  6 active torsions:
REMARK  status: ('A' for Active; 'I' for Inactive)
REMARK    1  A    between atoms: C_2  and  C_23
REMARK    2  A    between atoms: C_3  and  C_7
REMARK    3  A    between atoms: C_7  and  C_13
REMARK    4  A    between atoms: C_16  and  S_19
REMARK    5  A    between atoms: C_23  and  C_25
REMARK    6  A    between atoms: C_25  and  O_26
REMARK                            x       y       z     vdW  Elec       q    Type
REMARK                         _______ _______ _______ _____ _____    ______ ____
ROOT
ATOM      1  F   UNL     1      34.501  -3.098 -28.755  0.00  0.00    -0.204 F 
ATOM      2  C   UNL     1      32.261  -4.396 -24.535  0.00  0.00    -0.030 C 
ATOM      3  C   UNL     1      33.875  -5.957 -24.057  0.00  0.00    -0.036 C 
ATOM      4  C   UNL     1      32.631  -5.322 -23.623  0.00  0.00    +0.037 C 
ATOM      5  C   UNL     1      33.270  -4.396 -25.611  0.00  0.00    -0.005 C 
ATOM      6  C   UNL     1      34.263  -5.348 -25.331  0.00  0.00    -0.008 C 
ATOM      7  C   UNL     1      33.337  -3.628 -26.764  0.00  0.00    +0.029 C 
ATOM      8  C   UNL     1      35.333  -5.552 -26.187  0.00  0.00    +0.002 C 
ATOM      9  C   UNL     1      31.940  -5.698 -22.357  0.00  0.00    +0.009 C 
ATOM     10  C   UNL     1      34.412  -3.827 -27.635  0.00  0.00    +0.140 C 
ATOM     11  C   UNL     1      35.402  -4.780 -27.348  0.00  0.00    +0.030 C 
ENDROOT
BRANCH   3  12
ATOM     12  C   UNL     1      34.556  -6.922 -23.427  0.00  0.00    +0.049 C 
BRANCH  12  13
ATOM     13  C   UNL     1      34.401  -8.369 -23.649  0.00  0.00    -0.018 C 
ATOM     14  C   UNL     1      33.317  -9.030 -23.092  0.00  0.00    -0.003 C 
ATOM     15  C   UNL     1      35.341  -9.046 -24.410  0.00  0.00    -0.003 C 
ATOM     16  C   UNL     1      34.107 -11.094 -24.068  0.00  0.00    +0.106 C 
ATOM     17  C   UNL     1      33.169 -10.401 -23.304  0.00  0.00    +0.018 C 
ATOM     18  C   UNL     1      35.193 -10.416 -24.622  0.00  0.00    +0.018 C 
BRANCH  16  19
ATOM     19  S   UNL     1      33.921 -12.810 -24.332  0.00  0.00    +0.010 S 
ATOM     20  O   UNL     1      33.614 -13.016 -25.741  0.00  0.00    -0.169 OA
ATOM     21  O   UNL     1      35.049 -13.506 -23.728  0.00  0.00    -0.169 OA
ATOM     22  C   UNL     1      32.478 -13.248 -23.389  0.00  0.00    +0.182 C 
ENDBRANCH  16  19
ENDBRANCH  12  13
ENDBRANCH   3  12
BRANCH   2  23
ATOM     23  C   UNL     1      31.086  -3.488 -24.561  0.00  0.00    +0.132 C 
BRANCH  23  25
ATOM     24  O   UNL     1      30.154  -2.575 -22.494  0.00  0.00    -0.250 OA
ATOM     25  C   UNL     1      31.053  -2.629 -23.321  0.00  0.00    +0.318 C 
BRANCH  25  26
ATOM     26  O   UNL     1      32.192  -1.891 -23.240  0.00  0.00    -0.480 OA
ATOM     27  H   UNL     1      32.181  -0.986 -23.480  0.00  0.00    +0.295 HD
ENDBRANCH  25  26
ENDBRANCH  23  25
ENDBRANCH   2  23
TORSDOF 6
ENDMDL
MODEL 8
REMARK VINA RESULT:      -8.9      1.257      1.469
REMARK  Name = 5472495
REMARK  6 active torsions:
REMARK  status: ('A' for Active; 'I' for Inactive)
REMARK    1  A    between atoms: C_2  and  C_23
REMARK    2  A    between atoms: C_3  and  C_7
REMARK    3  A    between atoms: C_7  and  C_13
REMARK    4  A    between atoms: C_16  and  S_19
REMARK    5  A    between atoms: C_23  and  C_25
REMARK    6  A    between atoms: C_25  and  O_26
REMARK                            x       y       z     vdW  Elec       q    Type
REMARK                         _______ _______ _______ _____ _____    ______ ____
ROOT
ATOM      1  F   UNL     1      38.333 -22.674 -14.608  0.00  0.00    -0.204 F 
ATOM      2  C   UNL     1      33.470 -23.080 -15.438  0.00  0.00    -0.030 C 
ATOM      3  C   UNL     1      33.739 -22.755 -17.694  0.00  0.00    -0.036 C 
ATOM      4  C   UNL     1      32.794 -22.999 -16.605  0.00  0.00    +0.037 C 
ATOM      5  C   UNL     1      34.902 -22.890 -15.732  0.00  0.00    -0.005 C 
ATOM      6  C   UNL     1      35.080 -22.689 -17.111  0.00  0.00    -0.008 C 
ATOM      7  C   UNL     1      35.992 -22.888 -14.874  0.00  0.00    +0.029 C 
ATOM      8  C   UNL     1      36.337 -22.484 -17.656  0.00  0.00    +0.002 C 
ATOM      9  C   UNL     1      31.326 -23.124 -16.833  0.00  0.00    +0.009 C 
ATOM     10  C   UNL     1      37.264 -22.681 -15.415  0.00  0.00    +0.140 C 
ATOM     11  C   UNL     1      37.435 -22.481 -16.794  0.00  0.00    +0.030 C 
ENDROOT
BRANCH   3  12
ATOM     12  C   UNL     1      33.458 -22.612 -18.995  0.00  0.00    +0.049 C 
BRANCH  12  13
ATOM     13  C   UNL     1      34.042 -21.604 -19.895  0.00  0.00    -0.018 C 
ATOM     14  C   UNL     1      35.420 -21.477 -19.971  0.00  0.00    -0.003 C 
ATOM     15  C   UNL     1      33.203 -20.799 -20.651  0.00  0.00    -0.003 C 
ATOM     16  C   UNL     1      35.142 -19.708 -21.592  0.00  0.00    +0.106 C 
ATOM     17  C   UNL     1      35.974 -20.523 -20.826  0.00  0.00    +0.018 C 
ATOM     18  C   UNL     1      33.757 -19.846 -21.505  0.00  0.00    +0.018 C 
BRANCH  16  19
ATOM     19  S   UNL     1      35.835 -18.514 -22.660  0.00  0.00    +0.010 S 
ATOM     20  O   UNL     1      35.521 -18.900 -24.029  0.00  0.00    -0.169 OA
ATOM     21  O   UNL     1      35.474 -17.186 -22.184  0.00  0.00    -0.169 OA
ATOM     22  C   UNL     1      37.591 -18.685 -22.434  0.00  0.00    +0.182 C 
ENDBRANCH  16  19
ENDBRANCH  12  13
ENDBRANCH   3  12
BRANCH   2  23
ATOM     23  C   UNL     1      32.977 -23.314 -14.056  0.00  0.00    +0.132 C 
BRANCH  23  25
ATOM     24  O   UNL     1      32.530 -25.706 -14.278  0.00  0.00    -0.250 OA
ATOM     25  C   UNL     1      33.073 -24.777 -13.699  0.00  0.00    +0.318 C 
BRANCH  25  26
ATOM     26  O   UNL     1      33.868 -24.934 -12.608  0.00  0.00    -0.480 OA
ATOM     27  H   UNL     1      33.509 -24.834 -11.749  0.00  0.00    +0.295 HD
ENDBRANCH  25  26
ENDBRANCH  23  25
ENDBRANCH   2  23
TORSDOF 6
ENDMDL
MODEL 9
REMARK VINA RESULT:      -8.9      2.357      3.637
REMARK  Name = 5472495
REMARK  6 active torsions:
REMARK  status: ('A' for Active; 'I' for Inactive)
REMARK    1  A    between atoms: C_2  and  C_23
REMARK    2  A    between atoms: C_3  and  C_7
REMARK    3  A    between atoms: C_7  and  C_13
REMARK    4  A    between atoms: C_16  and  S_19
REMARK    5  A    between atoms: C_23  and  C_25
REMARK    6  A    between atoms: C_25  and  O_26
REMARK                            x       y       z     vdW  Elec       q    Type
REMARK                         _______ _______ _______ _____ _____    ______ ____
ROOT
ATOM      1  F   UNL     1      31.846 -25.241 -13.017  0.00  0.00    -0.204 F 
ATOM      2  C   UNL     1      35.473 -23.176 -15.679  0.00  0.00    -0.030 C 
ATOM      3  C   UNL     1      34.164 -23.093 -17.562  0.00  0.00    -0.036 C 
ATOM      4  C   UNL     1      35.471 -22.798 -16.976  0.00  0.00    +0.037 C 
ATOM      5  C   UNL     1      34.146 -23.737 -15.370  0.00  0.00    -0.005 C 
ATOM      6  C   UNL     1      33.334 -23.694 -16.516  0.00  0.00    -0.008 C 
ATOM      7  C   UNL     1      33.657 -24.257 -14.181  0.00  0.00    +0.029 C 
ATOM      8  C   UNL     1      32.031 -24.163 -16.498  0.00  0.00    +0.002 C 
ATOM      9  C   UNL     1      36.577 -22.177 -17.760  0.00  0.00    +0.009 C 
ATOM     10  C   UNL     1      32.343 -24.734 -14.153  0.00  0.00    +0.140 C 
ATOM     11  C   UNL     1      31.537 -24.687 -15.302  0.00  0.00    +0.030 C 
ENDROOT
BRANCH   3  12
ATOM     12  C   UNL     1      33.769 -22.869 -18.822  0.00  0.00    +0.049 C 
BRANCH  12  13
ATOM     13  C   UNL     1      34.282 -21.811 -19.708  0.00  0.00    -0.018 C 
ATOM     14  C   UNL     1      35.617 -21.825 -20.081  0.00  0.00    -0.003 C 
ATOM     15  C   UNL     1      33.421 -20.821 -20.154  0.00  0.00    -0.003 C 
ATOM     16  C   UNL     1      35.247 -19.822 -21.379  0.00  0.00    +0.106 C 
ATOM     17  C   UNL     1      36.103 -20.824 -20.922  0.00  0.00    +0.018 C 
ATOM     18  C   UNL     1      33.907 -19.820 -20.996  0.00  0.00    +0.018 C 
BRANCH  16  19
ATOM     19  S   UNL     1      35.857 -18.569 -22.432  0.00  0.00    +0.010 S 
ATOM     20  O   UNL     1      35.641 -18.995 -23.808  0.00  0.00    -0.169 OA
ATOM     21  O   UNL     1      35.339 -17.283 -21.985  0.00  0.00    -0.169 OA
ATOM     22  C   UNL     1      37.610 -18.554 -22.133  0.00  0.00    +0.182 C 
ENDBRANCH  16  19
ENDBRANCH  12  13
ENDBRANCH   3  12
BRANCH   2  23
ATOM     23  C   UNL     1      36.547 -23.091 -14.656  0.00  0.00    +0.132 C 
BRANCH  23  25
ATOM     24  O   UNL     1      38.738 -24.154 -14.449  0.00  0.00    -0.250 OA
ATOM     25  C   UNL     1      37.608 -24.133 -14.913  0.00  0.00    +0.318 C 
BRANCH  25  26
ATOM     26  O   UNL     1      37.127 -25.080 -15.763  0.00  0.00    -0.480 OA
ATOM     27  H   UNL     1      36.609 -24.826 -16.501  0.00  0.00    +0.295 HD
ENDBRANCH  25  26
ENDBRANCH  23  25
ENDBRANCH   2  23
TORSDOF 6
ENDMDL
