MODEL 1
REMARK VINA RESULT:     -11.3      0.000      0.000
REMARK  Name = 2765355
REMARK  2 active torsions:
REMARK  status: ('A' for Active; 'I' for Inactive)
REMARK    1  A    between atoms: C_4  and  C_20
REMARK    2  A    between atoms: C_6  and  C_13
REMARK                            x       y       z     vdW  Elec       q    Type
REMARK                         _______ _______ _______ _____ _____    ______ ____
ROOT
ATOM      1  O   UNL     1      31.914 -22.715 -17.995  0.00  0.00    -0.353 OA
ATOM      2  N   UNL     1      31.447 -23.412 -16.889  0.00  0.00    -0.077 NA
ATOM      3  C   UNL     1      33.695 -23.170 -16.778  0.00  0.00    +0.058 A 
ATOM      4  C   UNL     1      33.263 -22.572 -17.923  0.00  0.00    +0.177 A 
ATOM      5  C   UNL     1      32.522 -23.698 -16.132  0.00  0.00    +0.123 A 
ATOM      6  C   UNL     1      35.085 -23.933 -15.111  0.00  0.00    +0.031 C 
ATOM      7  C   UNL     1      35.008 -23.243 -16.337  0.00  0.00    +0.007 C 
ATOM      8  C   UNL     1      32.625 -24.385 -14.910  0.00  0.00    +0.023 C 
ATOM      9  C   UNL     1      33.951 -24.479 -14.429  0.00  0.00    +0.004 C 
ENDROOT
BRANCH   6  13
ATOM     10  N   UNL     1      37.337 -24.597 -15.323  0.00  0.00    -0.338 NA
ATOM     11  N   UNL     1      38.888 -24.469 -13.483  0.00  0.00    -0.170 NA
ATOM     12  N   UNL     1      39.570 -25.270 -15.581  0.00  0.00    -0.293 N 
ATOM     13  C   UNL     1      36.391 -24.103 -14.503  0.00  0.00    +0.146 C 
ATOM     14  C   UNL     1      36.604 -23.771 -13.184  0.00  0.00    +0.055 C 
ATOM     15  C   UNL     1      37.888 -23.978 -12.722  0.00  0.00    +0.114 C 
ATOM     16  C   UNL     1      38.547 -24.753 -14.755  0.00  0.00    +0.141 C 
ATOM     17  H   UNL     1      39.378 -25.495 -16.521  0.00  0.00    +0.155 HD
ATOM     18  H   UNL     1      40.475 -25.404 -15.218  0.00  0.00    +0.155 HD
ENDBRANCH   6  13
BRANCH   4  20
ATOM     19 CL   UNL     1      35.764 -19.632 -22.455  0.00  0.00    -0.082 Cl
ATOM     20  C   UNL     1      33.866 -21.864 -19.017  0.00  0.00    +0.037 C 
ATOM     21  C   UNL     1      35.237 -21.983 -19.262  0.00  0.00    +0.004 C 
ATOM     22  C   UNL     1      33.087 -21.049 -19.843  0.00  0.00    +0.004 C 
ATOM     23  C   UNL     1      35.824 -21.295 -20.325  0.00  0.00    +0.011 C 
ATOM     24  C   UNL     1      33.673 -20.360 -20.905  0.00  0.00    +0.011 C 
ATOM     25  C   UNL     1      35.041 -20.482 -21.146  0.00  0.00    +0.058 C 
ENDBRANCH   4  20
TORSDOF 2
ENDMDL
MODEL 2
REMARK VINA RESULT:     -10.9      0.975      1.838
REMARK  Name = 2765355
REMARK  2 active torsions:
REMARK  status: ('A' for Active; 'I' for Inactive)
REMARK    1  A    between atoms: C_4  and  C_20
REMARK    2  A    between atoms: C_6  and  C_13
REMARK                            x       y       z     vdW  Elec       q    Type
REMARK                         _______ _______ _______ _____ _____    ______ ____
ROOT
ATOM      1  O   UNL     1      32.312 -22.572 -18.464  0.00  0.00    -0.353 OA
ATOM      2  N   UNL     1      31.738 -23.309 -17.437  0.00  0.00    -0.077 NA
ATOM      3  C   UNL     1      33.956 -23.043 -17.073  0.00  0.00    +0.058 A 
ATOM      4  C   UNL     1      33.643 -22.415 -18.241  0.00  0.00    +0.177 A 
ATOM      5  C   UNL     1      32.727 -23.605 -16.576  0.00  0.00    +0.123 A 
ATOM      6  C   UNL     1      35.166 -23.842 -15.286  0.00  0.00    +0.031 C 
ATOM      7  C   UNL     1      35.213 -23.114 -16.492  0.00  0.00    +0.007 C 
ATOM      8  C   UNL     1      32.706 -24.328 -15.371  0.00  0.00    +0.023 C 
ATOM      9  C   UNL     1      33.972 -24.421 -14.750  0.00  0.00    +0.004 C 
ENDROOT
BRANCH   6  13
ATOM     10  N   UNL     1      36.370 -23.547 -13.282  0.00  0.00    -0.338 NA
ATOM     11  N   UNL     1      38.654 -24.277 -13.041  0.00  0.00    -0.170 NA
ATOM     12  N   UNL     1      37.530 -23.231 -11.266  0.00  0.00    -0.293 N 
ATOM     13  C   UNL     1      36.400 -24.014 -14.544  0.00  0.00    +0.146 C 
ATOM     14  C   UNL     1      37.494 -24.616 -15.122  0.00  0.00    +0.055 C 
ATOM     15  C   UNL     1      38.608 -24.722 -14.314  0.00  0.00    +0.114 C 
ATOM     16  C   UNL     1      37.518 -23.708 -12.596  0.00  0.00    +0.141 C 
ATOM     17  H   UNL     1      36.726 -22.806 -10.888  0.00  0.00    +0.155 HD
ATOM     18  H   UNL     1      38.342 -23.323 -10.718  0.00  0.00    +0.155 HD
ENDBRANCH   6  13
BRANCH   4  20
ATOM     19 CL   UNL     1      36.584 -19.316 -22.386  0.00  0.00    -0.082 Cl
ATOM     20  C   UNL     1      34.352 -21.667 -19.239  0.00  0.00    +0.037 C 
ATOM     21  C   UNL     1      33.651 -20.887 -20.164  0.00  0.00    +0.004 C 
ATOM     22  C   UNL     1      35.748 -21.715 -19.296  0.00  0.00    +0.004 C 
ATOM     23  C   UNL     1      34.340 -20.159 -21.135  0.00  0.00    +0.011 C 
ATOM     24  C   UNL     1      36.437 -20.988 -20.267  0.00  0.00    +0.011 C 
ATOM     25  C   UNL     1      35.734 -20.211 -21.187  0.00  0.00    +0.058 C 
ENDBRANCH   4  20
TORSDOF 2
ENDMDL
MODEL 3
REMARK VINA RESULT:     -10.7     11.518     14.098
REMARK  Name = 2765355
REMARK  2 active torsions:
REMARK  status: ('A' for Active; 'I' for Inactive)
REMARK    1  A    between atoms: C_4  and  C_20
REMARK    2  A    between atoms: C_6  and  C_13
REMARK                            x       y       z     vdW  Elec       q    Type
REMARK                         _______ _______ _______ _____ _____    ______ ____
ROOT
ATOM      1  O   UNL     1      31.619  -9.205 -20.413  0.00  0.00    -0.353 OA
ATOM      2  N   UNL     1      31.461 -10.324 -19.606  0.00  0.00    -0.077 NA
ATOM      3  C   UNL     1      32.401 -10.901 -21.583  0.00  0.00    +0.058 A 
ATOM      4  C   UNL     1      32.183  -9.557 -21.597  0.00  0.00    +0.177 A 
ATOM      5  C   UNL     1      31.935 -11.372 -20.304  0.00  0.00    +0.123 A 
ATOM      6  C   UNL     1      33.038 -13.011 -22.243  0.00  0.00    +0.031 C 
ATOM      7  C   UNL     1      32.964 -11.652 -22.605  0.00  0.00    +0.007 C 
ATOM      8  C   UNL     1      32.019 -12.734 -19.968  0.00  0.00    +0.023 C 
ATOM      9  C   UNL     1      32.588 -13.530 -20.987  0.00  0.00    +0.004 C 
ENDROOT
BRANCH   6  13
ATOM     10  N   UNL     1      33.128 -13.825 -24.454  0.00  0.00    -0.338 NA
ATOM     11  N   UNL     1      34.585 -15.634 -25.095  0.00  0.00    -0.170 NA
ATOM     12  N   UNL     1      33.182 -14.602 -26.668  0.00  0.00    -0.293 N 
ATOM     13  C   UNL     1      33.604 -13.943 -23.200  0.00  0.00    +0.146 C 
ATOM     14  C   UNL     1      34.553 -14.862 -22.815  0.00  0.00    +0.055 C 
ATOM     15  C   UNL     1      35.014 -15.693 -23.817  0.00  0.00    +0.114 C 
ATOM     16  C   UNL     1      33.655 -14.691 -25.339  0.00  0.00    +0.141 C 
ATOM     17  H   UNL     1      32.502 -13.929 -26.904  0.00  0.00    +0.155 HD
ATOM     18  H   UNL     1      33.533 -15.210 -27.356  0.00  0.00    +0.155 HD
ENDBRANCH   6  13
BRANCH   4  20
ATOM     19 CL   UNL     1      33.075  -5.094 -25.434  0.00  0.00    -0.082 Cl
ATOM     20  C   UNL     1      32.397  -8.480 -22.522  0.00  0.00    +0.037 C 
ATOM     21  C   UNL     1      31.414  -8.150 -23.459  0.00  0.00    +0.004 C 
ATOM     22  C   UNL     1      33.592  -7.755 -22.493  0.00  0.00    +0.004 C 
ATOM     23  C   UNL     1      31.622  -7.104 -24.358  0.00  0.00    +0.011 C 
ATOM     24  C   UNL     1      33.801  -6.709 -23.392  0.00  0.00    +0.011 C 
ATOM     25  C   UNL     1      32.817  -6.384 -24.325  0.00  0.00    +0.058 C 
ENDBRANCH   4  20
TORSDOF 2
ENDMDL
MODEL 4
REMARK VINA RESULT:     -10.3      8.099     11.560
REMARK  Name = 2765355
REMARK  2 active torsions:
REMARK  status: ('A' for Active; 'I' for Inactive)
REMARK    1  A    between atoms: C_4  and  C_20
REMARK    2  A    between atoms: C_6  and  C_13
REMARK                            x       y       z     vdW  Elec       q    Type
REMARK                         _______ _______ _______ _____ _____    ______ ____
ROOT
ATOM      1  O   UNL     1      35.467 -17.605 -25.198  0.00  0.00    -0.353 OA
ATOM      2  N   UNL     1      35.055 -16.626 -26.092  0.00  0.00    -0.077 NA
ATOM      3  C   UNL     1      34.572 -16.010 -23.968  0.00  0.00    +0.058 A 
ATOM      4  C   UNL     1      35.175 -17.231 -23.926  0.00  0.00    +0.177 A 
ATOM      5  C   UNL     1      34.506 -15.641 -25.359  0.00  0.00    +0.123 A 
ATOM      6  C   UNL     1      33.550 -14.061 -23.296  0.00  0.00    +0.031 C 
ATOM      7  C   UNL     1      34.120 -15.280 -22.879  0.00  0.00    +0.007 C 
ATOM      8  C   UNL     1      33.931 -14.420 -25.750  0.00  0.00    +0.023 C 
ATOM      9  C   UNL     1      33.459 -13.649 -24.664  0.00  0.00    +0.004 C 
ENDROOT
BRANCH   6  13
ATOM     10  N   UNL     1      32.682 -11.946 -22.723  0.00  0.00    -0.338 NA
ATOM     11  N   UNL     1      32.023 -11.399 -20.471  0.00  0.00    -0.170 NA
ATOM     12  N   UNL     1      31.823  -9.825 -22.200  0.00  0.00    -0.293 N 
ATOM     13  C   UNL     1      33.024 -13.170 -22.280  0.00  0.00    +0.146 C 
ATOM     14  C   UNL     1      32.900 -13.584 -20.973  0.00  0.00    +0.055 C 
ATOM     15  C   UNL     1      32.387 -12.644 -20.101  0.00  0.00    +0.114 C 
ATOM     16  C   UNL     1      32.194 -11.121 -21.777  0.00  0.00    +0.141 C 
ATOM     17  H   UNL     1      31.927  -9.567 -23.145  0.00  0.00    +0.155 HD
ATOM     18  H   UNL     1      31.460  -9.181 -21.551  0.00  0.00    +0.155 HD
ENDBRANCH   6  13
BRANCH   4  20
ATOM     19 CL   UNL     1      36.746 -21.116 -19.698  0.00  0.00    -0.082 Cl
ATOM     20  C   UNL     1      35.554 -18.166 -22.906  0.00  0.00    +0.037 C 
ATOM     21  C   UNL     1      36.825 -18.102 -22.327  0.00  0.00    +0.004 C 
ATOM     22  C   UNL     1      34.654 -19.151 -22.484  0.00  0.00    +0.004 C 
ATOM     23  C   UNL     1      37.193 -19.012 -21.336  0.00  0.00    +0.011 C 
ATOM     24  C   UNL     1      35.022 -20.061 -21.493  0.00  0.00    +0.011 C 
ATOM     25  C   UNL     1      36.292 -19.992 -20.919  0.00  0.00    +0.058 C 
ENDBRANCH   4  20
TORSDOF 2
ENDMDL
MODEL 5
REMARK VINA RESULT:     -10.2      3.964      6.739
REMARK  Name = 2765355
REMARK  2 active torsions:
REMARK  status: ('A' for Active; 'I' for Inactive)
REMARK    1  A    between atoms: C_4  and  C_20
REMARK    2  A    between atoms: C_6  and  C_13
REMARK                            x       y       z     vdW  Elec       q    Type
REMARK                         _______ _______ _______ _____ _____    ______ ____
ROOT
ATOM      1  O   UNL     1      35.546 -24.299 -14.370  0.00  0.00    -0.353 OA
ATOM      2  N   UNL     1      36.865 -23.930 -14.602  0.00  0.00    -0.077 NA
ATOM      3  C   UNL     1      35.525 -23.158 -16.256  0.00  0.00    +0.058 A 
ATOM      4  C   UNL     1      34.747 -23.833 -15.365  0.00  0.00    +0.177 A 
ATOM      5  C   UNL     1      36.872 -23.230 -15.751  0.00  0.00    +0.123 A 
ATOM      6  C   UNL     1      36.169 -21.930 -18.092  0.00  0.00    +0.031 C 
ATOM      7  C   UNL     1      35.090 -22.530 -17.413  0.00  0.00    +0.007 C 
ATOM      8  C   UNL     1      37.932 -22.625 -16.447  0.00  0.00    +0.023 C 
ATOM      9  C   UNL     1      37.525 -21.974 -17.634  0.00  0.00    +0.004 C 
ENDROOT
BRANCH   6  13
ATOM     10  N   UNL     1      36.896 -20.448 -19.776  0.00  0.00    -0.338 NA
ATOM     11  N   UNL     1      35.498 -19.848 -21.644  0.00  0.00    -0.170 NA
ATOM     12  N   UNL     1      37.663 -18.969 -21.428  0.00  0.00    -0.293 N 
ATOM     13  C   UNL     1      35.892 -21.225 -19.329  0.00  0.00    +0.146 C 
ATOM     14  C   UNL     1      34.680 -21.368 -19.967  0.00  0.00    +0.055 C 
ATOM     15  C   UNL     1      34.537 -20.646 -21.135  0.00  0.00    +0.114 C 
ATOM     16  C   UNL     1      36.635 -19.796 -20.924  0.00  0.00    +0.141 C 
ATOM     17  H   UNL     1      38.517 -18.893 -20.942  0.00  0.00    +0.155 HD
ATOM     18  H   UNL     1      37.526 -18.469 -22.264  0.00  0.00    +0.155 HD
ENDBRANCH   6  13
BRANCH   4  20
ATOM     19 CL   UNL     1      28.968 -25.161 -14.838  0.00  0.00    -0.082 Cl
ATOM     20  C   UNL     1      33.354 -24.152 -15.237  0.00  0.00    +0.037 C 
ATOM     21  C   UNL     1      32.901 -24.908 -14.151  0.00  0.00    +0.004 C 
ATOM     22  C   UNL     1      32.439 -23.711 -16.198  0.00  0.00    +0.004 C 
ATOM     23  C   UNL     1      31.547 -25.219 -14.027  0.00  0.00    +0.011 C 
ATOM     24  C   UNL     1      31.085 -24.022 -16.074  0.00  0.00    +0.011 C 
ATOM     25  C   UNL     1      30.639 -24.777 -14.990  0.00  0.00    +0.058 C 
ENDBRANCH   4  20
TORSDOF 2
ENDMDL
MODEL 6
REMARK VINA RESULT:     -10.0      7.059     10.162
REMARK  Name = 2765355
REMARK  2 active torsions:
REMARK  status: ('A' for Active; 'I' for Inactive)
REMARK    1  A    between atoms: C_4  and  C_20
REMARK    2  A    between atoms: C_6  and  C_13
REMARK                            x       y       z     vdW  Elec       q    Type
REMARK                         _______ _______ _______ _____ _____    ______ ____
ROOT
ATOM      1  O   UNL     1      33.329 -13.468 -24.560  0.00  0.00    -0.353 OA
ATOM      2  N   UNL     1      33.886 -14.250 -25.562  0.00  0.00    -0.077 NA
ATOM      3  C   UNL     1      34.202 -15.216 -23.539  0.00  0.00    +0.058 A 
ATOM      4  C   UNL     1      33.521 -14.052 -23.348  0.00  0.00    +0.177 A 
ATOM      5  C   UNL     1      34.424 -15.325 -24.958  0.00  0.00    +0.123 A 
ATOM      6  C   UNL     1      35.276 -17.206 -23.114  0.00  0.00    +0.031 C 
ATOM      7  C   UNL     1      34.593 -16.109 -22.552  0.00  0.00    +0.007 C 
ATOM      8  C   UNL     1      35.109 -16.429 -25.494  0.00  0.00    +0.023 C 
ATOM      9  C   UNL     1      35.524 -17.361 -24.515  0.00  0.00    +0.004 C 
ENDROOT
BRANCH   6  13
ATOM     10  N   UNL     1      34.806 -19.063 -21.741  0.00  0.00    -0.338 NA
ATOM     11  N   UNL     1      36.532 -20.228 -20.527  0.00  0.00    -0.170 NA
ATOM     12  N   UNL     1      34.291 -20.908 -20.385  0.00  0.00    -0.293 N 
ATOM     13  C   UNL     1      35.758 -18.240 -22.219  0.00  0.00    +0.146 C 
ATOM     14  C   UNL     1      37.096 -18.339 -21.909  0.00  0.00    +0.055 C 
ATOM     15  C   UNL     1      37.429 -19.364 -21.047  0.00  0.00    +0.114 C 
ATOM     16  C   UNL     1      35.258 -20.022 -20.910  0.00  0.00    +0.141 C 
ATOM     17  H   UNL     1      33.343 -20.805 -20.632  0.00  0.00    +0.155 HD
ATOM     18  H   UNL     1      34.565 -21.628 -19.773  0.00  0.00    +0.155 HD
ENDBRANCH   6  13
BRANCH   4  20
ATOM     19 CL   UNL     1      31.304 -11.071 -18.696  0.00  0.00    -0.082 Cl
ATOM     20  C   UNL     1      32.988 -13.333 -22.226  0.00  0.00    +0.037 C 
ATOM     21  C   UNL     1      32.927 -13.938 -20.967  0.00  0.00    +0.004 C 
ATOM     22  C   UNL     1      32.523 -12.024 -22.385  0.00  0.00    +0.004 C 
ATOM     23  C   UNL     1      32.408 -13.239 -19.876  0.00  0.00    +0.011 C 
ATOM     24  C   UNL     1      32.004 -11.326 -21.295  0.00  0.00    +0.011 C 
ATOM     25  C   UNL     1      31.946 -11.933 -20.041  0.00  0.00    +0.058 C 
ENDBRANCH   4  20
TORSDOF 2
ENDMDL
MODEL 7
REMARK VINA RESULT:      -9.8      3.620      6.882
REMARK  Name = 2765355
REMARK  2 active torsions:
REMARK  status: ('A' for Active; 'I' for Inactive)
REMARK    1  A    between atoms: C_4  and  C_20
REMARK    2  A    between atoms: C_6  and  C_13
REMARK                            x       y       z     vdW  Elec       q    Type
REMARK                         _______ _______ _______ _____ _____    ______ ____
ROOT
ATOM      1  O   UNL     1      35.505 -24.359 -14.295  0.00  0.00    -0.353 OA
ATOM      2  N   UNL     1      36.810 -23.968 -14.561  0.00  0.00    -0.077 NA
ATOM      3  C   UNL     1      35.420 -23.239 -16.192  0.00  0.00    +0.058 A 
ATOM      4  C   UNL     1      34.675 -23.919 -15.277  0.00  0.00    +0.177 A 
ATOM      5  C   UNL     1      36.778 -23.281 -15.717  0.00  0.00    +0.123 A 
ATOM      6  C   UNL     1      35.999 -22.019 -18.055  0.00  0.00    +0.031 C 
ATOM      7  C   UNL     1      34.947 -22.632 -17.346  0.00  0.00    +0.007 C 
ATOM      8  C   UNL     1      37.811 -22.663 -16.443  0.00  0.00    +0.023 C 
ATOM      9  C   UNL     1      37.365 -22.032 -17.627  0.00  0.00    +0.004 C 
ENDROOT
BRANCH   6  13
ATOM     10  N   UNL     1      34.371 -21.313 -19.607  0.00  0.00    -0.338 NA
ATOM     11  N   UNL     1      34.948 -20.077 -21.594  0.00  0.00    -0.170 NA
ATOM     12  N   UNL     1      32.716 -20.631 -21.125  0.00  0.00    -0.293 N 
ATOM     13  C   UNL     1      35.680 -21.334 -19.293  0.00  0.00    +0.146 C 
ATOM     14  C   UNL     1      36.671 -20.761 -20.058  0.00  0.00    +0.055 C 
ATOM     15  C   UNL     1      36.241 -20.139 -21.213  0.00  0.00    +0.114 C 
ATOM     16  C   UNL     1      34.080 -20.676 -20.757  0.00  0.00    +0.141 C 
ATOM     17  H   UNL     1      32.037 -21.053 -20.550  0.00  0.00    +0.155 HD
ATOM     18  H   UNL     1      32.446 -20.179 -21.956  0.00  0.00    +0.155 HD
ENDBRANCH   6  13
BRANCH   4  20
ATOM     19 CL   UNL     1      28.935 -25.350 -14.605  0.00  0.00    -0.082 Cl
ATOM     20  C   UNL     1      33.291 -24.263 -15.114  0.00  0.00    +0.037 C 
ATOM     21  C   UNL     1      32.872 -24.987 -13.993  0.00  0.00    +0.004 C 
ATOM     22  C   UNL     1      32.352 -23.879 -16.076  0.00  0.00    +0.004 C 
ATOM     23  C   UNL     1      31.527 -25.322 -13.835  0.00  0.00    +0.011 C 
ATOM     24  C   UNL     1      31.007 -24.214 -15.918  0.00  0.00    +0.011 C 
ATOM     25  C   UNL     1      30.594 -24.936 -14.799  0.00  0.00    +0.058 C 
ENDBRANCH   4  20
TORSDOF 2
ENDMDL
MODEL 8
REMARK VINA RESULT:      -9.7      3.714      7.277
REMARK  Name = 2765355
REMARK  2 active torsions:
REMARK  status: ('A' for Active; 'I' for Inactive)
REMARK    1  A    between atoms: C_4  and  C_20
REMARK    2  A    between atoms: C_6  and  C_13
REMARK                            x       y       z     vdW  Elec       q    Type
REMARK                         _______ _______ _______ _____ _____    ______ ____
ROOT
ATOM      1  O   UNL     1      36.673 -22.773 -17.451  0.00  0.00    -0.353 OA
ATOM      2  N   UNL     1      35.988 -22.196 -18.512  0.00  0.00    -0.077 NA
ATOM      3  C   UNL     1      34.532 -23.070 -17.014  0.00  0.00    +0.058 A 
ATOM      4  C   UNL     1      35.795 -23.296 -16.556  0.00  0.00    +0.177 A 
ATOM      5  C   UNL     1      34.677 -22.367 -18.263  0.00  0.00    +0.123 A 
ATOM      6  C   UNL     1      32.236 -23.048 -17.149  0.00  0.00    +0.031 C 
ATOM      7  C   UNL     1      33.353 -23.448 -16.389  0.00  0.00    +0.007 C 
ATOM      8  C   UNL     1      33.546 -21.980 -19.003  0.00  0.00    +0.023 C 
ATOM      9  C   UNL     1      32.325 -22.349 -18.395  0.00  0.00    +0.004 C 
ENDROOT
BRANCH   6  13
ATOM     10  N   UNL     1      29.905 -22.702 -17.234  0.00  0.00    -0.338 NA
ATOM     11  N   UNL     1      28.384 -23.867 -15.773  0.00  0.00    -0.170 NA
ATOM     12  N   UNL     1      27.592 -22.325 -17.355  0.00  0.00    -0.293 N 
ATOM     13  C   UNL     1      30.915 -23.364 -16.639  0.00  0.00    +0.146 C 
ATOM     14  C   UNL     1      30.750 -24.278 -15.622  0.00  0.00    +0.055 C 
ATOM     15  C   UNL     1      29.446 -24.492 -15.225  0.00  0.00    +0.114 C 
ATOM     16  C   UNL     1      28.681 -22.998 -16.758  0.00  0.00    +0.141 C 
ATOM     17  H   UNL     1      27.751 -21.678 -18.081  0.00  0.00    +0.155 HD
ATOM     18  H   UNL     1      26.675 -22.503 -17.046  0.00  0.00    +0.155 HD
ENDBRANCH   6  13
BRANCH   4  20
ATOM     19 CL   UNL     1      38.242 -25.901 -11.795  0.00  0.00    -0.082 Cl
ATOM     20  C   UNL     1      36.386 -23.925 -15.409  0.00  0.00    +0.037 C 
ATOM     21  C   UNL     1      36.471 -25.318 -15.335  0.00  0.00    +0.004 C 
ATOM     22  C   UNL     1      36.879 -23.148 -14.356  0.00  0.00    +0.004 C 
ATOM     23  C   UNL     1      37.045 -25.929 -14.219  0.00  0.00    +0.011 C 
ATOM     24  C   UNL     1      37.453 -23.758 -13.241  0.00  0.00    +0.011 C 
ATOM     25  C   UNL     1      37.535 -25.148 -13.172  0.00  0.00    +0.058 C 
ENDBRANCH   4  20
TORSDOF 2
ENDMDL
MODEL 9
REMARK VINA RESULT:      -9.6      8.813     12.316
REMARK  Name = 2765355
REMARK  2 active torsions:
REMARK  status: ('A' for Active; 'I' for Inactive)
REMARK    1  A    between atoms: C_4  and  C_20
REMARK    2  A    between atoms: C_6  and  C_13
REMARK                            x       y       z     vdW  Elec       q    Type
REMARK                         _______ _______ _______ _____ _____    ______ ____
ROOT
ATOM      1  O   UNL     1      34.808 -16.689 -26.160  0.00  0.00    -0.353 OA
ATOM      2  N   UNL     1      34.420 -15.659 -27.007  0.00  0.00    -0.077 NA
ATOM      3  C   UNL     1      34.118 -15.060 -24.845  0.00  0.00    +0.058 A 
ATOM      4  C   UNL     1      34.625 -16.323 -24.865  0.00  0.00    +0.177 A 
ATOM      5  C   UNL     1      33.996 -14.653 -26.222  0.00  0.00    +0.123 A 
ATOM      6  C   UNL     1      33.295 -13.055 -24.073  0.00  0.00    +0.031 C 
ATOM      7  C   UNL     1      33.792 -14.324 -23.716  0.00  0.00    +0.007 C 
ATOM      8  C   UNL     1      33.496 -13.382 -26.552  0.00  0.00    +0.023 C 
ATOM      9  C   UNL     1      33.152 -12.603 -25.423  0.00  0.00    +0.004 C 
ENDROOT
BRANCH   6  13
ATOM     10  N   UNL     1      32.632 -12.745 -21.831  0.00  0.00    -0.338 NA
ATOM     11  N   UNL     1      32.156 -10.563 -20.927  0.00  0.00    -0.170 NA
ATOM     12  N   UNL     1      31.975 -12.486 -19.593  0.00  0.00    -0.293 N 
ATOM     13  C   UNL     1      32.903 -12.151 -23.008  0.00  0.00    +0.146 C 
ATOM     14  C   UNL     1      32.827 -10.793 -23.226  0.00  0.00    +0.055 C 
ATOM     15  C   UNL     1      32.443 -10.039 -22.136  0.00  0.00    +0.114 C 
ATOM     16  C   UNL     1      32.269 -11.903 -20.846  0.00  0.00    +0.141 C 
ATOM     17  H   UNL     1      32.042 -13.462 -19.477  0.00  0.00    +0.155 HD
ATOM     18  H   UNL     1      31.704 -11.918 -18.838  0.00  0.00    +0.155 HD
ENDBRANCH   6  13
BRANCH   4  20
ATOM     19 CL   UNL     1      36.141 -20.413 -20.813  0.00  0.00    -0.082 Cl
ATOM     20  C   UNL     1      34.991 -17.310 -23.889  0.00  0.00    +0.037 C 
ATOM     21  C   UNL     1      34.753 -18.665 -24.133  0.00  0.00    +0.004 C 
ATOM     22  C   UNL     1      35.587 -16.922 -22.685  0.00  0.00    +0.004 C 
ATOM     23  C   UNL     1      35.109 -19.625 -23.184  0.00  0.00    +0.011 C 
ATOM     24  C   UNL     1      35.943 -17.880 -21.736  0.00  0.00    +0.011 C 
ATOM     25  C   UNL     1      35.703 -19.231 -21.985  0.00  0.00    +0.058 C 
ENDBRANCH   4  20
TORSDOF 2
ENDMDL
