MODEL 1
REMARK VINA RESULT:     -11.4      0.000      0.000
REMARK  Name = 10125830
REMARK  4 active torsions:
REMARK  status: ('A' for Active; 'I' for Inactive)
REMARK    1  A    between atoms: C_6  and  C_19
REMARK    2  A    between atoms: C_11  and  C_14
REMARK    3  A    between atoms: C_22  and  O_25
REMARK    4  A    between atoms: C_24  and  O_27
REMARK                            x       y       z     vdW  Elec       q    Type
REMARK                         _______ _______ _______ _____ _____    ______ ____
ROOT
ATOM      1  O   UNL     1      32.969 -23.442 -17.337  0.00  0.00    -0.270 OA
ATOM      2  N   UNL     1      33.073 -22.067 -19.256  0.00  0.00    -0.280 N 
ATOM      3  C   UNL     1      35.299 -21.492 -19.222  0.00  0.00    +0.018 C 
ATOM      4  C   UNL     1      34.084 -21.343 -19.898  0.00  0.00    +0.051 C 
ATOM      5  C   UNL     1      35.018 -22.365 -18.087  0.00  0.00    +0.056 C 
ATOM      6  C   UNL     1      35.112 -19.937 -21.507  0.00  0.00    +0.001 C 
ATOM      7  C   UNL     1      33.962 -20.576 -21.039  0.00  0.00    +0.015 C 
ATOM      8  C   UNL     1      36.442 -20.863 -19.679  0.00  0.00    +0.001 C 
ATOM      9  C   UNL     1      33.563 -22.730 -18.126  0.00  0.00    +0.250 C 
ATOM     10  C   UNL     1      36.341 -20.080 -20.834  0.00  0.00    +0.000 C 
ATOM     11  C   UNL     1      35.858 -22.803 -17.148  0.00  0.00    +0.019 C 
ATOM     12  H   UNL     1      32.138 -22.105 -19.561  0.00  0.00    +0.155 HD
ENDROOT
BRANCH  11  14
ATOM     13  N   UNL     1      34.882 -23.123 -15.000  0.00  0.00    -0.312 N 
ATOM     14  C   UNL     1      35.568 -23.668 -16.029  0.00  0.00    +0.049 C 
ATOM     15  C   UNL     1      35.847 -24.965 -15.781  0.00  0.00    +0.016 C 
ATOM     16  C   UNL     1      34.705 -24.093 -14.047  0.00  0.00    +0.062 C 
ATOM     17  C   UNL     1      35.296 -25.248 -14.506  0.00  0.00    +0.017 C 
ATOM     18  H   UNL     1      34.566 -22.192 -14.944  0.00  0.00    +0.152 HD
ENDBRANCH  11  14
BRANCH   6  19
ATOM     19  C   UNL     1      35.043 -19.119 -22.699  0.00  0.00    +0.003 C 
ATOM     20  C   UNL     1      35.439 -17.783 -22.650  0.00  0.00    +0.040 C 
ATOM     21  C   UNL     1      34.582 -19.667 -23.895  0.00  0.00    +0.003 C 
ATOM     22  C   UNL     1      35.373 -16.993 -23.798  0.00  0.00    +0.172 C 
ATOM     23  C   UNL     1      34.517 -18.878 -25.044  0.00  0.00    +0.040 C 
ATOM     24  C   UNL     1      34.913 -17.542 -24.995  0.00  0.00    +0.168 C 
BRANCH  22  25
ATOM     25  O   UNL     1      35.762 -15.689 -23.738  0.00  0.00    -0.468 OA
ATOM     26  C   UNL     1      34.801 -14.747 -23.269  0.00  0.00    +0.253 C 
ENDBRANCH  22  25
BRANCH  24  27
ATOM     27  O   UNL     1      34.844 -16.781 -26.124  0.00  0.00    -0.503 OA
ATOM     28  H   UNL     1      35.052 -15.869 -26.087  0.00  0.00    +0.292 HD
ENDBRANCH  24  27
ENDBRANCH   6  19
TORSDOF 4
ENDMDL
MODEL 2
REMARK VINA RESULT:     -10.6      2.647      9.176
REMARK  Name = 10125830
REMARK  4 active torsions:
REMARK  status: ('A' for Active; 'I' for Inactive)
REMARK    1  A    between atoms: C_6  and  C_19
REMARK    2  A    between atoms: C_11  and  C_14
REMARK    3  A    between atoms: C_22  and  O_25
REMARK    4  A    between atoms: C_24  and  O_27
REMARK                            x       y       z     vdW  Elec       q    Type
REMARK                         _______ _______ _______ _____ _____    ______ ____
ROOT
ATOM      1  O   UNL     1      37.338 -18.746 -22.132  0.00  0.00    -0.270 OA
ATOM      2  N   UNL     1      37.375 -20.098 -20.195  0.00  0.00    -0.280 N 
ATOM      3  C   UNL     1      35.223 -20.905 -20.222  0.00  0.00    +0.018 C 
ATOM      4  C   UNL     1      36.444 -20.914 -19.543  0.00  0.00    +0.051 C 
ATOM      5  C   UNL     1      35.413 -20.024 -21.370  0.00  0.00    +0.056 C 
ATOM      6  C   UNL     1      35.567 -22.399 -17.915  0.00  0.00    +0.001 C 
ATOM      7  C   UNL     1      36.645 -21.649 -18.392  0.00  0.00    +0.015 C 
ATOM      8  C   UNL     1      34.151 -21.644 -19.757  0.00  0.00    +0.001 C 
ATOM      9  C   UNL     1      36.822 -19.508 -21.336  0.00  0.00    +0.250 C 
ATOM     10  C   UNL     1      34.332 -22.396 -18.591  0.00  0.00    +0.000 C 
ATOM     11  C   UNL     1      34.535 -19.696 -22.320  0.00  0.00    +0.019 C 
ATOM     12  H   UNL     1      38.301 -19.958 -19.890  0.00  0.00    +0.155 HD
ENDROOT
BRANCH  11  14
ATOM     13  N   UNL     1      35.056 -17.538 -23.181  0.00  0.00    -0.312 N 
ATOM     14  C   UNL     1      34.736 -18.823 -23.452  0.00  0.00    +0.049 C 
ATOM     15  C   UNL     1      34.670 -19.025 -24.784  0.00  0.00    +0.016 C 
ATOM     16  C   UNL     1      35.205 -16.877 -24.372  0.00  0.00    +0.062 C 
ATOM     17  C   UNL     1      34.970 -17.778 -25.386  0.00  0.00    +0.017 C 
ATOM     18  H   UNL     1      35.162 -17.145 -22.284  0.00  0.00    +0.152 HD
ENDBRANCH  11  14
BRANCH   6  19
ATOM     19  C   UNL     1      35.719 -23.188 -16.712  0.00  0.00    +0.003 C 
ATOM     20  C   UNL     1      36.972 -23.307 -16.111  0.00  0.00    +0.040 C 
ATOM     21  C   UNL     1      34.614 -23.829 -16.154  0.00  0.00    +0.003 C 
ATOM     22  C   UNL     1      37.120 -24.067 -14.951  0.00  0.00    +0.172 C 
ATOM     23  C   UNL     1      34.761 -24.589 -14.994  0.00  0.00    +0.040 C 
ATOM     24  C   UNL     1      36.013 -24.708 -14.392  0.00  0.00    +0.168 C 
BRANCH  22  25
ATOM     25  O   UNL     1      38.348 -24.176 -14.372  0.00  0.00    -0.468 OA
ATOM     26  C   UNL     1      39.252 -25.119 -14.944  0.00  0.00    +0.253 C 
ENDBRANCH  22  25
BRANCH  24  27
ATOM     27  O   UNL     1      36.144 -25.453 -13.259  0.00  0.00    -0.503 OA
ATOM     28  H   UNL     1      36.690 -25.151 -12.560  0.00  0.00    +0.292 HD
ENDBRANCH  24  27
ENDBRANCH   6  19
TORSDOF 4
ENDMDL
MODEL 3
REMARK VINA RESULT:     -10.3      2.353      9.164
REMARK  Name = 10125830
REMARK  4 active torsions:
REMARK  status: ('A' for Active; 'I' for Inactive)
REMARK    1  A    between atoms: C_6  and  C_19
REMARK    2  A    between atoms: C_11  and  C_14
REMARK    3  A    between atoms: C_22  and  O_25
REMARK    4  A    between atoms: C_24  and  O_27
REMARK                            x       y       z     vdW  Elec       q    Type
REMARK                         _______ _______ _______ _____ _____    ______ ____
ROOT
ATOM      1  O   UNL     1      33.050 -20.341 -21.735  0.00  0.00    -0.270 OA
ATOM      2  N   UNL     1      33.406 -21.565 -19.746  0.00  0.00    -0.280 N 
ATOM      3  C   UNL     1      35.659 -21.218 -19.453  0.00  0.00    +0.018 C 
ATOM      4  C   UNL     1      34.515 -21.832 -18.937  0.00  0.00    +0.051 C 
ATOM      5  C   UNL     1      35.227 -20.525 -20.662  0.00  0.00    +0.056 C 
ATOM      6  C   UNL     1      35.768 -22.722 -17.129  0.00  0.00    +0.001 C 
ATOM      7  C   UNL     1      34.539 -22.587 -17.780  0.00  0.00    +0.015 C 
ATOM      8  C   UNL     1      36.879 -21.347 -18.815  0.00  0.00    +0.001 C 
ATOM      9  C   UNL     1      33.755 -20.762 -20.837  0.00  0.00    +0.250 C 
ATOM     10  C   UNL     1      36.926 -22.107 -17.642  0.00  0.00    +0.000 C 
ATOM     11  C   UNL     1      35.955 -19.791 -21.506  0.00  0.00    +0.019 C 
ATOM     12  H   UNL     1      32.496 -21.898 -19.569  0.00  0.00    +0.155 HD
ENDROOT
BRANCH  11  14
ATOM     13  N   UNL     1      35.040 -19.882 -23.702  0.00  0.00    -0.312 N 
ATOM     14  C   UNL     1      35.515 -19.110 -22.700  0.00  0.00    +0.049 C 
ATOM     15  C   UNL     1      35.472 -17.806 -23.044  0.00  0.00    +0.016 C 
ATOM     16  C   UNL     1      34.674 -19.060 -24.736  0.00  0.00    +0.062 C 
ATOM     17  C   UNL     1      34.933 -17.763 -24.354  0.00  0.00    +0.017 C 
ATOM     18  H   UNL     1      34.970 -20.865 -23.692  0.00  0.00    +0.152 HD
ENDBRANCH  11  14
BRANCH   6  19
ATOM     19  C   UNL     1      35.853 -23.501 -15.913  0.00  0.00    +0.003 C 
ATOM     20  C   UNL     1      34.722 -23.671 -15.115  0.00  0.00    +0.040 C 
ATOM     21  C   UNL     1      37.064 -24.083 -15.542  0.00  0.00    +0.003 C 
ATOM     22  C   UNL     1      34.803 -24.423 -13.943  0.00  0.00    +0.172 C 
ATOM     23  C   UNL     1      37.145 -24.836 -14.370  0.00  0.00    +0.040 C 
ATOM     24  C   UNL     1      36.015 -25.006 -13.571  0.00  0.00    +0.168 C 
BRANCH  22  25
ATOM     25  O   UNL     1      33.693 -24.582 -13.170  0.00  0.00    -0.468 OA
ATOM     26  C   UNL     1      32.483 -24.934 -13.837  0.00  0.00    +0.253 C 
ENDBRANCH  22  25
BRANCH  24  27
ATOM     27  O   UNL     1      36.107 -25.743 -12.429  0.00  0.00    -0.503 OA
ATOM     28  H   UNL     1      35.588 -26.516 -12.328  0.00  0.00    +0.292 HD
ENDBRANCH  24  27
ENDBRANCH   6  19
TORSDOF 4
ENDMDL
MODEL 4
REMARK VINA RESULT:     -10.3      2.470      9.318
REMARK  Name = 10125830
REMARK  4 active torsions:
REMARK  status: ('A' for Active; 'I' for Inactive)
REMARK    1  A    between atoms: C_6  and  C_19
REMARK    2  A    between atoms: C_11  and  C_14
REMARK    3  A    between atoms: C_22  and  O_25
REMARK    4  A    between atoms: C_24  and  O_27
REMARK                            x       y       z     vdW  Elec       q    Type
REMARK                         _______ _______ _______ _____ _____    ______ ____
ROOT
ATOM      1  O   UNL     1      37.454 -19.139 -21.420  0.00  0.00    -0.270 OA
ATOM      2  N   UNL     1      37.429 -20.435 -19.445  0.00  0.00    -0.280 N 
ATOM      3  C   UNL     1      35.312 -21.323 -19.570  0.00  0.00    +0.018 C 
ATOM      4  C   UNL     1      36.492 -21.267 -18.823  0.00  0.00    +0.051 C 
ATOM      5  C   UNL     1      35.536 -20.467 -20.729  0.00  0.00    +0.056 C 
ATOM      6  C   UNL     1      35.577 -22.739 -17.204  0.00  0.00    +0.001 C 
ATOM      7  C   UNL     1      36.653 -21.963 -17.641  0.00  0.00    +0.015 C 
ATOM      8  C   UNL     1      34.243 -22.088 -19.143  0.00  0.00    +0.001 C 
ATOM      9  C   UNL     1      36.921 -19.897 -20.632  0.00  0.00    +0.250 C 
ATOM     10  C   UNL     1      34.384 -22.801 -17.948  0.00  0.00    +0.000 C 
ATOM     11  C   UNL     1      34.703 -20.198 -21.737  0.00  0.00    +0.019 C 
ATOM     12  H   UNL     1      38.330 -20.252 -19.093  0.00  0.00    +0.155 HD
ENDROOT
BRANCH  11  14
ATOM     13  N   UNL     1      35.143 -18.036 -22.633  0.00  0.00    -0.312 N 
ATOM     14  C   UNL     1      34.936 -19.348 -22.881  0.00  0.00    +0.049 C 
ATOM     15  C   UNL     1      34.997 -19.597 -24.206  0.00  0.00    +0.016 C 
ATOM     16  C   UNL     1      35.346 -17.404 -23.833  0.00  0.00    +0.062 C 
ATOM     17  C   UNL     1      35.259 -18.351 -24.828  0.00  0.00    +0.017 C 
ATOM     18  H   UNL     1      35.146 -17.608 -21.746  0.00  0.00    +0.152 HD
ENDBRANCH  11  14
BRANCH   6  19
ATOM     19  C   UNL     1      35.688 -23.489 -15.971  0.00  0.00    +0.003 C 
ATOM     20  C   UNL     1      34.563 -23.684 -15.171  0.00  0.00    +0.040 C 
ATOM     21  C   UNL     1      36.920 -24.017 -15.585  0.00  0.00    +0.003 C 
ATOM     22  C   UNL     1      34.670 -24.408 -13.983  0.00  0.00    +0.172 C 
ATOM     23  C   UNL     1      37.027 -24.741 -14.398  0.00  0.00    +0.040 C 
ATOM     24  C   UNL     1      35.902 -24.936 -13.597  0.00  0.00    +0.168 C 
BRANCH  22  25
ATOM     25  O   UNL     1      33.565 -24.592 -13.208  0.00  0.00    -0.468 OA
ATOM     26  C   UNL     1      32.359 -24.958 -13.876  0.00  0.00    +0.253 C 
ENDBRANCH  22  25
BRANCH  24  27
ATOM     27  O   UNL     1      36.019 -25.645 -12.439  0.00  0.00    -0.503 OA
ATOM     28  H   UNL     1      36.863 -25.779 -12.056  0.00  0.00    +0.292 HD
ENDBRANCH  24  27
ENDBRANCH   6  19
TORSDOF 4
ENDMDL
MODEL 5
REMARK VINA RESULT:     -10.3      2.884      9.430
REMARK  Name = 10125830
REMARK  4 active torsions:
REMARK  status: ('A' for Active; 'I' for Inactive)
REMARK    1  A    between atoms: C_6  and  C_19
REMARK    2  A    between atoms: C_11  and  C_14
REMARK    3  A    between atoms: C_22  and  O_25
REMARK    4  A    between atoms: C_24  and  O_27
REMARK                            x       y       z     vdW  Elec       q    Type
REMARK                         _______ _______ _______ _____ _____    ______ ____
ROOT
ATOM      1  O   UNL     1      33.387 -20.852 -20.995  0.00  0.00    -0.270 OA
ATOM      2  N   UNL     1      33.827 -22.073 -19.021  0.00  0.00    -0.280 N 
ATOM      3  C   UNL     1      36.059 -21.601 -18.740  0.00  0.00    +0.018 C 
ATOM      4  C   UNL     1      34.956 -22.286 -18.223  0.00  0.00    +0.051 C 
ATOM      5  C   UNL     1      35.579 -20.922 -19.939  0.00  0.00    +0.056 C 
ATOM      6  C   UNL     1      36.270 -23.121 -16.434  0.00  0.00    +0.001 C 
ATOM      7  C   UNL     1      35.031 -23.049 -17.075  0.00  0.00    +0.015 C 
ATOM      8  C   UNL     1      37.289 -21.667 -18.112  0.00  0.00    +0.001 C 
ATOM      9  C   UNL     1      34.121 -21.241 -20.106  0.00  0.00    +0.250 C 
ATOM     10  C   UNL     1      37.388 -22.435 -16.947  0.00  0.00    +0.000 C 
ATOM     11  C   UNL     1      36.258 -20.139 -20.780  0.00  0.00    +0.019 C 
ATOM     12  H   UNL     1      32.939 -22.460 -18.842  0.00  0.00    +0.155 HD
ENDROOT
BRANCH  11  14
ATOM     13  N   UNL     1      35.726 -18.121 -21.926  0.00  0.00    -0.312 N 
ATOM     14  C   UNL     1      35.770 -19.472 -21.963  0.00  0.00    +0.049 C 
ATOM     15  C   UNL     1      35.330 -19.929 -23.154  0.00  0.00    +0.016 C 
ATOM     16  C   UNL     1      35.243 -17.679 -23.130  0.00  0.00    +0.062 C 
ATOM     17  C   UNL     1      34.987 -18.782 -23.913  0.00  0.00    +0.017 C 
ATOM     18  H   UNL     1      35.994 -17.554 -21.167  0.00  0.00    +0.152 HD
ENDBRANCH  11  14
BRANCH   6  19
ATOM     19  C   UNL     1      36.409 -23.907 -15.227  0.00  0.00    +0.003 C 
ATOM     20  C   UNL     1      37.498 -24.764 -15.076  0.00  0.00    +0.040 C 
ATOM     21  C   UNL     1      35.454 -23.806 -14.216  0.00  0.00    +0.003 C 
ATOM     22  C   UNL     1      37.632 -25.522 -13.912  0.00  0.00    +0.172 C 
ATOM     23  C   UNL     1      35.588 -24.563 -13.052  0.00  0.00    +0.040 C 
ATOM     24  C   UNL     1      36.677 -25.421 -12.900  0.00  0.00    +0.168 C 
BRANCH  22  25
ATOM     25  O   UNL     1      38.700 -26.357 -13.776  0.00  0.00    -0.468 OA
ATOM     26  C   UNL     1      39.941 -25.919 -14.325  0.00  0.00    +0.253 C 
ENDBRANCH  22  25
BRANCH  24  27
ATOM     27  O   UNL     1      36.798 -26.156 -11.759  0.00  0.00    -0.503 OA
ATOM     28  H   UNL     1      36.821 -27.091 -11.805  0.00  0.00    +0.292 HD
ENDBRANCH  24  27
ENDBRANCH   6  19
TORSDOF 4
ENDMDL
MODEL 6
REMARK VINA RESULT:     -10.3      1.553      2.016
REMARK  Name = 10125830
REMARK  4 active torsions:
REMARK  status: ('A' for Active; 'I' for Inactive)
REMARK    1  A    between atoms: C_6  and  C_19
REMARK    2  A    between atoms: C_11  and  C_14
REMARK    3  A    between atoms: C_22  and  O_25
REMARK    4  A    between atoms: C_24  and  O_27
REMARK                            x       y       z     vdW  Elec       q    Type
REMARK                         _______ _______ _______ _____ _____    ______ ____
ROOT
ATOM      1  O   UNL     1      37.835 -22.193 -16.804  0.00  0.00    -0.270 OA
ATOM      2  N   UNL     1      37.473 -20.939 -18.773  0.00  0.00    -0.280 N 
ATOM      3  C   UNL     1      35.275 -21.468 -19.192  0.00  0.00    +0.018 C 
ATOM      4  C   UNL     1      36.386 -20.742 -19.632  0.00  0.00    +0.051 C 
ATOM      5  C   UNL     1      35.706 -22.159 -17.982  0.00  0.00    +0.056 C 
ATOM      6  C   UNL     1      35.151 -19.905 -21.476  0.00  0.00    +0.001 C 
ATOM      7  C   UNL     1      36.353 -19.955 -20.765  0.00  0.00    +0.015 C 
ATOM      8  C   UNL     1      34.082 -21.424 -19.889  0.00  0.00    +0.001 C 
ATOM      9  C   UNL     1      37.141 -21.802 -17.724  0.00  0.00    +0.250 C 
ATOM     10  C   UNL     1      34.026 -20.632 -21.041  0.00  0.00    +0.000 C 
ATOM     11  C   UNL     1      35.001 -22.974 -17.194  0.00  0.00    +0.019 C 
ATOM     12  H   UNL     1      38.357 -20.523 -18.892  0.00  0.00    +0.155 HD
ENDROOT
BRANCH  11  14
ATOM     13  N   UNL     1      36.242 -24.727 -16.165  0.00  0.00    -0.312 N 
ATOM     14  C   UNL     1      35.439 -23.652 -15.997  0.00  0.00    +0.049 C 
ATOM     15  C   UNL     1      35.210 -23.431 -14.686  0.00  0.00    +0.016 C 
ATOM     16  C   UNL     1      36.548 -25.226 -14.926  0.00  0.00    +0.062 C 
ATOM     17  C   UNL     1      35.919 -24.439 -13.987  0.00  0.00    +0.017 C 
ATOM     18  H   UNL     1      36.551 -25.089 -17.027  0.00  0.00    +0.152 HD
ENDBRANCH  11  14
BRANCH   6  19
ATOM     19  C   UNL     1      35.058 -19.096 -22.672  0.00  0.00    +0.003 C 
ATOM     20  C   UNL     1      35.470 -17.764 -22.645  0.00  0.00    +0.040 C 
ATOM     21  C   UNL     1      34.559 -19.649 -23.850  0.00  0.00    +0.003 C 
ATOM     22  C   UNL     1      35.381 -16.984 -23.798  0.00  0.00    +0.172 C 
ATOM     23  C   UNL     1      34.471 -18.870 -25.004  0.00  0.00    +0.040 C 
ATOM     24  C   UNL     1      34.882 -17.538 -24.978  0.00  0.00    +0.168 C 
BRANCH  22  25
ATOM     25  O   UNL     1      35.785 -15.684 -23.761  0.00  0.00    -0.468 OA
ATOM     26  C   UNL     1      34.807 -14.711 -23.400  0.00  0.00    +0.253 C 
ENDBRANCH  22  25
BRANCH  24  27
ATOM     27  O   UNL     1      34.792 -16.786 -26.111  0.00  0.00    -0.503 OA
ATOM     28  H   UNL     1      34.435 -17.160 -26.892  0.00  0.00    +0.292 HD
ENDBRANCH  24  27
ENDBRANCH   6  19
TORSDOF 4
ENDMDL
MODEL 7
REMARK VINA RESULT:      -9.7      6.027     11.762
REMARK  Name = 10125830
REMARK  4 active torsions:
REMARK  status: ('A' for Active; 'I' for Inactive)
REMARK    1  A    between atoms: C_6  and  C_19
REMARK    2  A    between atoms: C_11  and  C_14
REMARK    3  A    between atoms: C_22  and  O_25
REMARK    4  A    between atoms: C_24  and  O_27
REMARK                            x       y       z     vdW  Elec       q    Type
REMARK                         _______ _______ _______ _____ _____    ______ ____
ROOT
ATOM      1  O   UNL     1      31.631  -9.380 -21.180  0.00  0.00    -0.270 OA
ATOM      2  N   UNL     1      32.254 -11.587 -21.750  0.00  0.00    -0.280 N 
ATOM      3  C   UNL     1      33.411 -11.192 -23.698  0.00  0.00    +0.018 C 
ATOM      4  C   UNL     1      32.973 -12.169 -22.799  0.00  0.00    +0.051 C 
ATOM      5  C   UNL     1      32.928  -9.921 -23.167  0.00  0.00    +0.056 C 
ATOM      6  C   UNL     1      33.989 -13.870 -24.104  0.00  0.00    +0.001 C 
ATOM      7  C   UNL     1      33.247 -13.511 -22.976  0.00  0.00    +0.015 C 
ATOM      8  C   UNL     1      34.144 -11.539 -24.816  0.00  0.00    +0.001 C 
ATOM      9  C   UNL     1      32.177 -10.198 -21.898  0.00  0.00    +0.250 C 
ATOM     10  C   UNL     1      34.433 -12.893 -25.015  0.00  0.00    +0.000 C 
ATOM     11  C   UNL     1      33.092  -8.695 -23.668  0.00  0.00    +0.019 C 
ATOM     12  H   UNL     1      31.854 -12.090 -21.004  0.00  0.00    +0.155 HD
ENDROOT
BRANCH  11  14
ATOM     13  N   UNL     1      31.301  -7.166 -23.321  0.00  0.00    -0.312 N 
ATOM     14  C   UNL     1      32.610  -7.444 -23.133  0.00  0.00    +0.049 C 
ATOM     15  C   UNL     1      33.214  -6.448 -22.453  0.00  0.00    +0.016 C 
ATOM     16  C   UNL     1      31.038  -5.950 -22.746  0.00  0.00    +0.062 C 
ATOM     17  C   UNL     1      32.211  -5.480 -22.199  0.00  0.00    +0.017 C 
ATOM     18  H   UNL     1      30.649  -7.737 -23.790  0.00  0.00    +0.152 HD
ENDBRANCH  11  14
BRANCH   6  19
ATOM     19  C   UNL     1      34.305 -15.262 -24.340  0.00  0.00    +0.003 C 
ATOM     20  C   UNL     1      35.095 -15.961 -23.429  0.00  0.00    +0.040 C 
ATOM     21  C   UNL     1      33.819 -15.904 -25.479  0.00  0.00    +0.003 C 
ATOM     22  C   UNL     1      35.400 -17.304 -23.656  0.00  0.00    +0.172 C 
ATOM     23  C   UNL     1      34.123 -17.246 -25.706  0.00  0.00    +0.040 C 
ATOM     24  C   UNL     1      34.913 -17.946 -24.794  0.00  0.00    +0.168 C 
BRANCH  22  25
ATOM     25  O   UNL     1      36.173 -17.977 -22.759  0.00  0.00    -0.468 OA
ATOM     26  C   UNL     1      35.497 -18.669 -21.711  0.00  0.00    +0.253 C 
ENDBRANCH  22  25
BRANCH  24  27
ATOM     27  O   UNL     1      35.203 -19.257 -25.027  0.00  0.00    -0.503 OA
ATOM     28  H   UNL     1      36.085 -19.562 -24.948  0.00  0.00    +0.292 HD
ENDBRANCH  24  27
ENDBRANCH   6  19
TORSDOF 4
ENDMDL
MODEL 8
REMARK VINA RESULT:      -9.2      6.353     12.090
REMARK  Name = 10125830
REMARK  4 active torsions:
REMARK  status: ('A' for Active; 'I' for Inactive)
REMARK    1  A    between atoms: C_6  and  C_19
REMARK    2  A    between atoms: C_11  and  C_14
REMARK    3  A    between atoms: C_22  and  O_25
REMARK    4  A    between atoms: C_24  and  O_27
REMARK                            x       y       z     vdW  Elec       q    Type
REMARK                         _______ _______ _______ _____ _____    ______ ____
ROOT
ATOM      1  O   UNL     1      34.224  -7.809 -23.968  0.00  0.00    -0.270 OA
ATOM      2  N   UNL     1      34.710 -10.090 -24.349  0.00  0.00    -0.280 N 
ATOM      3  C   UNL     1      33.047 -11.072 -23.101  0.00  0.00    +0.018 C 
ATOM      4  C   UNL     1      34.148 -11.301 -23.932  0.00  0.00    +0.051 C 
ATOM      5  C   UNL     1      32.923  -9.622 -22.998  0.00  0.00    +0.056 C 
ATOM      6  C   UNL     1      33.857 -13.646 -23.728  0.00  0.00    +0.001 C 
ATOM      7  C   UNL     1      34.574 -12.573 -24.262  0.00  0.00    +0.015 C 
ATOM      8  C   UNL     1      32.334 -12.129 -22.568  0.00  0.00    +0.001 C 
ATOM      9  C   UNL     1      34.014  -8.998 -23.818  0.00  0.00    +0.250 C 
ATOM     10  C   UNL     1      32.747 -13.426 -22.889  0.00  0.00    +0.000 C 
ATOM     11  C   UNL     1      32.021  -8.912 -22.318  0.00  0.00    +0.019 C 
ATOM     12  H   UNL     1      35.493 -10.015 -24.940  0.00  0.00    +0.155 HD
ENDROOT
BRANCH  11  14
ATOM     13  N   UNL     1      31.233  -6.852 -23.216  0.00  0.00    -0.312 N 
ATOM     14  C   UNL     1      31.907  -7.475 -22.224  0.00  0.00    +0.049 C 
ATOM     15  C   UNL     1      32.349  -6.582 -21.315  0.00  0.00    +0.016 C 
ATOM     16  C   UNL     1      31.232  -5.508 -22.949  0.00  0.00    +0.062 C 
ATOM     17  C   UNL     1      31.920  -5.311 -21.773  0.00  0.00    +0.017 C 
ATOM     18  H   UNL     1      30.816  -7.288 -23.995  0.00  0.00    +0.152 HD
ENDBRANCH  11  14
BRANCH   6  19
ATOM     19  C   UNL     1      34.258 -15.001 -24.039  0.00  0.00    +0.003 C 
ATOM     20  C   UNL     1      35.031 -15.725 -23.131  0.00  0.00    +0.040 C 
ATOM     21  C   UNL     1      33.872 -15.583 -25.246  0.00  0.00    +0.003 C 
ATOM     22  C   UNL     1      35.417 -17.031 -23.430  0.00  0.00    +0.172 C 
ATOM     23  C   UNL     1      34.258 -16.890 -25.545  0.00  0.00    +0.040 C 
ATOM     24  C   UNL     1      35.030 -17.614 -24.637  0.00  0.00    +0.168 C 
BRANCH  22  25
ATOM     25  O   UNL     1      36.172 -17.728 -22.535  0.00  0.00    -0.468 OA
ATOM     26  C   UNL     1      35.478 -18.573 -21.621  0.00  0.00    +0.253 C 
ENDBRANCH  22  25
BRANCH  24  27
ATOM     27  O   UNL     1      35.401 -18.889 -24.940  0.00  0.00    -0.503 OA
ATOM     28  H   UNL     1      36.175 -19.254 -24.560  0.00  0.00    +0.292 HD
ENDBRANCH  24  27
ENDBRANCH   6  19
TORSDOF 4
ENDMDL
MODEL 9
REMARK VINA RESULT:      -9.2      7.591     12.193
REMARK  Name = 10125830
REMARK  4 active torsions:
REMARK  status: ('A' for Active; 'I' for Inactive)
REMARK    1  A    between atoms: C_6  and  C_19
REMARK    2  A    between atoms: C_11  and  C_14
REMARK    3  A    between atoms: C_22  and  O_25
REMARK    4  A    between atoms: C_24  and  O_27
REMARK                            x       y       z     vdW  Elec       q    Type
REMARK                         _______ _______ _______ _____ _____    ______ ____
ROOT
ATOM      1  O   UNL     1      32.399 -14.109 -22.104  0.00  0.00    -0.270 OA
ATOM      2  N   UNL     1      31.784 -11.829 -22.044  0.00  0.00    -0.280 N 
ATOM      3  C   UNL     1      33.406 -10.935 -23.407  0.00  0.00    +0.018 C 
ATOM      4  C   UNL     1      32.285 -10.656 -22.620  0.00  0.00    +0.051 C 
ATOM      5  C   UNL     1      33.611 -12.376 -23.309  0.00  0.00    +0.056 C 
ATOM      6  C   UNL     1      32.449  -8.349 -23.144  0.00  0.00    +0.001 C 
ATOM      7  C   UNL     1      31.785  -9.377 -22.471  0.00  0.00    +0.015 C 
ATOM      8  C   UNL     1      34.068  -9.923 -24.076  0.00  0.00    +0.001 C 
ATOM      9  C   UNL     1      32.544 -12.942 -22.417  0.00  0.00    +0.250 C 
ATOM     10  C   UNL     1      33.580  -8.619 -23.939  0.00  0.00    +0.000 C 
ATOM     11  C   UNL     1      34.554 -13.123 -23.887  0.00  0.00    +0.019 C 
ATOM     12  H   UNL     1      30.998 -11.865 -21.453  0.00  0.00    +0.155 HD
ENDROOT
BRANCH  11  14
ATOM     13  N   UNL     1      35.085 -15.032 -22.566  0.00  0.00    -0.312 N 
ATOM     14  C   UNL     1      34.746 -14.550 -23.783  0.00  0.00    +0.049 C 
ATOM     15  C   UNL     1      34.654 -15.552 -24.682  0.00  0.00    +0.016 C 
ATOM     16  C   UNL     1      35.218 -16.392 -22.671  0.00  0.00    +0.062 C 
ATOM     17  C   UNL     1      34.957 -16.743 -23.976  0.00  0.00    +0.017 C 
ATOM     18  H   UNL     1      35.214 -14.499 -21.748  0.00  0.00    +0.152 HD
ENDBRANCH  11  14
BRANCH   6  19
ATOM     19  C   UNL     1      31.971  -6.988 -23.024  0.00  0.00    +0.003 C 
ATOM     20  C   UNL     1      32.332  -6.037 -23.977  0.00  0.00    +0.040 C 
ATOM     21  C   UNL     1      31.149  -6.630 -21.957  0.00  0.00    +0.003 C 
ATOM     22  C   UNL     1      31.871  -4.725 -23.863  0.00  0.00    +0.172 C 
ATOM     23  C   UNL     1      30.687  -5.319 -21.842  0.00  0.00    +0.040 C 
ATOM     24  C   UNL     1      31.048  -4.367 -22.795  0.00  0.00    +0.168 C 
BRANCH  22  25
ATOM     25  O   UNL     1      32.231  -3.804 -24.799  0.00  0.00    -0.468 OA
ATOM     26  C   UNL     1      33.209  -4.202 -25.758  0.00  0.00    +0.253 C 
ENDBRANCH  22  25
BRANCH  24  27
ATOM     27  O   UNL     1      30.590  -3.089 -22.673  0.00  0.00    -0.503 OA
ATOM     28  H   UNL     1      31.146  -2.426 -22.315  0.00  0.00    +0.292 HD
ENDBRANCH  24  27
ENDBRANCH   6  19
TORSDOF 4
ENDMDL
