MODEL 1
REMARK VINA RESULT:     -11.5      0.000      0.000
REMARK  Name = 25243828
REMARK  6 active torsions:
REMARK  status: ('A' for Active; 'I' for Inactive)
REMARK    1  A    between atoms: C_1  and  C_18
REMARK    2  A    between atoms: C_4  and  O_7
REMARK    3  A    between atoms: O_7  and  C_9
REMARK    4  A    between atoms: C_11  and  C_17
REMARK    5  A    between atoms: C_18  and  C_21
REMARK    6  A    between atoms: C_26  and  O_27
REMARK                            x       y       z     vdW  Elec       q    Type
REMARK                         _______ _______ _______ _____ _____    ______ ____
ROOT
ATOM      1  C   UNL     1      34.092 -23.585 -15.206  0.00  0.00    -0.019 C 
ATOM      2  C   UNL     1      34.244 -23.706 -16.587  0.00  0.00    +0.033 C 
ATOM      3  C   UNL     1      32.877 -23.155 -14.672  0.00  0.00    -0.004 C 
ATOM      4  C   UNL     1      33.182 -23.394 -17.435  0.00  0.00    +0.147 C 
ATOM      5  C   UNL     1      31.815 -22.843 -15.521  0.00  0.00    +0.003 C 
ATOM      6  C   UNL     1      31.966 -22.963 -16.902  0.00  0.00    +0.038 C 
ENDROOT
BRANCH   4   7
ATOM      7  O   UNL     1      33.330 -23.508 -18.783  0.00  0.00    -0.436 OA
BRANCH   7   9
ATOM      8  N   UNL     1      33.128 -21.525 -19.995  0.00  0.00    -0.210 NA
ATOM      9  C   UNL     1      33.939 -22.462 -19.456  0.00  0.00    +0.230 C 
ATOM     10  C   UNL     1      35.322 -22.431 -19.538  0.00  0.00    +0.058 C 
ATOM     11  C   UNL     1      35.108 -20.385 -20.784  0.00  0.00    +0.091 C 
ATOM     12  C   UNL     1      35.910 -21.369 -20.216  0.00  0.00    +0.010 C 
ATOM     13  C   UNL     1      33.735 -20.508 -20.647  0.00  0.00    +0.106 C 
BRANCH  11  17
ATOM     14  F   UNL     1      35.056 -18.052 -21.313  0.00  0.00    -0.166 F 
ATOM     15  F   UNL     1      37.009 -18.987 -21.178  0.00  0.00    -0.166 F 
ATOM     16  F   UNL     1      35.713 -19.419 -22.871  0.00  0.00    -0.166 F 
ATOM     17  C   UNL     1      35.707 -19.237 -21.517  0.00  0.00    +0.420 C 
ENDBRANCH  11  17
ENDBRANCH   7   9
ENDBRANCH   4   7
BRANCH   1  18
ATOM     18  C   UNL     1      35.238 -23.919 -14.290  0.00  0.00    +0.027 C 
BRANCH  18  21
ATOM     19  O   UNL     1      41.331 -24.728 -14.723  0.00  0.00    -0.226 OA
ATOM     20  N   UNL     1      39.160 -25.444 -15.153  0.00  0.00    -0.246 N 
ATOM     21  C   UNL     1      36.407 -24.538 -15.053  0.00  0.00    +0.008 C 
ATOM     22  C   UNL     1      37.584 -23.554 -15.144  0.00  0.00    +0.022 C 
ATOM     23  C   UNL     1      36.855 -25.852 -14.394  0.00  0.00    +0.022 C 
ATOM     24  C   UNL     1      38.792 -24.195 -15.826  0.00  0.00    +0.097 C 
ATOM     25  C   UNL     1      38.077 -26.435 -15.102  0.00  0.00    +0.097 C 
ATOM     26  C   UNL     1      40.455 -25.589 -14.646  0.00  0.00    +0.402 C 
BRANCH  26  27
ATOM     27  O   UNL     1      40.733 -26.770 -14.023  0.00  0.00    -0.466 OA
ATOM     28  H   UNL     1      40.104 -27.153 -13.444  0.00  0.00    +0.297 HD
ENDBRANCH  26  27
ENDBRANCH  18  21
ENDBRANCH   1  18
TORSDOF 6
ENDMDL
MODEL 2
REMARK VINA RESULT:     -11.3      4.969      8.669
REMARK  Name = 25243828
REMARK  6 active torsions:
REMARK  status: ('A' for Active; 'I' for Inactive)
REMARK    1  A    between atoms: C_1  and  C_18
REMARK    2  A    between atoms: C_4  and  O_7
REMARK    3  A    between atoms: O_7  and  C_9
REMARK    4  A    between atoms: C_11  and  C_17
REMARK    5  A    between atoms: C_18  and  C_21
REMARK    6  A    between atoms: C_26  and  O_27
REMARK                            x       y       z     vdW  Elec       q    Type
REMARK                         _______ _______ _______ _____ _____    ______ ____
ROOT
ATOM      1  C   UNL     1      35.618 -18.469 -22.603  0.00  0.00    -0.019 C 
ATOM      2  C   UNL     1      35.679 -17.077 -22.649  0.00  0.00    +0.033 C 
ATOM      3  C   UNL     1      35.140 -19.184 -23.702  0.00  0.00    -0.004 C 
ATOM      4  C   UNL     1      35.259 -16.398 -23.792  0.00  0.00    +0.147 C 
ATOM      5  C   UNL     1      34.720 -18.504 -24.846  0.00  0.00    +0.003 C 
ATOM      6  C   UNL     1      34.780 -17.111 -24.892  0.00  0.00    +0.038 C 
ENDROOT
BRANCH   4   7
ATOM      7  O   UNL     1      35.315 -15.039 -23.837  0.00  0.00    -0.436 OA
BRANCH   7   9
ATOM      8  N   UNL     1      33.644 -13.438 -23.538  0.00  0.00    -0.210 NA
ATOM      9  C   UNL     1      34.491 -14.331 -22.978  0.00  0.00    +0.230 C 
ATOM     10  C   UNL     1      34.574 -14.573 -21.616  0.00  0.00    +0.058 C 
ATOM     11  C   UNL     1      32.850 -12.924 -21.314  0.00  0.00    +0.091 C 
ATOM     12  C   UNL     1      33.734 -13.851 -20.774  0.00  0.00    +0.010 C 
ATOM     13  C   UNL     1      32.843 -12.756 -22.689  0.00  0.00    +0.106 C 
BRANCH  11  17
ATOM     14  F   UNL     1      32.353 -10.849 -20.230  0.00  0.00    -0.166 F 
ATOM     15  F   UNL     1      30.668 -12.021 -20.931  0.00  0.00    -0.166 F 
ATOM     16  F   UNL     1      31.799 -12.679 -19.194  0.00  0.00    -0.166 F 
ATOM     17  C   UNL     1      31.939 -12.135 -20.440  0.00  0.00    +0.420 C 
ENDBRANCH  11  17
ENDBRANCH   7   9
ENDBRANCH   4   7
BRANCH   1  18
ATOM     18  C   UNL     1      36.069 -19.203 -21.370  0.00  0.00    +0.027 C 
BRANCH  18  21
ATOM     19  O   UNL     1      34.070 -23.518 -17.451  0.00  0.00    -0.226 OA
ATOM     20  N   UNL     1      33.844 -22.328 -19.437  0.00  0.00    -0.246 N 
ATOM     21  C   UNL     1      35.281 -20.495 -21.165  0.00  0.00    +0.008 C 
ATOM     22  C   UNL     1      36.009 -21.431 -20.186  0.00  0.00    +0.022 C 
ATOM     23  C   UNL     1      33.859 -20.194 -20.663  0.00  0.00    +0.022 C 
ATOM     24  C   UNL     1      35.186 -22.687 -19.903  0.00  0.00    +0.097 C 
ATOM     25  C   UNL     1      33.092 -21.484 -20.376  0.00  0.00    +0.097 C 
ATOM     26  C   UNL     1      33.402 -22.804 -18.198  0.00  0.00    +0.402 C 
BRANCH  26  27
ATOM     27  O   UNL     1      32.148 -22.428 -17.817  0.00  0.00    -0.466 OA
ATOM     28  H   UNL     1      31.663 -21.820 -18.339  0.00  0.00    +0.297 HD
ENDBRANCH  26  27
ENDBRANCH  18  21
ENDBRANCH   1  18
TORSDOF 6
ENDMDL
MODEL 3
REMARK VINA RESULT:     -10.9      3.308      6.009
REMARK  Name = 25243828
REMARK  6 active torsions:
REMARK  status: ('A' for Active; 'I' for Inactive)
REMARK    1  A    between atoms: C_1  and  C_18
REMARK    2  A    between atoms: C_4  and  O_7
REMARK    3  A    between atoms: O_7  and  C_9
REMARK    4  A    between atoms: C_11  and  C_17
REMARK    5  A    between atoms: C_18  and  C_21
REMARK    6  A    between atoms: C_26  and  O_27
REMARK                            x       y       z     vdW  Elec       q    Type
REMARK                         _______ _______ _______ _____ _____    ______ ____
ROOT
ATOM      1  C   UNL     1      33.716 -24.141 -15.079  0.00  0.00    -0.019 C 
ATOM      2  C   UNL     1      33.390 -24.148 -16.435  0.00  0.00    +0.033 C 
ATOM      3  C   UNL     1      34.842 -23.447 -14.636  0.00  0.00    -0.004 C 
ATOM      4  C   UNL     1      34.191 -23.462 -17.349  0.00  0.00    +0.147 C 
ATOM      5  C   UNL     1      35.643 -22.761 -15.549  0.00  0.00    +0.003 C 
ATOM      6  C   UNL     1      35.317 -22.768 -16.906  0.00  0.00    +0.038 C 
ENDROOT
BRANCH   4   7
ATOM      7  O   UNL     1      33.875 -23.471 -18.672  0.00  0.00    -0.436 OA
BRANCH   7   9
ATOM      8  N   UNL     1      35.615 -22.316 -19.712  0.00  0.00    -0.210 NA
ATOM      9  C   UNL     1      34.293 -22.397 -19.441  0.00  0.00    +0.230 C 
ATOM     10  C   UNL     1      33.352 -21.483 -19.886  0.00  0.00    +0.058 C 
ATOM     11  C   UNL     1      35.150 -20.298 -20.958  0.00  0.00    +0.091 C 
ATOM     12  C   UNL     1      33.797 -20.415 -20.659  0.00  0.00    +0.010 C 
ATOM     13  C   UNL     1      36.010 -21.265 -20.465  0.00  0.00    +0.106 C 
BRANCH  11  17
ATOM     14  F   UNL     1      37.018 -19.035 -21.758  0.00  0.00    -0.166 F 
ATOM     15  F   UNL     1      35.334 -19.262 -23.106  0.00  0.00    -0.166 F 
ATOM     16  F   UNL     1      35.169 -17.957 -21.375  0.00  0.00    -0.166 F 
ATOM     17  C   UNL     1      35.657 -19.166 -21.781  0.00  0.00    +0.420 C 
ENDBRANCH  11  17
ENDBRANCH   7   9
ENDBRANCH   4   7
BRANCH   1  18
ATOM     18  C   UNL     1      32.854 -24.881 -14.093  0.00  0.00    +0.027 C 
BRANCH  18  21
ATOM     19  O   UNL     1      28.448 -22.173 -17.443  0.00  0.00    -0.226 OA
ATOM     20  N   UNL     1      29.100 -23.700 -15.812  0.00  0.00    -0.246 N 
ATOM     21  C   UNL     1      31.388 -24.471 -14.207  0.00  0.00    +0.008 C 
ATOM     22  C   UNL     1      31.258 -23.066 -14.816  0.00  0.00    +0.022 C 
ATOM     23  C   UNL     1      30.598 -25.493 -15.042  0.00  0.00    +0.022 C 
ATOM     24  C   UNL     1      29.793 -22.682 -15.018  0.00  0.00    +0.097 C 
ATOM     25  C   UNL     1      29.149 -25.047 -15.229  0.00  0.00    +0.097 C 
ATOM     26  C   UNL     1      28.468 -23.322 -17.002  0.00  0.00    +0.402 C 
BRANCH  26  27
ATOM     27  O   UNL     1      27.848 -24.316 -17.700  0.00  0.00    -0.466 OA
ATOM     28  H   UNL     1      27.075 -24.128 -18.195  0.00  0.00    +0.297 HD
ENDBRANCH  26  27
ENDBRANCH  18  21
ENDBRANCH   1  18
TORSDOF 6
ENDMDL
MODEL 4
REMARK VINA RESULT:     -10.7      5.980     11.078
REMARK  Name = 25243828
REMARK  6 active torsions:
REMARK  status: ('A' for Active; 'I' for Inactive)
REMARK    1  A    between atoms: C_1  and  C_18
REMARK    2  A    between atoms: C_4  and  O_7
REMARK    3  A    between atoms: O_7  and  C_9
REMARK    4  A    between atoms: C_11  and  C_17
REMARK    5  A    between atoms: C_18  and  C_21
REMARK    6  A    between atoms: C_26  and  O_27
REMARK                            x       y       z     vdW  Elec       q    Type
REMARK                         _______ _______ _______ _____ _____    ______ ____
ROOT
ATOM      1  C   UNL     1      35.033 -15.695 -23.603  0.00  0.00    -0.019 C 
ATOM      2  C   UNL     1      35.771 -16.470 -22.709  0.00  0.00    +0.033 C 
ATOM      3  C   UNL     1      34.486 -16.277 -24.746  0.00  0.00    -0.004 C 
ATOM      4  C   UNL     1      35.963 -17.829 -22.959  0.00  0.00    +0.147 C 
ATOM      5  C   UNL     1      34.678 -17.636 -24.997  0.00  0.00    +0.003 C 
ATOM      6  C   UNL     1      35.416 -18.413 -24.103  0.00  0.00    +0.038 C 
ENDROOT
BRANCH   4   7
ATOM      7  O   UNL     1      36.685 -18.586 -22.089  0.00  0.00    -0.436 OA
BRANCH   7   9
ATOM      8  N   UNL     1      36.742 -20.297 -20.504  0.00  0.00    -0.210 NA
ATOM      9  C   UNL     1      36.004 -19.526 -21.334  0.00  0.00    +0.230 C 
ATOM     10  C   UNL     1      34.629 -19.625 -21.466  0.00  0.00    +0.058 C 
ATOM     11  C   UNL     1      34.693 -21.386 -19.829  0.00  0.00    +0.091 C 
ATOM     12  C   UNL     1      33.967 -20.575 -20.694  0.00  0.00    +0.010 C 
ATOM     13  C   UNL     1      36.066 -21.209 -19.771  0.00  0.00    +0.106 C 
BRANCH  11  17
ATOM     14  F   UNL     1      34.651 -22.667 -17.809  0.00  0.00    -0.166 F 
ATOM     15  F   UNL     1      32.736 -22.078 -18.640  0.00  0.00    -0.166 F 
ATOM     16  F   UNL     1      33.914 -23.623 -19.617  0.00  0.00    -0.166 F 
ATOM     17  C   UNL     1      34.015 -22.413 -18.992  0.00  0.00    +0.420 C 
ENDBRANCH  11  17
ENDBRANCH   7   9
ENDBRANCH   4   7
BRANCH   1  18
ATOM     18  C   UNL     1      34.826 -14.229 -23.336  0.00  0.00    +0.027 C 
BRANCH  18  21
ATOM     19  O   UNL     1      31.884 -11.808 -18.493  0.00  0.00    -0.226 OA
ATOM     20  N   UNL     1      31.902 -12.480 -20.720  0.00  0.00    -0.246 N 
ATOM     21  C   UNL     1      33.497 -13.967 -22.632  0.00  0.00    +0.008 C 
ATOM     22  C   UNL     1      33.625 -14.191 -21.117  0.00  0.00    +0.022 C 
ATOM     23  C   UNL     1      32.996 -12.543 -22.924  0.00  0.00    +0.022 C 
ATOM     24  C   UNL     1      32.325 -13.844 -20.393  0.00  0.00    +0.097 C 
ATOM     25  C   UNL     1      31.708 -12.244 -22.157  0.00  0.00    +0.097 C 
ATOM     26  C   UNL     1      31.716 -11.557 -19.686  0.00  0.00    +0.402 C 
BRANCH  26  27
ATOM     27  O   UNL     1      31.331 -10.301 -20.056  0.00  0.00    -0.466 OA
ATOM     28  H   UNL     1      30.862  -9.760 -19.454  0.00  0.00    +0.297 HD
ENDBRANCH  26  27
ENDBRANCH  18  21
ENDBRANCH   1  18
TORSDOF 6
ENDMDL
MODEL 5
REMARK VINA RESULT:     -10.6      0.892      1.269
REMARK  Name = 25243828
REMARK  6 active torsions:
REMARK  status: ('A' for Active; 'I' for Inactive)
REMARK    1  A    between atoms: C_1  and  C_18
REMARK    2  A    between atoms: C_4  and  O_7
REMARK    3  A    between atoms: O_7  and  C_9
REMARK    4  A    between atoms: C_11  and  C_17
REMARK    5  A    between atoms: C_18  and  C_21
REMARK    6  A    between atoms: C_26  and  O_27
REMARK                            x       y       z     vdW  Elec       q    Type
REMARK                         _______ _______ _______ _____ _____    ______ ____
ROOT
ATOM      1  C   UNL     1      33.492 -23.819 -14.965  0.00  0.00    -0.019 C 
ATOM      2  C   UNL     1      33.934 -24.028 -16.271  0.00  0.00    +0.033 C 
ATOM      3  C   UNL     1      32.303 -23.127 -14.732  0.00  0.00    -0.004 C 
ATOM      4  C   UNL     1      33.187 -23.544 -17.346  0.00  0.00    +0.147 C 
ATOM      5  C   UNL     1      31.556 -22.643 -15.807  0.00  0.00    +0.003 C 
ATOM      6  C   UNL     1      31.998 -22.852 -17.114  0.00  0.00    +0.038 C 
ENDROOT
BRANCH   4   7
ATOM      7  O   UNL     1      33.618 -23.745 -18.621  0.00  0.00    -0.436 OA
BRANCH   7   9
ATOM      8  N   UNL     1      33.204 -21.951 -20.053  0.00  0.00    -0.210 NA
ATOM      9  C   UNL     1      34.099 -22.650 -19.319  0.00  0.00    +0.230 C 
ATOM     10  C   UNL     1      35.444 -22.333 -19.228  0.00  0.00    +0.058 C 
ATOM     11  C   UNL     1      35.011 -20.483 -20.703  0.00  0.00    +0.091 C 
ATOM     12  C   UNL     1      35.902 -21.226 -19.936  0.00  0.00    +0.010 C 
ATOM     13  C   UNL     1      33.685 -20.883 -20.728  0.00  0.00    +0.106 C 
BRANCH  11  17
ATOM     14  F   UNL     1      34.827 -18.137 -21.135  0.00  0.00    -0.166 F 
ATOM     15  F   UNL     1      36.800 -19.019 -21.317  0.00  0.00    -0.166 F 
ATOM     16  F   UNL     1      35.284 -19.433 -22.819  0.00  0.00    -0.166 F 
ATOM     17  C   UNL     1      35.470 -19.295 -21.473  0.00  0.00    +0.420 C 
ENDBRANCH  11  17
ENDBRANCH   7   9
ENDBRANCH   4   7
BRANCH   1  18
ATOM     18  C   UNL     1      34.297 -24.338 -13.805  0.00  0.00    +0.027 C 
BRANCH  18  21
ATOM     19  O   UNL     1      40.153 -26.258 -13.803  0.00  0.00    -0.226 OA
ATOM     20  N   UNL     1      38.523 -24.735 -14.465  0.00  0.00    -0.246 N 
ATOM     21  C   UNL     1      35.774 -23.976 -13.938  0.00  0.00    +0.008 C 
ATOM     22  C   UNL     1      36.620 -24.737 -12.905  0.00  0.00    +0.022 C 
ATOM     23  C   UNL     1      36.281 -24.260 -15.361  0.00  0.00    +0.022 C 
ATOM     24  C   UNL     1      38.110 -24.450 -13.088  0.00  0.00    +0.097 C 
ATOM     25  C   UNL     1      37.778 -23.977 -15.480  0.00  0.00    +0.097 C 
ATOM     26  C   UNL     1      39.552 -25.654 -14.692  0.00  0.00    +0.402 C 
BRANCH  26  27
ATOM     27  O   UNL     1      39.884 -25.883 -15.995  0.00  0.00    -0.466 OA
ATOM     28  H   UNL     1      40.774 -26.059 -16.227  0.00  0.00    +0.297 HD
ENDBRANCH  26  27
ENDBRANCH  18  21
ENDBRANCH   1  18
TORSDOF 6
ENDMDL
MODEL 6
REMARK VINA RESULT:     -10.5      6.259     11.259
REMARK  Name = 25243828
REMARK  6 active torsions:
REMARK  status: ('A' for Active; 'I' for Inactive)
REMARK    1  A    between atoms: C_1  and  C_18
REMARK    2  A    between atoms: C_4  and  O_7
REMARK    3  A    between atoms: O_7  and  C_9
REMARK    4  A    between atoms: C_11  and  C_17
REMARK    5  A    between atoms: C_18  and  C_21
REMARK    6  A    between atoms: C_26  and  O_27
REMARK                            x       y       z     vdW  Elec       q    Type
REMARK                         _______ _______ _______ _____ _____    ______ ____
ROOT
ATOM      1  C   UNL     1      35.247 -16.438 -22.119  0.00  0.00    -0.019 C 
ATOM      2  C   UNL     1      35.845 -17.502 -21.444  0.00  0.00    +0.033 C 
ATOM      3  C   UNL     1      35.022 -16.521 -23.493  0.00  0.00    -0.004 C 
ATOM      4  C   UNL     1      36.219 -18.649 -22.144  0.00  0.00    +0.147 C 
ATOM      5  C   UNL     1      35.396 -17.668 -24.193  0.00  0.00    +0.003 C 
ATOM      6  C   UNL     1      35.995 -18.733 -23.519  0.00  0.00    +0.038 C 
ENDROOT
BRANCH   4   7
ATOM      7  O   UNL     1      36.806 -19.687 -21.488  0.00  0.00    -0.436 OA
BRANCH   7   9
ATOM      8  N   UNL     1      36.625 -21.190 -19.713  0.00  0.00    -0.210 NA
ATOM      9  C   UNL     1      36.004 -20.469 -20.673  0.00  0.00    +0.230 C 
ATOM     10  C   UNL     1      34.634 -20.471 -20.881  0.00  0.00    +0.058 C 
ATOM     11  C   UNL     1      34.453 -22.018 -19.048  0.00  0.00    +0.091 C 
ATOM     12  C   UNL     1      33.850 -21.263 -20.048  0.00  0.00    +0.010 C 
ATOM     13  C   UNL     1      35.831 -21.948 -18.923  0.00  0.00    +0.106 C 
BRANCH  11  17
ATOM     14  F   UNL     1      32.350 -22.456 -17.996  0.00  0.00    -0.166 F 
ATOM     15  F   UNL     1      33.545 -24.176 -18.558  0.00  0.00    -0.166 F 
ATOM     16  F   UNL     1      34.150 -22.937 -16.876  0.00  0.00    -0.166 F 
ATOM     17  C   UNL     1      33.642 -22.877 -18.143  0.00  0.00    +0.420 C 
ENDBRANCH  11  17
ENDBRANCH   7   9
ENDBRANCH   4   7
BRANCH   1  18
ATOM     18  C   UNL     1      34.844 -15.200 -21.366  0.00  0.00    +0.027 C 
BRANCH  18  21
ATOM     19  O   UNL     1      31.769  -9.883 -21.869  0.00  0.00    -0.226 OA
ATOM     20  N   UNL     1      32.739 -11.760 -22.845  0.00  0.00    -0.246 N 
ATOM     21  C   UNL     1      33.868 -14.345 -22.170  0.00  0.00    +0.008 C 
ATOM     22  C   UNL     1      32.879 -13.621 -21.242  0.00  0.00    +0.022 C 
ATOM     23  C   UNL     1      34.622 -13.330 -23.045  0.00  0.00    +0.022 C 
ATOM     24  C   UNL     1      31.956 -12.692 -22.029  0.00  0.00    +0.097 C 
ATOM     25  C   UNL     1      33.651 -12.416 -23.791  0.00  0.00    +0.097 C 
ATOM     26  C   UNL     1      32.556 -10.384 -22.672  0.00  0.00    +0.402 C 
BRANCH  26  27
ATOM     27  O   UNL     1      33.320  -9.569 -23.454  0.00  0.00    -0.466 OA
ATOM     28  H   UNL     1      34.133  -9.880 -23.800  0.00  0.00    +0.297 HD
ENDBRANCH  26  27
ENDBRANCH  18  21
ENDBRANCH   1  18
TORSDOF 6
ENDMDL
MODEL 7
REMARK VINA RESULT:     -10.4      6.207     11.299
REMARK  Name = 25243828
REMARK  6 active torsions:
REMARK  status: ('A' for Active; 'I' for Inactive)
REMARK    1  A    between atoms: C_1  and  C_18
REMARK    2  A    between atoms: C_4  and  O_7
REMARK    3  A    between atoms: O_7  and  C_9
REMARK    4  A    between atoms: C_11  and  C_17
REMARK    5  A    between atoms: C_18  and  C_21
REMARK    6  A    between atoms: C_26  and  O_27
REMARK                            x       y       z     vdW  Elec       q    Type
REMARK                         _______ _______ _______ _____ _____    ______ ____
ROOT
ATOM      1  C   UNL     1      34.710 -15.095 -23.888  0.00  0.00    -0.019 C 
ATOM      2  C   UNL     1      35.545 -16.028 -23.275  0.00  0.00    +0.033 C 
ATOM      3  C   UNL     1      33.982 -15.448 -25.024  0.00  0.00    -0.004 C 
ATOM      4  C   UNL     1      35.653 -17.316 -23.800  0.00  0.00    +0.147 C 
ATOM      5  C   UNL     1      34.090 -16.737 -25.549  0.00  0.00    +0.003 C 
ATOM      6  C   UNL     1      34.926 -17.671 -24.936  0.00  0.00    +0.038 C 
ENDROOT
BRANCH   4   7
ATOM      7  O   UNL     1      36.470 -18.228 -23.204  0.00  0.00    -0.436 OA
BRANCH   7   9
ATOM      8  N   UNL     1      34.579 -19.345 -22.417  0.00  0.00    -0.210 NA
ATOM      9  C   UNL     1      35.903 -19.101 -22.291  0.00  0.00    +0.230 C 
ATOM     10  C   UNL     1      36.708 -19.670 -21.317  0.00  0.00    +0.058 C 
ATOM     11  C   UNL     1      34.755 -20.821 -20.511  0.00  0.00    +0.091 C 
ATOM     12  C   UNL     1      36.115 -20.546 -20.413  0.00  0.00    +0.010 C 
ATOM     13  C   UNL     1      34.038 -20.201 -21.521  0.00  0.00    +0.106 C 
BRANCH  11  17
ATOM     14  F   UNL     1      33.835 -22.988 -20.085  0.00  0.00    -0.166 F 
ATOM     15  F   UNL     1      34.823 -21.995 -18.428  0.00  0.00    -0.166 F 
ATOM     16  F   UNL     1      32.886 -21.288 -19.118  0.00  0.00    -0.166 F 
ATOM     17  C   UNL     1      34.092 -21.752 -19.558  0.00  0.00    +0.420 C 
ENDBRANCH  11  17
ENDBRANCH   7   9
ENDBRANCH   4   7
BRANCH   1  18
ATOM     18  C   UNL     1      34.593 -13.705 -23.325  0.00  0.00    +0.027 C 
BRANCH  18  21
ATOM     19  O   UNL     1      31.783 -11.777 -18.191  0.00  0.00    -0.226 OA
ATOM     20  N   UNL     1      31.742 -12.223 -20.474  0.00  0.00    -0.246 N 
ATOM     21  C   UNL     1      33.283 -13.513 -22.565  0.00  0.00    +0.008 C 
ATOM     22  C   UNL     1      33.449 -13.888 -21.084  0.00  0.00    +0.022 C 
ATOM     23  C   UNL     1      32.779 -12.066 -22.700  0.00  0.00    +0.022 C 
ATOM     24  C   UNL     1      32.168 -13.613 -20.296  0.00  0.00    +0.097 C 
ATOM     25  C   UNL     1      31.512 -11.845 -21.875  0.00  0.00    +0.097 C 
ATOM     26  C   UNL     1      31.585 -11.408 -19.349  0.00  0.00    +0.402 C 
BRANCH  26  27
ATOM     27  O   UNL     1      31.196 -10.122 -19.582  0.00  0.00    -0.466 OA
ATOM     28  H   UNL     1      31.078  -9.532 -18.864  0.00  0.00    +0.297 HD
ENDBRANCH  26  27
ENDBRANCH  18  21
ENDBRANCH   1  18
TORSDOF 6
ENDMDL
MODEL 8
REMARK VINA RESULT:     -10.3      3.793      5.710
REMARK  Name = 25243828
REMARK  6 active torsions:
REMARK  status: ('A' for Active; 'I' for Inactive)
REMARK    1  A    between atoms: C_1  and  C_18
REMARK    2  A    between atoms: C_4  and  O_7
REMARK    3  A    between atoms: O_7  and  C_9
REMARK    4  A    between atoms: C_11  and  C_17
REMARK    5  A    between atoms: C_18  and  C_21
REMARK    6  A    between atoms: C_26  and  O_27
REMARK                            x       y       z     vdW  Elec       q    Type
REMARK                         _______ _______ _______ _____ _____    ______ ____
ROOT
ATOM      1  C   UNL     1      34.808 -21.785 -19.606  0.00  0.00    -0.019 C 
ATOM      2  C   UNL     1      35.747 -20.931 -20.184  0.00  0.00    +0.033 C 
ATOM      3  C   UNL     1      33.458 -21.667 -19.940  0.00  0.00    -0.004 C 
ATOM      4  C   UNL     1      35.336 -19.958 -21.095  0.00  0.00    +0.147 C 
ATOM      5  C   UNL     1      33.048 -20.694 -20.851  0.00  0.00    +0.003 C 
ATOM      6  C   UNL     1      33.987 -19.840 -21.430  0.00  0.00    +0.038 C 
ENDROOT
BRANCH   4   7
ATOM      7  O   UNL     1      36.251 -19.122 -21.658  0.00  0.00    -0.436 OA
BRANCH   7   9
ATOM      8  N   UNL     1      35.428 -16.975 -21.268  0.00  0.00    -0.210 NA
ATOM      9  C   UNL     1      35.797 -17.917 -22.165  0.00  0.00    +0.230 C 
ATOM     10  C   UNL     1      35.746 -17.741 -23.538  0.00  0.00    +0.058 C 
ATOM     11  C   UNL     1      34.900 -15.527 -23.130  0.00  0.00    +0.091 C 
ATOM     12  C   UNL     1      35.288 -16.520 -24.022  0.00  0.00    +0.010 C 
ATOM     13  C   UNL     1      34.988 -15.801 -21.775  0.00  0.00    +0.106 C 
BRANCH  11  17
ATOM     14  F   UNL     1      33.120 -13.932 -23.240  0.00  0.00    -0.166 F 
ATOM     15  F   UNL     1      35.142 -13.147 -23.172  0.00  0.00    -0.166 F 
ATOM     16  F   UNL     1      34.412 -14.114 -24.979  0.00  0.00    -0.166 F 
ATOM     17  C   UNL     1      34.405 -14.211 -23.616  0.00  0.00    +0.420 C 
ENDBRANCH  11  17
ENDBRANCH   7   9
ENDBRANCH   4   7
BRANCH   1  18
ATOM     18  C   UNL     1      35.248 -22.833 -18.621  0.00  0.00    +0.027 C 
BRANCH  18  21
ATOM     19  O   UNL     1      32.147 -25.279 -13.891  0.00  0.00    -0.226 OA
ATOM     20  N   UNL     1      33.608 -23.681 -14.743  0.00  0.00    -0.246 N 
ATOM     21  C   UNL     1      34.608 -22.623 -17.251  0.00  0.00    +0.008 C 
ATOM     22  C   UNL     1      33.261 -23.358 -17.157  0.00  0.00    +0.022 C 
ATOM     23  C   UNL     1      35.552 -23.087 -16.129  0.00  0.00    +0.022 C 
ATOM     24  C   UNL     1      32.655 -23.230 -15.760  0.00  0.00    +0.097 C 
ATOM     25  C   UNL     1      34.886 -22.957 -14.760  0.00  0.00    +0.097 C 
ATOM     26  C   UNL     1      33.238 -24.709 -13.870  0.00  0.00    +0.402 C 
BRANCH  26  27
ATOM     27  O   UNL     1      34.172 -25.090 -12.952  0.00  0.00    -0.466 OA
ATOM     28  H   UNL     1      34.382 -25.997 -12.847  0.00  0.00    +0.297 HD
ENDBRANCH  26  27
ENDBRANCH  18  21
ENDBRANCH   1  18
TORSDOF 6
ENDMDL
MODEL 9
REMARK VINA RESULT:      -9.9      7.295     12.366
REMARK  Name = 25243828
REMARK  6 active torsions:
REMARK  status: ('A' for Active; 'I' for Inactive)
REMARK    1  A    between atoms: C_1  and  C_18
REMARK    2  A    between atoms: C_4  and  O_7
REMARK    3  A    between atoms: O_7  and  C_9
REMARK    4  A    between atoms: C_11  and  C_17
REMARK    5  A    between atoms: C_18  and  C_21
REMARK    6  A    between atoms: C_26  and  O_27
REMARK                            x       y       z     vdW  Elec       q    Type
REMARK                         _______ _______ _______ _____ _____    ______ ____
ROOT
ATOM      1  C   UNL     1      34.284 -14.909 -23.255  0.00  0.00    -0.019 C 
ATOM      2  C   UNL     1      35.194 -15.922 -22.954  0.00  0.00    +0.033 C 
ATOM      3  C   UNL     1      33.766 -14.797 -24.546  0.00  0.00    -0.004 C 
ATOM      4  C   UNL     1      35.587 -16.823 -23.945  0.00  0.00    +0.147 C 
ATOM      5  C   UNL     1      34.159 -15.698 -25.536  0.00  0.00    +0.003 C 
ATOM      6  C   UNL     1      35.069 -16.712 -25.235  0.00  0.00    +0.038 C 
ENDROOT
BRANCH   4   7
ATOM      7  O   UNL     1      36.476 -17.811 -23.653  0.00  0.00    -0.436 OA
BRANCH   7   9
ATOM      8  N   UNL     1      34.912 -19.313 -22.795  0.00  0.00    -0.210 NA
ATOM      9  C   UNL     1      36.124 -18.728 -22.676  0.00  0.00    +0.230 C 
ATOM     10  C   UNL     1      37.016 -18.992 -21.650  0.00  0.00    +0.058 C 
ATOM     11  C   UNL     1      35.400 -20.542 -20.772  0.00  0.00    +0.091 C 
ATOM     12  C   UNL     1      36.640 -19.919 -20.683  0.00  0.00    +0.010 C 
ATOM     13  C   UNL     1      34.580 -20.208 -21.837  0.00  0.00    +0.106 C 
BRANCH  11  17
ATOM     14  F   UNL     1      34.944 -22.823 -20.213  0.00  0.00    -0.166 F 
ATOM     15  F   UNL     1      35.770 -21.573 -18.645  0.00  0.00    -0.166 F 
ATOM     16  F   UNL     1      33.709 -21.297 -19.280  0.00  0.00    -0.166 F 
ATOM     17  C   UNL     1      34.968 -21.536 -19.752  0.00  0.00    +0.420 C 
ENDBRANCH  11  17
ENDBRANCH   7   9
ENDBRANCH   4   7
BRANCH   1  18
ATOM     18  C   UNL     1      33.862 -13.935 -22.190  0.00  0.00    +0.027 C 
BRANCH  18  21
ATOM     19  O   UNL     1      31.978  -8.108 -21.511  0.00  0.00    -0.226 OA
ATOM     20  N   UNL     1      32.566  -9.898 -22.876  0.00  0.00    -0.246 N 
ATOM     21  C   UNL     1      33.110 -12.745 -22.781  0.00  0.00    +0.008 C 
ATOM     22  C   UNL     1      32.266 -12.042 -21.706  0.00  0.00    +0.022 C 
ATOM     23  C   UNL     1      34.087 -11.751 -23.431  0.00  0.00    +0.022 C 
ATOM     24  C   UNL     1      31.581 -10.796 -22.266  0.00  0.00    +0.097 C 
ATOM     25  C   UNL     1      33.352 -10.517 -23.952  0.00  0.00    +0.097 C 
ATOM     26  C   UNL     1      32.668  -8.582 -22.413  0.00  0.00    +0.402 C 
BRANCH  26  27
ATOM     27  O   UNL     1      33.610  -7.800 -23.014  0.00  0.00    -0.466 OA
ATOM     28  H   UNL     1      34.405  -8.182 -23.329  0.00  0.00    +0.297 HD
ENDBRANCH  26  27
ENDBRANCH  18  21
ENDBRANCH   1  18
TORSDOF 6
ENDMDL
