MODEL 1
REMARK VINA RESULT:     -11.5      0.000      0.000
REMARK  Name = 42627755
REMARK  2 active torsions:
REMARK  status: ('A' for Active; 'I' for Inactive)
REMARK    1  A    between atoms: N_5  and  C_20
REMARK    2  A    between atoms: C_7  and  C_28
REMARK                            x       y       z     vdW  Elec       q    Type
REMARK                         _______ _______ _______ _____ _____    ______ ____
ROOT
ATOM      1  N   UNL     1      35.801 -21.641 -19.540  0.00  0.00    -0.239 N 
ATOM      2  N   UNL     1      35.085 -22.261 -18.587  0.00  0.00    -0.166 NA
ATOM      3  N   UNL     1      32.673 -22.404 -18.237  0.00  0.00    -0.271 N 
ATOM      4  N   UNL     1      33.577 -23.669 -16.433  0.00  0.00    -0.322 NA
ATOM      5  N   UNL     1      34.422 -24.921 -14.643  0.00  0.00    -0.247 N 
ATOM      6  N   UNL     1      32.098 -24.700 -14.834  0.00  0.00    -0.170 NA
ATOM      7  C   UNL     1      35.039 -20.983 -20.460  0.00  0.00    +0.045 C 
ATOM      8  C   UNL     1      33.734 -21.188 -20.082  0.00  0.00    +0.048 C 
ATOM      9  C   UNL     1      33.823 -21.981 -18.923  0.00  0.00    +0.152 C 
ATOM     10  C   UNL     1      32.490 -23.190 -17.073  0.00  0.00    +0.199 C 
ATOM     11  C   UNL     1      31.194 -23.420 -16.660  0.00  0.00    +0.070 C 
ATOM     12  C   UNL     1      33.312 -24.406 -15.336  0.00  0.00    +0.150 C 
ATOM     13  C   UNL     1      31.057 -24.189 -15.522  0.00  0.00    +0.116 C 
ATOM     14  H   UNL     1      36.785 -21.660 -19.571  0.00  0.00    +0.174 HD
ATOM     15  H   UNL     1      31.833 -22.095 -18.643  0.00  0.00    +0.156 HD
ATOM     16  H   UNL     1      34.181 -25.453 -13.850  0.00  0.00    +0.165 HD
ENDROOT
BRANCH   5  20
ATOM     17  N   UNL     1      39.063 -26.617 -14.638  0.00  0.00    -0.315 N 
ATOM     18  N   UNL     1      39.924 -24.733 -15.444  0.00  0.00    -0.315 N 
ATOM     19  C   UNL     1      37.998 -25.772 -14.807  0.00  0.00    +0.060 C 
ATOM     20  C   UNL     1      35.815 -24.826 -14.864  0.00  0.00    +0.059 C 
ATOM     21  C   UNL     1      38.561 -24.603 -15.311  0.00  0.00    +0.059 C 
ATOM     22  C   UNL     1      36.632 -25.923 -14.569  0.00  0.00    +0.031 C 
ATOM     23  C   UNL     1      36.350 -23.641 -15.371  0.00  0.00    +0.017 C 
ATOM     24  C   UNL     1      37.725 -23.510 -15.602  0.00  0.00    +0.017 C 
ATOM     25  C   UNL     1      40.191 -25.952 -15.032  0.00  0.00    +0.182 C 
ATOM     26  H   UNL     1      39.024 -27.539 -14.293  0.00  0.00    +0.148 HD
ATOM     27  H   UNL     1      40.561 -24.060 -15.777  0.00  0.00    +0.148 HD
ENDBRANCH   5  20
BRANCH   7  28
ATOM     28  C   UNL     1      35.541 -20.186 -21.657  0.00  0.00    +0.037 C 
ATOM     29  C   UNL     1      36.700 -19.254 -21.467  0.00  0.00    +0.006 C 
ATOM     30  C   UNL     1      35.321 -18.702 -21.678  0.00  0.00    +0.006 C 
ENDBRANCH   7  28
TORSDOF 2
ENDMDL
MODEL 2
REMARK VINA RESULT:     -11.1      1.350      6.631
REMARK  Name = 42627755
REMARK  2 active torsions:
REMARK  status: ('A' for Active; 'I' for Inactive)
REMARK    1  A    between atoms: N_5  and  C_20
REMARK    2  A    between atoms: C_7  and  C_28
REMARK                            x       y       z     vdW  Elec       q    Type
REMARK                         _______ _______ _______ _____ _____    ______ ____
ROOT
ATOM      1  N   UNL     1      37.645 -24.109 -15.736  0.00  0.00    -0.239 N 
ATOM      2  N   UNL     1      36.315 -24.004 -15.888  0.00  0.00    -0.166 NA
ATOM      3  N   UNL     1      34.478 -24.894 -14.548  0.00  0.00    -0.271 N 
ATOM      4  N   UNL     1      33.375 -23.718 -16.301  0.00  0.00    -0.322 NA
ATOM      5  N   UNL     1      32.248 -22.575 -18.006  0.00  0.00    -0.247 N 
ATOM      6  N   UNL     1      30.967 -23.662 -16.375  0.00  0.00    -0.170 NA
ATOM      7  C   UNL     1      38.020 -24.839 -14.646  0.00  0.00    +0.045 C 
ATOM      8  C   UNL     1      36.852 -25.239 -14.044  0.00  0.00    +0.048 C 
ATOM      9  C   UNL     1      35.835 -24.697 -14.851  0.00  0.00    +0.152 C 
ATOM     10  C   UNL     1      33.286 -24.467 -15.182  0.00  0.00    +0.199 C 
ATOM     11  C   UNL     1      32.090 -24.847 -14.608  0.00  0.00    +0.070 C 
ATOM     12  C   UNL     1      32.194 -23.356 -16.838  0.00  0.00    +0.150 C 
ATOM     13  C   UNL     1      30.951 -24.412 -15.254  0.00  0.00    +0.116 C 
ATOM     14  H   UNL     1      38.292 -23.696 -16.354  0.00  0.00    +0.174 HD
ATOM     15  H   UNL     1      34.327 -25.433 -13.740  0.00  0.00    +0.156 HD
ATOM     16  H   UNL     1      31.363 -22.333 -18.362  0.00  0.00    +0.165 HD
ENDROOT
BRANCH   5  20
ATOM     17  N   UNL     1      34.297 -19.755 -21.508  0.00  0.00    -0.315 N 
ATOM     18  N   UNL     1      36.362 -20.471 -21.104  0.00  0.00    -0.315 N 
ATOM     19  C   UNL     1      34.177 -20.659 -20.486  0.00  0.00    +0.060 C 
ATOM     20  C   UNL     1      33.327 -22.068 -18.768  0.00  0.00    +0.059 C 
ATOM     21  C   UNL     1      35.479 -21.092 -20.252  0.00  0.00    +0.059 C 
ATOM     22  C   UNL     1      33.075 -21.123 -19.767  0.00  0.00    +0.031 C 
ATOM     23  C   UNL     1      34.621 -22.522 -18.509  0.00  0.00    +0.017 C 
ATOM     24  C   UNL     1      35.714 -22.043 -19.243  0.00  0.00    +0.017 C 
ATOM     25  C   UNL     1      35.621 -19.677 -21.844  0.00  0.00    +0.182 C 
ATOM     26  H   UNL     1      33.563 -19.251 -21.928  0.00  0.00    +0.148 HD
ATOM     27  H   UNL     1      37.338 -20.594 -21.150  0.00  0.00    +0.148 HD
ENDBRANCH   5  20
BRANCH   7  28
ATOM     28  C   UNL     1      39.443 -25.143 -14.199  0.00  0.00    +0.037 C 
ATOM     29  C   UNL     1      40.529 -25.192 -15.232  0.00  0.00    +0.006 C 
ATOM     30  C   UNL     1      40.054 -26.460 -14.584  0.00  0.00    +0.006 C 
ENDBRANCH   7  28
TORSDOF 2
ENDMDL
MODEL 3
REMARK VINA RESULT:     -11.0      1.955      5.583
REMARK  Name = 42627755
REMARK  2 active torsions:
REMARK  status: ('A' for Active; 'I' for Inactive)
REMARK    1  A    between atoms: N_5  and  C_20
REMARK    2  A    between atoms: C_7  and  C_28
REMARK                            x       y       z     vdW  Elec       q    Type
REMARK                         _______ _______ _______ _____ _____    ______ ____
ROOT
ATOM      1  N   UNL     1      34.330 -22.114 -18.984  0.00  0.00    -0.239 N 
ATOM      2  N   UNL     1      34.621 -22.608 -17.769  0.00  0.00    -0.166 NA
ATOM      3  N   UNL     1      36.744 -22.765 -16.574  0.00  0.00    -0.271 N 
ATOM      4  N   UNL     1      35.176 -23.723 -15.059  0.00  0.00    -0.322 NA
ATOM      5  N   UNL     1      33.669 -24.673 -13.539  0.00  0.00    -0.247 N 
ATOM      6  N   UNL     1      35.925 -24.548 -12.922  0.00  0.00    -0.170 NA
ATOM      7  C   UNL     1      35.412 -21.622 -19.653  0.00  0.00    +0.045 C 
ATOM      8  C   UNL     1      36.486 -21.807 -18.815  0.00  0.00    +0.048 C 
ATOM      9  C   UNL     1      35.940 -22.418 -17.672  0.00  0.00    +0.152 C 
ATOM     10  C   UNL     1      36.451 -23.376 -15.330  0.00  0.00    +0.199 C 
ATOM     11  C   UNL     1      37.502 -23.579 -14.459  0.00  0.00    +0.070 C 
ATOM     12  C   UNL     1      34.987 -24.297 -13.855  0.00  0.00    +0.150 C 
ATOM     13  C   UNL     1      37.177 -24.175 -13.258  0.00  0.00    +0.116 C 
ATOM     14  H   UNL     1      33.419 -22.107 -19.358  0.00  0.00    +0.174 HD
ATOM     15  H   UNL     1      37.695 -22.542 -16.693  0.00  0.00    +0.156 HD
ATOM     16  H   UNL     1      33.578 -25.087 -12.650  0.00  0.00    +0.165 HD
ENDROOT
BRANCH   5  20
ATOM     17  N   UNL     1      30.570 -22.651 -16.814  0.00  0.00    -0.315 N 
ATOM     18  N   UNL     1      28.944 -24.115 -16.423  0.00  0.00    -0.315 N 
ATOM     19  C   UNL     1      31.063 -23.497 -15.855  0.00  0.00    +0.060 C 
ATOM     20  C   UNL     1      32.450 -24.572 -14.248  0.00  0.00    +0.059 C 
ATOM     21  C   UNL     1      30.030 -24.401 -15.628  0.00  0.00    +0.059 C 
ATOM     22  C   UNL     1      32.287 -23.547 -15.186  0.00  0.00    +0.031 C 
ATOM     23  C   UNL     1      31.433 -25.494 -13.998  0.00  0.00    +0.017 C 
ATOM     24  C   UNL     1      30.212 -25.424 -14.681  0.00  0.00    +0.017 C 
ATOM     25  C   UNL     1      29.302 -23.060 -17.120  0.00  0.00    +0.182 C 
ATOM     26  H   UNL     1      31.044 -21.885 -17.212  0.00  0.00    +0.148 HD
ATOM     27  H   UNL     1      28.086 -24.595 -16.461  0.00  0.00    +0.148 HD
ENDBRANCH   5  20
BRANCH   7  28
ATOM     28  C   UNL     1      35.419 -20.999 -21.042  0.00  0.00    +0.037 C 
ATOM     29  C   UNL     1      36.126 -19.692 -21.242  0.00  0.00    +0.006 C 
ATOM     30  C   UNL     1      34.627 -19.746 -21.273  0.00  0.00    +0.006 C 
ENDBRANCH   7  28
TORSDOF 2
ENDMDL
MODEL 4
REMARK VINA RESULT:     -10.7      1.723      5.390
REMARK  Name = 42627755
REMARK  2 active torsions:
REMARK  status: ('A' for Active; 'I' for Inactive)
REMARK    1  A    between atoms: N_5  and  C_20
REMARK    2  A    between atoms: C_7  and  C_28
REMARK                            x       y       z     vdW  Elec       q    Type
REMARK                         _______ _______ _______ _____ _____    ______ ____
ROOT
ATOM      1  N   UNL     1      34.654 -21.689 -19.303  0.00  0.00    -0.239 N 
ATOM      2  N   UNL     1      35.047 -22.284 -18.164  0.00  0.00    -0.166 NA
ATOM      3  N   UNL     1      37.273 -22.601 -17.212  0.00  0.00    -0.271 N 
ATOM      4  N   UNL     1      35.830 -23.621 -15.616  0.00  0.00    -0.322 NA
ATOM      5  N   UNL     1      34.449 -24.636 -14.019  0.00  0.00    -0.247 N 
ATOM      6  N   UNL     1      36.759 -24.631 -13.634  0.00  0.00    -0.170 NA
ATOM      7  C   UNL     1      35.682 -21.183 -20.043  0.00  0.00    +0.045 C 
ATOM      8  C   UNL     1      36.827 -21.466 -19.338  0.00  0.00    +0.048 C 
ATOM      9  C   UNL     1      36.376 -22.145 -18.191  0.00  0.00    +0.152 C 
ATOM     10  C   UNL     1      37.084 -23.295 -15.992  0.00  0.00    +0.199 C 
ATOM     11  C   UNL     1      38.209 -23.598 -15.253  0.00  0.00    +0.070 C 
ATOM     12  C   UNL     1      35.742 -24.279 -14.443  0.00  0.00    +0.150 C 
ATOM     13  C   UNL     1      37.985 -24.275 -14.072  0.00  0.00    +0.116 C 
ATOM     14  H   UNL     1      33.711 -21.624 -19.578  0.00  0.00    +0.174 HD
ATOM     15  H   UNL     1      38.215 -22.401 -17.413  0.00  0.00    +0.156 HD
ATOM     16  H   UNL     1      34.432 -25.113 -13.159  0.00  0.00    +0.165 HD
ENDROOT
BRANCH   5  20
ATOM     17  N   UNL     1      29.646 -25.621 -14.634  0.00  0.00    -0.315 N 
ATOM     18  N   UNL     1      29.345 -24.020 -16.146  0.00  0.00    -0.315 N 
ATOM     19  C   UNL     1      30.870 -25.025 -14.783  0.00  0.00    +0.060 C 
ATOM     20  C   UNL     1      33.169 -24.441 -14.588  0.00  0.00    +0.059 C 
ATOM     21  C   UNL     1      30.657 -24.028 -15.732  0.00  0.00    +0.059 C 
ATOM     22  C   UNL     1      32.110 -25.263 -14.189  0.00  0.00    +0.031 C 
ATOM     23  C   UNL     1      32.986 -23.434 -15.537  0.00  0.00    +0.017 C 
ATOM     24  C   UNL     1      31.733 -23.212 -16.121  0.00  0.00    +0.017 C 
ATOM     25  C   UNL     1      28.768 -24.987 -15.469  0.00  0.00    +0.182 C 
ATOM     26  H   UNL     1      29.435 -26.372 -14.034  0.00  0.00    +0.148 HD
ATOM     27  H   UNL     1      28.929 -23.419 -16.806  0.00  0.00    +0.148 HD
ENDBRANCH   5  20
BRANCH   7  28
ATOM     28  C   UNL     1      35.572 -20.456 -21.376  0.00  0.00    +0.037 C 
ATOM     29  C   UNL     1      36.505 -19.314 -21.654  0.00  0.00    +0.006 C 
ATOM     30  C   UNL     1      35.052 -19.048 -21.388  0.00  0.00    +0.006 C 
ENDBRANCH   7  28
TORSDOF 2
ENDMDL
MODEL 5
REMARK VINA RESULT:     -10.5      6.410     10.972
REMARK  Name = 42627755
REMARK  2 active torsions:
REMARK  status: ('A' for Active; 'I' for Inactive)
REMARK    1  A    between atoms: N_5  and  C_20
REMARK    2  A    between atoms: C_7  and  C_28
REMARK                            x       y       z     vdW  Elec       q    Type
REMARK                         _______ _______ _______ _____ _____    ______ ____
ROOT
ATOM      1  N   UNL     1      32.991 -13.859 -20.563  0.00  0.00    -0.239 N 
ATOM      2  N   UNL     1      33.256 -14.227 -21.827  0.00  0.00    -0.166 NA
ATOM      3  N   UNL     1      32.789 -13.109 -23.947  0.00  0.00    -0.271 N 
ATOM      4  N   UNL     1      33.883 -15.119 -24.603  0.00  0.00    -0.322 NA
ATOM      5  N   UNL     1      34.955 -17.084 -25.294  0.00  0.00    -0.247 N 
ATOM      6  N   UNL     1      34.255 -15.573 -26.940  0.00  0.00    -0.170 NA
ATOM      7  C   UNL     1      32.353 -12.658 -20.459  0.00  0.00    +0.045 C 
ATOM      8  C   UNL     1      32.190 -12.209 -21.747  0.00  0.00    +0.048 C 
ATOM      9  C   UNL     1      32.763 -13.214 -22.547  0.00  0.00    +0.152 C 
ATOM     10  C   UNL     1      33.294 -13.960 -24.960  0.00  0.00    +0.199 C 
ATOM     11  C   UNL     1      33.151 -13.544 -26.268  0.00  0.00    +0.070 C 
ATOM     12  C   UNL     1      34.335 -15.867 -25.629  0.00  0.00    +0.150 C 
ATOM     13  C   UNL     1      33.654 -14.400 -27.226  0.00  0.00    +0.116 C 
ATOM     14  H   UNL     1      33.236 -14.407 -19.781  0.00  0.00    +0.174 HD
ATOM     15  H   UNL     1      32.377 -12.284 -24.290  0.00  0.00    +0.156 HD
ATOM     16  H   UNL     1      35.269 -17.596 -26.073  0.00  0.00    +0.165 HD
ENDROOT
BRANCH   5  20
ATOM     17  N   UNL     1      34.555 -20.717 -21.967  0.00  0.00    -0.315 N 
ATOM     18  N   UNL     1      35.865 -19.715 -20.477  0.00  0.00    -0.315 N 
ATOM     19  C   UNL     1      34.934 -19.535 -22.549  0.00  0.00    +0.060 C 
ATOM     20  C   UNL     1      35.216 -17.714 -24.055  0.00  0.00    +0.059 C 
ATOM     21  C   UNL     1      35.751 -18.928 -21.600  0.00  0.00    +0.059 C 
ATOM     22  C   UNL     1      34.642 -18.962 -23.787  0.00  0.00    +0.031 C 
ATOM     23  C   UNL     1      36.039 -17.081 -23.123  0.00  0.00    +0.017 C 
ATOM     24  C   UNL     1      36.319 -17.675 -21.886  0.00  0.00    +0.017 C 
ATOM     25  C   UNL     1      35.136 -20.778 -20.730  0.00  0.00    +0.182 C 
ATOM     26  H   UNL     1      33.969 -21.399 -22.367  0.00  0.00    +0.148 HD
ATOM     27  H   UNL     1      36.381 -19.523 -19.661  0.00  0.00    +0.148 HD
ENDBRANCH   5  20
BRANCH   7  28
ATOM     28  C   UNL     1      31.916 -11.966 -19.175  0.00  0.00    +0.037 C 
ATOM     29  C   UNL     1      30.914 -10.853 -19.261  0.00  0.00    +0.006 C 
ATOM     30  C   UNL     1      32.348 -10.549 -18.938  0.00  0.00    +0.006 C 
ENDBRANCH   7  28
TORSDOF 2
ENDMDL
MODEL 6
REMARK VINA RESULT:     -10.0      1.794      6.883
REMARK  Name = 42627755
REMARK  2 active torsions:
REMARK  status: ('A' for Active; 'I' for Inactive)
REMARK    1  A    between atoms: N_5  and  C_20
REMARK    2  A    between atoms: C_7  and  C_28
REMARK                            x       y       z     vdW  Elec       q    Type
REMARK                         _______ _______ _______ _____ _____    ______ ____
ROOT
ATOM      1  N   UNL     1      36.596 -24.217 -14.465  0.00  0.00    -0.239 N 
ATOM      2  N   UNL     1      36.009 -23.665 -15.540  0.00  0.00    -0.166 NA
ATOM      3  N   UNL     1      36.968 -22.574 -17.502  0.00  0.00    -0.271 N 
ATOM      4  N   UNL     1      34.622 -22.463 -17.891  0.00  0.00    -0.322 NA
ATOM      5  N   UNL     1      32.322 -22.331 -18.314  0.00  0.00    -0.247 N 
ATOM      6  N   UNL     1      33.788 -21.422 -19.898  0.00  0.00    -0.170 NA
ATOM      7  C   UNL     1      37.958 -24.149 -14.485  0.00  0.00    +0.045 C 
ATOM      8  C   UNL     1      38.284 -23.508 -15.656  0.00  0.00    +0.048 C 
ATOM      9  C   UNL     1      37.045 -23.233 -16.264  0.00  0.00    +0.152 C 
ATOM     10  C   UNL     1      35.873 -22.185 -18.311  0.00  0.00    +0.199 C 
ATOM     11  C   UNL     1      36.157 -21.539 -19.497  0.00  0.00    +0.070 C 
ATOM     12  C   UNL     1      33.641 -22.059 -18.721  0.00  0.00    +0.150 C 
ATOM     13  C   UNL     1      35.065 -21.176 -20.257  0.00  0.00    +0.116 C 
ATOM     14  H   UNL     1      36.090 -24.633 -13.730  0.00  0.00    +0.174 HD
ATOM     15  H   UNL     1      37.845 -22.337 -17.879  0.00  0.00    +0.156 HD
ATOM     16  H   UNL     1      31.639 -22.019 -18.951  0.00  0.00    +0.165 HD
ENDROOT
BRANCH   5  20
ATOM     17  N   UNL     1      32.568 -25.081 -14.216  0.00  0.00    -0.315 N 
ATOM     18  N   UNL     1      30.398 -24.901 -13.771  0.00  0.00    -0.315 N 
ATOM     19  C   UNL     1      32.051 -24.307 -15.222  0.00  0.00    +0.060 C 
ATOM     20  C   UNL     1      31.787 -22.966 -17.170  0.00  0.00    +0.059 C 
ATOM     21  C   UNL     1      30.696 -24.208 -14.922  0.00  0.00    +0.059 C 
ATOM     22  C   UNL     1      32.635 -23.702 -16.335  0.00  0.00    +0.031 C 
ATOM     23  C   UNL     1      30.423 -22.849 -16.896  0.00  0.00    +0.017 C 
ATOM     24  C   UNL     1      29.858 -23.465 -15.771  0.00  0.00    +0.017 C 
ATOM     25  C   UNL     1      31.541 -25.412 -13.374  0.00  0.00    +0.182 C 
ATOM     26  H   UNL     1      33.509 -25.352 -14.116  0.00  0.00    +0.148 HD
ATOM     27  H   UNL     1      29.518 -24.993 -13.338  0.00  0.00    +0.148 HD
ENDBRANCH   5  20
BRANCH   7  28
ATOM     28  C   UNL     1      38.912 -24.677 -13.423  0.00  0.00    +0.037 C 
ATOM     29  C   UNL     1      39.900 -25.740 -13.805  0.00  0.00    +0.006 C 
ATOM     30  C   UNL     1      38.732 -26.083 -12.927  0.00  0.00    +0.006 C 
ENDBRANCH   7  28
TORSDOF 2
ENDMDL
MODEL 7
REMARK VINA RESULT:      -9.5     12.461     16.056
REMARK  Name = 42627755
REMARK  2 active torsions:
REMARK  status: ('A' for Active; 'I' for Inactive)
REMARK    1  A    between atoms: N_5  and  C_20
REMARK    2  A    between atoms: C_7  and  C_28
REMARK                            x       y       z     vdW  Elec       q    Type
REMARK                         _______ _______ _______ _____ _____    ______ ____
ROOT
ATOM      1  N   UNL     1      33.861 -11.749 -24.804  0.00  0.00    -0.239 N 
ATOM      2  N   UNL     1      33.419 -11.327 -23.608  0.00  0.00    -0.166 NA
ATOM      3  N   UNL     1      32.679 -12.577 -21.645  0.00  0.00    -0.271 N 
ATOM      4  N   UNL     1      32.450 -10.302 -20.980  0.00  0.00    -0.322 NA
ATOM      5  N   UNL     1      32.210  -8.079 -20.283  0.00  0.00    -0.247 N 
ATOM      6  N   UNL     1      31.634  -9.775 -18.774  0.00  0.00    -0.170 NA
ATOM      7  C   UNL     1      33.896 -13.107 -24.931  0.00  0.00    +0.045 C 
ATOM      8  C   UNL     1      33.446 -13.607 -23.733  0.00  0.00    +0.048 C 
ATOM      9  C   UNL     1      33.166 -12.467 -22.958  0.00  0.00    +0.152 C 
ATOM     10  C   UNL     1      32.324 -11.610 -20.673  0.00  0.00    +0.199 C 
ATOM     11  C   UNL     1      31.868 -12.071 -19.456  0.00  0.00    +0.070 C 
ATOM     12  C   UNL     1      32.093  -9.451 -19.998  0.00  0.00    +0.150 C 
ATOM     13  C   UNL     1      31.533 -11.099 -18.535  0.00  0.00    +0.116 C 
ATOM     14  H   UNL     1      34.136 -11.135 -25.523  0.00  0.00    +0.174 HD
ATOM     15  H   UNL     1      32.559 -13.505 -21.344  0.00  0.00    +0.156 HD
ATOM     16  H   UNL     1      31.939  -7.496 -19.538  0.00  0.00    +0.165 HD
ENDROOT
BRANCH   5  20
ATOM     17  N   UNL     1      31.780  -4.713 -23.875  0.00  0.00    -0.315 N 
ATOM     18  N   UNL     1      33.745  -5.203 -24.791  0.00  0.00    -0.315 N 
ATOM     19  C   UNL     1      32.303  -5.716 -23.102  0.00  0.00    +0.060 C 
ATOM     20  C   UNL     1      32.643  -7.374 -21.430  0.00  0.00    +0.059 C 
ATOM     21  C   UNL     1      33.529  -6.006 -23.694  0.00  0.00    +0.059 C 
ATOM     22  C   UNL     1      31.824  -6.378 -21.971  0.00  0.00    +0.031 C 
ATOM     23  C   UNL     1      33.878  -7.687 -22.001  0.00  0.00    +0.017 C 
ATOM     24  C   UNL     1      34.339  -7.010 -23.137  0.00  0.00    +0.017 C 
ATOM     25  C   UNL     1      32.677  -4.441 -24.871  0.00  0.00    +0.182 C 
ATOM     26  H   UNL     1      30.913  -4.266 -23.738  0.00  0.00    +0.148 HD
ATOM     27  H   UNL     1      34.529  -5.200 -25.387  0.00  0.00    +0.148 HD
ENDBRANCH   5  20
BRANCH   7  28
ATOM     28  C   UNL     1      34.344 -13.896 -26.154  0.00  0.00    +0.037 C 
ATOM     29  C   UNL     1      33.571 -13.748 -27.431  0.00  0.00    +0.006 C 
ATOM     30  C   UNL     1      33.478 -15.021 -26.642  0.00  0.00    +0.006 C 
ENDBRANCH   7  28
TORSDOF 2
ENDMDL
MODEL 8
REMARK VINA RESULT:      -9.4      1.648      6.265
REMARK  Name = 42627755
REMARK  2 active torsions:
REMARK  status: ('A' for Active; 'I' for Inactive)
REMARK    1  A    between atoms: N_5  and  C_20
REMARK    2  A    between atoms: C_7  and  C_28
REMARK                            x       y       z     vdW  Elec       q    Type
REMARK                         _______ _______ _______ _____ _____    ______ ____
ROOT
ATOM      1  N   UNL     1      37.133 -23.886 -15.204  0.00  0.00    -0.239 N 
ATOM      2  N   UNL     1      35.809 -23.851 -15.424  0.00  0.00    -0.166 NA
ATOM      3  N   UNL     1      33.948 -24.754 -14.127  0.00  0.00    -0.271 N 
ATOM      4  N   UNL     1      32.883 -23.723 -15.990  0.00  0.00    -0.322 NA
ATOM      5  N   UNL     1      31.793 -22.721 -17.805  0.00  0.00    -0.247 N 
ATOM      6  N   UNL     1      30.481 -23.780 -16.181  0.00  0.00    -0.170 NA
ATOM      7  C   UNL     1      37.485 -24.542 -14.060  0.00  0.00    +0.045 C 
ATOM      8  C   UNL     1      36.307 -24.963 -13.493  0.00  0.00    +0.048 C 
ATOM      9  C   UNL     1      35.308 -24.511 -14.375  0.00  0.00    +0.152 C 
ATOM     10  C   UNL     1      32.771 -24.416 -14.838  0.00  0.00    +0.199 C 
ATOM     11  C   UNL     1      31.566 -24.821 -14.302  0.00  0.00    +0.070 C 
ATOM     12  C   UNL     1      31.715 -23.443 -16.601  0.00  0.00    +0.150 C 
ATOM     13  C   UNL     1      30.443 -24.473 -15.023  0.00  0.00    +0.116 C 
ATOM     14  H   UNL     1      37.791 -23.476 -15.812  0.00  0.00    +0.174 HD
ATOM     15  H   UNL     1      33.780 -25.258 -13.299  0.00  0.00    +0.156 HD
ATOM     16  H   UNL     1      30.917 -22.539 -18.215  0.00  0.00    +0.165 HD
ENDROOT
BRANCH   5  20
ATOM     17  N   UNL     1      36.589 -22.106 -18.828  0.00  0.00    -0.315 N 
ATOM     18  N   UNL     1      36.213 -20.786 -20.576  0.00  0.00    -0.315 N 
ATOM     19  C   UNL     1      35.226 -21.997 -18.917  0.00  0.00    +0.060 C 
ATOM     20  C   UNL     1      32.885 -22.205 -18.541  0.00  0.00    +0.059 C 
ATOM     21  C   UNL     1      35.016 -21.168 -20.015  0.00  0.00    +0.059 C 
ATOM     22  C   UNL     1      34.189 -22.535 -18.154  0.00  0.00    +0.031 C 
ATOM     23  C   UNL     1      32.643 -21.377 -19.638  0.00  0.00    +0.017 C 
ATOM     24  C   UNL     1      33.700 -20.848 -20.390  0.00  0.00    +0.017 C 
ATOM     25  C   UNL     1      37.134 -21.365 -19.840  0.00  0.00    +0.182 C 
ATOM     26  H   UNL     1      37.087 -22.624 -18.155  0.00  0.00    +0.148 HD
ATOM     27  H   UNL     1      36.349 -20.205 -21.359  0.00  0.00    +0.148 HD
ENDBRANCH   5  20
BRANCH   7  28
ATOM     28  C   UNL     1      38.896 -24.757 -13.531  0.00  0.00    +0.037 C 
ATOM     29  C   UNL     1      39.934 -25.324 -14.453  0.00  0.00    +0.006 C 
ATOM     30  C   UNL     1      39.386 -26.162 -13.335  0.00  0.00    +0.006 C 
ENDBRANCH   7  28
TORSDOF 2
ENDMDL
MODEL 9
REMARK VINA RESULT:      -9.0     12.228     15.116
REMARK  Name = 42627755
REMARK  2 active torsions:
REMARK  status: ('A' for Active; 'I' for Inactive)
REMARK    1  A    between atoms: N_5  and  C_20
REMARK    2  A    between atoms: C_7  and  C_28
REMARK                            x       y       z     vdW  Elec       q    Type
REMARK                         _______ _______ _______ _____ _____    ______ ____
ROOT
ATOM      1  N   UNL     1      32.844  -7.325 -23.462  0.00  0.00    -0.239 N 
ATOM      2  N   UNL     1      32.690  -8.430 -22.714  0.00  0.00    -0.166 NA
ATOM      3  N   UNL     1      31.983  -8.705 -20.393  0.00  0.00    -0.271 N 
ATOM      4  N   UNL     1      32.374 -10.936 -21.126  0.00  0.00    -0.322 NA
ATOM      5  N   UNL     1      32.746 -13.146 -21.805  0.00  0.00    -0.247 N 
ATOM      6  N   UNL     1      32.031 -12.774 -19.606  0.00  0.00    -0.170 NA
ATOM      7  C   UNL     1      32.554  -6.168 -22.801  0.00  0.00    +0.045 C 
ATOM      8  C   UNL     1      32.184  -6.543 -21.532  0.00  0.00    +0.048 C 
ATOM      9  C   UNL     1      32.288  -7.946 -21.535  0.00  0.00    +0.152 C 
ATOM     10  C   UNL     1      32.004 -10.097 -20.136  0.00  0.00    +0.199 C 
ATOM     11  C   UNL     1      31.639 -10.516 -18.874  0.00  0.00    +0.070 C 
ATOM     12  C   UNL     1      32.365 -12.242 -20.797  0.00  0.00    +0.150 C 
ATOM     13  C   UNL     1      31.672 -11.879 -18.663  0.00  0.00    +0.116 C 
ATOM     14  H   UNL     1      33.138  -7.348 -24.401  0.00  0.00    +0.174 HD
ATOM     15  H   UNL     1      31.702  -8.163 -19.621  0.00  0.00    +0.156 HD
ATOM     16  H   UNL     1      32.725 -14.088 -21.520  0.00  0.00    +0.165 HD
ENDROOT
BRANCH   5  20
ATOM     17  N   UNL     1      33.329 -14.531 -26.513  0.00  0.00    -0.315 N 
ATOM     18  N   UNL     1      34.282 -12.619 -27.126  0.00  0.00    -0.315 N 
ATOM     19  C   UNL     1      33.371 -13.763 -25.379  0.00  0.00    +0.060 C 
ATOM     20  C   UNL     1      33.153 -12.966 -23.147  0.00  0.00    +0.059 C 
ATOM     21  C   UNL     1      33.969 -12.575 -25.787  0.00  0.00    +0.059 C 
ATOM     22  C   UNL     1      32.949 -13.998 -24.069  0.00  0.00    +0.031 C 
ATOM     23  C   UNL     1      33.751 -11.762 -23.526  0.00  0.00    +0.017 C 
ATOM     24  C   UNL     1      34.166 -11.548 -24.847  0.00  0.00    +0.017 C 
ATOM     25  C   UNL     1      33.885 -13.805 -27.529  0.00  0.00    +0.182 C 
ATOM     26  H   UNL     1      32.964 -15.443 -26.583  0.00  0.00    +0.148 HD
ATOM     27  H   UNL     1      34.709 -11.915 -27.665  0.00  0.00    +0.148 HD
ENDBRANCH   5  20
BRANCH   7  28
ATOM     28  C   UNL     1      32.629  -4.755 -23.363  0.00  0.00    +0.037 C 
ATOM     29  C   UNL     1      31.352  -4.052 -23.720  0.00  0.00    +0.006 C 
ATOM     30  C   UNL     1      32.273  -4.533 -24.804  0.00  0.00    +0.006 C 
ENDBRANCH   7  28
TORSDOF 2
ENDMDL
