MODEL 1
REMARK VINA RESULT:     -12.4      0.000      0.000
REMARK  Name = 446805
REMARK  6 active torsions:
REMARK  status: ('A' for Active; 'I' for Inactive)
REMARK    1  A    between atoms: C_4  and  C_22
REMARK    2  A    between atoms: C_7  and  N_11
REMARK    3  A    between atoms: N_11  and  S_13
REMARK    4  A    between atoms: S_13  and  C_16
REMARK    5  A    between atoms: C_22  and  C_23
REMARK    6  A    between atoms: C_28  and  C_31
REMARK                            x       y       z     vdW  Elec       q    Type
REMARK                         _______ _______ _______ _____ _____    ______ ____
ROOT
ATOM      1  N   UNL     1      33.841 -14.395 -25.656  0.00  0.00    -0.262 N 
ATOM      2  N   UNL     1      34.906 -14.121 -23.725  0.00  0.00    -0.394 NA
ATOM      3  C   UNL     1      34.250 -15.650 -25.283  0.00  0.00    +0.079 C 
ATOM      4  C   UNL     1      34.256 -13.518 -24.695  0.00  0.00    +0.168 C 
ATOM      5  C   UNL     1      34.911 -15.453 -24.074  0.00  0.00    +0.129 C 
ATOM      6  C   UNL     1      35.464 -16.559 -23.407  0.00  0.00    +0.103 C 
ATOM      7  C   UNL     1      35.328 -17.826 -23.988  0.00  0.00    +0.050 C 
ATOM      8  C   UNL     1      34.100 -16.902 -25.879  0.00  0.00    +0.018 C 
ATOM      9  C   UNL     1      33.104 -14.065 -26.855  0.00  0.00    +0.119 C 
ATOM     10  C   UNL     1      34.657 -17.993 -25.202  0.00  0.00    +0.013 C 
ENDROOT
BRANCH   7  11
ATOM     11  N   UNL     1      35.883 -18.964 -23.328  0.00  0.00    -0.219 N 
ATOM     12  H   UNL     1      35.982 -19.830 -23.786  0.00  0.00    +0.173 HD
BRANCH  11  13
ATOM     13  S   UNL     1      36.378 -18.746 -21.677  0.00  0.00    +0.073 S 
ATOM     14  O   UNL     1      35.826 -17.504 -21.171  0.00  0.00    -0.150 OA
ATOM     15  O   UNL     1      37.799 -19.019 -21.565  0.00  0.00    -0.150 OA
BRANCH  13  16
ATOM     16  C   UNL     1      35.536 -20.075 -20.870  0.00  0.00    +0.125 C 
ATOM     17  C   UNL     1      36.273 -21.007 -20.160  0.00  0.00    +0.020 C 
ATOM     18  C   UNL     1      34.159 -20.157 -20.964  0.00  0.00    +0.020 C 
ATOM     19  C   UNL     1      35.609 -22.055 -19.522  0.00  0.00    +0.001 C 
ATOM     20  C   UNL     1      33.494 -21.205 -20.327  0.00  0.00    +0.001 C 
ATOM     21  C   UNL     1      34.219 -22.155 -19.606  0.00  0.00    +0.000 C 
ENDBRANCH  13  16
ENDBRANCH  11  13
ENDBRANCH   7  11
BRANCH   4  22
ATOM     22  C   UNL     1      33.982 -12.068 -24.782  0.00  0.00    +0.101 C 
BRANCH  22  23
ATOM     23  C   UNL     1      33.345 -11.484 -23.528  0.00  0.00    -0.014 C 
ATOM     24  C   UNL     1      33.313 -10.114 -23.372  0.00  0.00    -0.004 C 
ATOM     25  C   UNL     1      32.819 -12.345 -22.586  0.00  0.00    -0.004 C 
ATOM     26  C   UNL     1      32.729  -9.579 -22.223  0.00  0.00    +0.002 C 
ATOM     27  C   UNL     1      32.236 -11.810 -21.437  0.00  0.00    +0.002 C 
ATOM     28  C   UNL     1      32.191 -10.428 -21.256  0.00  0.00    +0.031 C 
BRANCH  28  31
ATOM     29  N   UNL     1      31.913  -8.595 -19.604  0.00  0.00    -0.343 N 
ATOM     30  N   UNL     1      30.702 -10.581 -19.376  0.00  0.00    -0.285 NA
ATOM     31  C   UNL     1      31.584  -9.871 -20.058  0.00  0.00    +0.117 C 
ATOM     32  H   UNL     1      31.489  -8.238 -18.790  0.00  0.00    +0.144 HD
ATOM     33  H   UNL     1      32.569  -8.051 -20.096  0.00  0.00    +0.144 HD
ATOM     34  H   UNL     1      30.290 -10.206 -18.565  0.00  0.00    +0.188 HD
ENDBRANCH  28  31
ENDBRANCH  22  23
ENDBRANCH   4  22
TORSDOF 6
ENDMDL
MODEL 2
REMARK VINA RESULT:     -12.4      5.015     10.211
REMARK  Name = 446805
REMARK  6 active torsions:
REMARK  status: ('A' for Active; 'I' for Inactive)
REMARK    1  A    between atoms: C_4  and  C_22
REMARK    2  A    between atoms: C_7  and  N_11
REMARK    3  A    between atoms: N_11  and  S_13
REMARK    4  A    between atoms: S_13  and  C_16
REMARK    5  A    between atoms: C_22  and  C_23
REMARK    6  A    between atoms: C_28  and  C_31
REMARK                            x       y       z     vdW  Elec       q    Type
REMARK                         _______ _______ _______ _____ _____    ______ ____
ROOT
ATOM      1  N   UNL     1      34.220 -23.004 -17.355  0.00  0.00    -0.262 N 
ATOM      2  N   UNL     1      32.398 -22.434 -18.494  0.00  0.00    -0.394 NA
ATOM      3  C   UNL     1      34.673 -22.313 -18.449  0.00  0.00    +0.079 C 
ATOM      4  C   UNL     1      32.856 -23.050 -17.427  0.00  0.00    +0.168 C 
ATOM      5  C   UNL     1      33.518 -21.967 -19.143  0.00  0.00    +0.129 C 
ATOM      6  C   UNL     1      33.629 -21.236 -20.338  0.00  0.00    +0.103 C 
ATOM      7  C   UNL     1      34.907 -20.881 -20.787  0.00  0.00    +0.050 C 
ATOM      8  C   UNL     1      35.956 -21.968 -18.877  0.00  0.00    +0.018 C 
ATOM      9  C   UNL     1      35.042 -23.581 -16.316  0.00  0.00    +0.119 C 
ATOM     10  C   UNL     1      36.049 -21.241 -20.068  0.00  0.00    +0.013 C 
ENDROOT
BRANCH   7  11
ATOM     11  N   UNL     1      35.043 -20.138 -22.000  0.00  0.00    -0.219 N 
ATOM     12  H   UNL     1      34.618 -20.434 -22.838  0.00  0.00    +0.173 HD
BRANCH  11  13
ATOM     13  S   UNL     1      35.995 -18.686 -21.925  0.00  0.00    +0.073 S 
ATOM     14  O   UNL     1      37.390 -19.016 -22.140  0.00  0.00    -0.150 OA
ATOM     15  O   UNL     1      35.592 -17.912 -20.766  0.00  0.00    -0.150 OA
BRANCH  13  16
ATOM     16  C   UNL     1      35.424 -17.808 -23.351  0.00  0.00    +0.125 C 
ATOM     17  C   UNL     1      34.873 -18.518 -24.403  0.00  0.00    +0.020 C 
ATOM     18  C   UNL     1      35.541 -16.431 -23.385  0.00  0.00    +0.020 C 
ATOM     19  C   UNL     1      34.423 -17.825 -25.527  0.00  0.00    +0.001 C 
ATOM     20  C   UNL     1      35.090 -15.738 -24.509  0.00  0.00    +0.001 C 
ATOM     21  C   UNL     1      34.531 -16.435 -25.580  0.00  0.00    +0.000 C 
ENDBRANCH  13  16
ENDBRANCH  11  13
ENDBRANCH   7  11
BRANCH   4  22
ATOM     22  C   UNL     1      32.037 -23.726 -16.399  0.00  0.00    +0.101 C 
BRANCH  22  23
ATOM     23  C   UNL     1      30.576 -23.296 -16.393  0.00  0.00    -0.014 C 
ATOM     24  C   UNL     1      29.747 -23.737 -17.403  0.00  0.00    -0.004 C 
ATOM     25  C   UNL     1      30.127 -22.477 -15.377  0.00  0.00    -0.004 C 
ATOM     26  C   UNL     1      28.409 -23.343 -17.398  0.00  0.00    +0.002 C 
ATOM     27  C   UNL     1      28.790 -22.083 -15.371  0.00  0.00    +0.002 C 
ATOM     28  C   UNL     1      27.931 -22.516 -16.382  0.00  0.00    +0.031 C 
BRANCH  28  31
ATOM     29  N   UNL     1      25.974 -21.430 -17.459  0.00  0.00    -0.343 N 
ATOM     30  N   UNL     1      25.776 -22.366 -15.327  0.00  0.00    -0.285 NA
ATOM     31  C   UNL     1      26.536 -22.104 -16.376  0.00  0.00    +0.117 C 
ATOM     32  H   UNL     1      25.028 -21.160 -17.433  0.00  0.00    +0.144 HD
ATOM     33  H   UNL     1      26.524 -21.223 -18.249  0.00  0.00    +0.144 HD
ATOM     34  H   UNL     1      24.832 -22.088 -15.320  0.00  0.00    +0.188 HD
ENDBRANCH  28  31
ENDBRANCH  22  23
ENDBRANCH   4  22
TORSDOF 6
ENDMDL
MODEL 3
REMARK VINA RESULT:     -12.4      1.477      2.160
REMARK  Name = 446805
REMARK  6 active torsions:
REMARK  status: ('A' for Active; 'I' for Inactive)
REMARK    1  A    between atoms: C_4  and  C_22
REMARK    2  A    between atoms: C_7  and  N_11
REMARK    3  A    between atoms: N_11  and  S_13
REMARK    4  A    between atoms: S_13  and  C_16
REMARK    5  A    between atoms: C_22  and  C_23
REMARK    6  A    between atoms: C_28  and  C_31
REMARK                            x       y       z     vdW  Elec       q    Type
REMARK                         _______ _______ _______ _____ _____    ______ ____
ROOT
ATOM      1  N   UNL     1      34.123 -13.840 -25.385  0.00  0.00    -0.262 N 
ATOM      2  N   UNL     1      34.492 -12.955 -23.380  0.00  0.00    -0.394 NA
ATOM      3  C   UNL     1      34.477 -14.892 -24.580  0.00  0.00    +0.079 C 
ATOM      4  C   UNL     1      34.147 -12.706 -24.623  0.00  0.00    +0.168 C 
ATOM      5  C   UNL     1      34.701 -14.314 -23.334  0.00  0.00    +0.129 C 
ATOM      6  C   UNL     1      35.087 -15.132 -22.258  0.00  0.00    +0.103 C 
ATOM      7  C   UNL     1      35.232 -16.507 -22.483  0.00  0.00    +0.050 C 
ATOM      8  C   UNL     1      34.613 -16.259 -24.826  0.00  0.00    +0.018 C 
ATOM      9  C   UNL     1      33.787 -13.921 -26.789  0.00  0.00    +0.119 C 
ATOM     10  C   UNL     1      34.998 -17.058 -23.745  0.00  0.00    +0.013 C 
ENDROOT
BRANCH   7  11
ATOM     11  N   UNL     1      35.624 -17.357 -21.404  0.00  0.00    -0.219 N 
ATOM     12  H   UNL     1      35.420 -17.130 -20.467  0.00  0.00    +0.173 HD
BRANCH  11  13
ATOM     13  S   UNL     1      36.475 -18.811 -21.825  0.00  0.00    +0.073 S 
ATOM     14  O   UNL     1      37.801 -18.777 -21.239  0.00  0.00    -0.150 OA
ATOM     15  O   UNL     1      36.304 -19.071 -23.242  0.00  0.00    -0.150 OA
BRANCH  13  16
ATOM     16  C   UNL     1      35.539 -20.039 -20.962  0.00  0.00    +0.125 C 
ATOM     17  C   UNL     1      34.158 -20.019 -21.051  0.00  0.00    +0.020 C 
ATOM     18  C   UNL     1      36.205 -20.994 -20.216  0.00  0.00    +0.020 C 
ATOM     19  C   UNL     1      33.420 -20.988 -20.371  0.00  0.00    +0.001 C 
ATOM     20  C   UNL     1      35.467 -21.963 -19.536  0.00  0.00    +0.001 C 
ATOM     21  C   UNL     1      34.074 -21.960 -19.613  0.00  0.00    +0.000 C 
ENDBRANCH  13  16
ENDBRANCH  11  13
ENDBRANCH   7  11
BRANCH   4  22
ATOM     22  C   UNL     1      33.816 -11.378 -25.181  0.00  0.00    +0.101 C 
BRANCH  22  23
ATOM     23  C   UNL     1      33.588 -10.304 -24.124  0.00  0.00    -0.014 C 
ATOM     24  C   UNL     1      32.549 -10.458 -23.231  0.00  0.00    -0.004 C 
ATOM     25  C   UNL     1      34.430  -9.211 -24.094  0.00  0.00    -0.004 C 
ATOM     26  C   UNL     1      32.341  -9.475 -22.263  0.00  0.00    +0.002 C 
ATOM     27  C   UNL     1      34.222  -8.228 -23.127  0.00  0.00    +0.002 C 
ATOM     28  C   UNL     1      33.177  -8.360 -22.211  0.00  0.00    +0.031 C 
BRANCH  28  31
ATOM     29  N   UNL     1      32.158  -6.225 -21.459  0.00  0.00    -0.343 N 
ATOM     30  N   UNL     1      33.533  -7.446 -20.017  0.00  0.00    -0.285 NA
ATOM     31  C   UNL     1      32.960  -7.335 -21.203  0.00  0.00    +0.117 C 
ATOM     32  H   UNL     1      32.025  -5.542 -20.762  0.00  0.00    +0.144 HD
ATOM     33  H   UNL     1      31.724  -6.122 -22.337  0.00  0.00    +0.144 HD
ATOM     34  H   UNL     1      33.388  -6.753 -19.333  0.00  0.00    +0.188 HD
ENDBRANCH  28  31
ENDBRANCH  22  23
ENDBRANCH   4  22
TORSDOF 6
ENDMDL
MODEL 4
REMARK VINA RESULT:     -12.4      3.518      9.510
REMARK  Name = 446805
REMARK  6 active torsions:
REMARK  status: ('A' for Active; 'I' for Inactive)
REMARK    1  A    between atoms: C_4  and  C_22
REMARK    2  A    between atoms: C_7  and  N_11
REMARK    3  A    between atoms: N_11  and  S_13
REMARK    4  A    between atoms: S_13  and  C_16
REMARK    5  A    between atoms: C_22  and  C_23
REMARK    6  A    between atoms: C_28  and  C_31
REMARK                            x       y       z     vdW  Elec       q    Type
REMARK                         _______ _______ _______ _____ _____    ______ ____
ROOT
ATOM      1  N   UNL     1      35.183 -16.427 -23.217  0.00  0.00    -0.262 N 
ATOM      2  N   UNL     1      35.161 -16.556 -20.999  0.00  0.00    -0.394 NA
ATOM      3  C   UNL     1      34.569 -15.278 -22.790  0.00  0.00    +0.079 C 
ATOM      4  C   UNL     1      35.518 -17.157 -22.112  0.00  0.00    +0.168 C 
ATOM      5  C   UNL     1      34.568 -15.381 -21.402  0.00  0.00    +0.129 C 
ATOM      6  C   UNL     1      34.001 -14.347 -20.638  0.00  0.00    +0.103 C 
ATOM      7  C   UNL     1      33.455 -13.245 -21.307  0.00  0.00    +0.050 C 
ATOM      8  C   UNL     1      34.032 -14.189 -23.478  0.00  0.00    +0.018 C 
ATOM      9  C   UNL     1      35.429 -16.797 -24.593  0.00  0.00    +0.119 C 
ATOM     10  C   UNL     1      33.472 -13.169 -22.702  0.00  0.00    +0.013 C 
ENDROOT
BRANCH   7  11
ATOM     11  N   UNL     1      32.873 -12.183 -20.550  0.00  0.00    -0.219 N 
ATOM     12  H   UNL     1      33.201 -11.947 -19.652  0.00  0.00    +0.173 HD
BRANCH  11  13
ATOM     13  S   UNL     1      31.557 -11.324 -21.292  0.00  0.00    +0.073 S 
ATOM     14  O   UNL     1      30.512 -11.108 -20.311  0.00  0.00    -0.150 OA
ATOM     15  O   UNL     1      31.251 -11.936 -22.572  0.00  0.00    -0.150 OA
BRANCH  13  16
ATOM     16  C   UNL     1      32.300  -9.757 -21.639  0.00  0.00    +0.125 C 
ATOM     17  C   UNL     1      32.413  -8.825 -20.622  0.00  0.00    +0.020 C 
ATOM     18  C   UNL     1      32.755  -9.495 -22.919  0.00  0.00    +0.020 C 
ATOM     19  C   UNL     1      33.000  -7.590 -20.895  0.00  0.00    +0.001 C 
ATOM     20  C   UNL     1      33.342  -8.259 -23.192  0.00  0.00    +0.001 C 
ATOM     21  C   UNL     1      33.464  -7.306 -22.181  0.00  0.00    +0.000 C 
ENDBRANCH  13  16
ENDBRANCH  11  13
ENDBRANCH   7  11
BRANCH   4  22
ATOM     22  C   UNL     1      36.200 -18.464 -22.210  0.00  0.00    +0.101 C 
BRANCH  22  23
ATOM     23  C   UNL     1      35.521 -19.575 -21.419  0.00  0.00    -0.014 C 
ATOM     24  C   UNL     1      34.154 -19.726 -21.521  0.00  0.00    -0.004 C 
ATOM     25  C   UNL     1      36.296 -20.396 -20.625  0.00  0.00    -0.004 C 
ATOM     26  C   UNL     1      33.532 -20.744 -20.797  0.00  0.00    +0.002 C 
ATOM     27  C   UNL     1      35.674 -21.413 -19.900  0.00  0.00    +0.002 C 
ATOM     28  C   UNL     1      34.293 -21.586 -19.987  0.00  0.00    +0.031 C 
BRANCH  28  31
ATOM     29  N   UNL     1      32.579 -22.379 -18.374  0.00  0.00    -0.343 N 
ATOM     30  N   UNL     1      34.069 -23.893 -19.348  0.00  0.00    -0.285 NA
ATOM     31  C   UNL     1      33.644 -22.647 -19.231  0.00  0.00    +0.117 C 
ATOM     32  H   UNL     1      32.155 -23.113 -17.872  0.00  0.00    +0.144 HD
ATOM     33  H   UNL     1      32.249 -21.457 -18.270  0.00  0.00    +0.144 HD
ATOM     34  H   UNL     1      33.632 -24.612 -18.838  0.00  0.00    +0.188 HD
ENDBRANCH  28  31
ENDBRANCH  22  23
ENDBRANCH   4  22
TORSDOF 6
ENDMDL
MODEL 5
REMARK VINA RESULT:     -12.3      7.201     11.101
REMARK  Name = 446805
REMARK  6 active torsions:
REMARK  status: ('A' for Active; 'I' for Inactive)
REMARK    1  A    between atoms: C_4  and  C_22
REMARK    2  A    between atoms: C_7  and  N_11
REMARK    3  A    between atoms: N_11  and  S_13
REMARK    4  A    between atoms: S_13  and  C_16
REMARK    5  A    between atoms: C_22  and  C_23
REMARK    6  A    between atoms: C_28  and  C_31
REMARK                            x       y       z     vdW  Elec       q    Type
REMARK                         _______ _______ _______ _____ _____    ______ ____
ROOT
ATOM      1  N   UNL     1      32.471 -23.124 -16.768  0.00  0.00    -0.262 N 
ATOM      2  N   UNL     1      34.520 -23.639 -17.457  0.00  0.00    -0.394 NA
ATOM      3  C   UNL     1      33.108 -23.640 -15.669  0.00  0.00    +0.079 C 
ATOM      4  C   UNL     1      33.355 -23.145 -17.810  0.00  0.00    +0.168 C 
ATOM      5  C   UNL     1      34.386 -23.952 -16.124  0.00  0.00    +0.129 C 
ATOM      6  C   UNL     1      35.315 -24.511 -15.230  0.00  0.00    +0.103 C 
ATOM      7  C   UNL     1      34.916 -24.733 -13.906  0.00  0.00    +0.050 C 
ATOM      8  C   UNL     1      32.690 -23.851 -14.354  0.00  0.00    +0.018 C 
ATOM      9  C   UNL     1      31.107 -22.647 -16.812  0.00  0.00    +0.119 C 
ATOM     10  C   UNL     1      33.627 -24.407 -13.477  0.00  0.00    +0.013 C 
ENDROOT
BRANCH   7  11
ATOM     11  N   UNL     1      35.844 -25.301 -12.979  0.00  0.00    -0.219 N 
ATOM     12  H   UNL     1      35.741 -26.221 -12.643  0.00  0.00    +0.173 HD
BRANCH  11  13
ATOM     13  S   UNL     1      37.165 -24.290 -12.477  0.00  0.00    +0.073 S 
ATOM     14  O   UNL     1      37.610 -24.702 -11.160  0.00  0.00    -0.150 OA
ATOM     15  O   UNL     1      36.830 -22.903 -12.741  0.00  0.00    -0.150 OA
BRANCH  13  16
ATOM     16  C   UNL     1      38.424 -24.742 -13.635  0.00  0.00    +0.125 C 
ATOM     17  C   UNL     1      38.483 -24.091 -14.855  0.00  0.00    +0.020 C 
ATOM     18  C   UNL     1      39.324 -25.736 -13.298  0.00  0.00    +0.020 C 
ATOM     19  C   UNL     1      39.476 -24.447 -15.767  0.00  0.00    +0.001 C 
ATOM     20  C   UNL     1      40.318 -26.092 -14.210  0.00  0.00    +0.001 C 
ATOM     21  C   UNL     1      40.394 -25.448 -15.445  0.00  0.00    +0.000 C 
ENDBRANCH  13  16
ENDBRANCH  11  13
ENDBRANCH   7  11
BRANCH   4  22
ATOM     22  C   UNL     1      32.993 -22.658 -19.157  0.00  0.00    +0.101 C 
BRANCH  22  23
ATOM     23  C   UNL     1      34.023 -21.717 -19.771  0.00  0.00    -0.014 C 
ATOM     24  C   UNL     1      35.359 -21.923 -19.497  0.00  0.00    -0.004 C 
ATOM     25  C   UNL     1      33.586 -20.689 -20.580  0.00  0.00    -0.004 C 
ATOM     26  C   UNL     1      36.302 -21.061 -20.059  0.00  0.00    +0.002 C 
ATOM     27  C   UNL     1      34.529 -19.827 -21.141  0.00  0.00    +0.002 C 
ATOM     28  C   UNL     1      35.886 -20.014 -20.881  0.00  0.00    +0.031 C 
BRANCH  28  31
ATOM     29  N   UNL     1      36.775 -18.703 -22.794  0.00  0.00    -0.343 N 
ATOM     30  N   UNL     1      37.878 -18.677 -20.734  0.00  0.00    -0.285 NA
ATOM     31  C   UNL     1      36.869 -19.116 -21.466  0.00  0.00    +0.117 C 
ATOM     32  H   UNL     1      37.452 -18.094 -23.169  0.00  0.00    +0.144 HD
ATOM     33  H   UNL     1      36.032 -19.020 -23.356  0.00  0.00    +0.144 HD
ATOM     34  H   UNL     1      38.545 -18.069 -21.127  0.00  0.00    +0.188 HD
ENDBRANCH  28  31
ENDBRANCH  22  23
ENDBRANCH   4  22
TORSDOF 6
ENDMDL
MODEL 6
REMARK VINA RESULT:     -12.3      4.657     11.507
REMARK  Name = 446805
REMARK  6 active torsions:
REMARK  status: ('A' for Active; 'I' for Inactive)
REMARK    1  A    between atoms: C_4  and  C_22
REMARK    2  A    between atoms: C_7  and  N_11
REMARK    3  A    between atoms: N_11  and  S_13
REMARK    4  A    between atoms: S_13  and  C_16
REMARK    5  A    between atoms: C_22  and  C_23
REMARK    6  A    between atoms: C_28  and  C_31
REMARK                            x       y       z     vdW  Elec       q    Type
REMARK                         _______ _______ _______ _____ _____    ______ ____
ROOT
ATOM      1  N   UNL     1      33.384 -22.559 -17.850  0.00  0.00    -0.262 N 
ATOM      2  N   UNL     1      35.583 -22.725 -18.124  0.00  0.00    -0.394 NA
ATOM      3  C   UNL     1      33.660 -21.880 -19.009  0.00  0.00    +0.079 C 
ATOM      4  C   UNL     1      34.564 -23.045 -17.360  0.00  0.00    +0.168 C 
ATOM      5  C   UNL     1      35.039 -21.998 -19.159  0.00  0.00    +0.129 C 
ATOM      6  C   UNL     1      35.662 -21.403 -20.269  0.00  0.00    +0.103 C 
ATOM      7  C   UNL     1      34.865 -20.709 -21.188  0.00  0.00    +0.050 C 
ATOM      8  C   UNL     1      32.848 -21.194 -19.912  0.00  0.00    +0.018 C 
ATOM      9  C   UNL     1      32.077 -22.727 -17.256  0.00  0.00    +0.119 C 
ATOM     10  C   UNL     1      33.483 -20.608 -21.012  0.00  0.00    +0.013 C 
ENDROOT
BRANCH   7  11
ATOM     11  N   UNL     1      35.477 -20.095 -22.324  0.00  0.00    -0.219 N 
ATOM     12  H   UNL     1      35.501 -20.541 -23.202  0.00  0.00    +0.173 HD
BRANCH  11  13
ATOM     13  S   UNL     1      36.173 -18.522 -22.082  0.00  0.00    +0.073 S 
ATOM     14  O   UNL     1      37.607 -18.597 -22.282  0.00  0.00    -0.150 OA
ATOM     15  O   UNL     1      35.629 -17.941 -20.869  0.00  0.00    -0.150 OA
BRANCH  13  16
ATOM     16  C   UNL     1      35.489 -17.613 -23.436  0.00  0.00    +0.125 C 
ATOM     17  C   UNL     1      34.965 -18.304 -24.515  0.00  0.00    +0.020 C 
ATOM     18  C   UNL     1      35.492 -16.231 -23.391  0.00  0.00    +0.020 C 
ATOM     19  C   UNL     1      34.425 -17.587 -25.583  0.00  0.00    +0.001 C 
ATOM     20  C   UNL     1      34.951 -15.514 -24.459  0.00  0.00    +0.001 C 
ATOM     21  C   UNL     1      34.418 -16.192 -25.555  0.00  0.00    +0.000 C 
ENDBRANCH  13  16
ENDBRANCH  11  13
ENDBRANCH   7  11
BRANCH   4  22
ATOM     22  C   UNL     1      34.631 -23.832 -16.111  0.00  0.00    +0.101 C 
BRANCH  22  23
ATOM     23  C   UNL     1      36.040 -24.274 -15.735  0.00  0.00    -0.014 C 
ATOM     24  C   UNL     1      36.261 -25.598 -15.419  0.00  0.00    -0.004 C 
ATOM     25  C   UNL     1      37.051 -23.334 -15.723  0.00  0.00    -0.004 C 
ATOM     26  C   UNL     1      37.552 -26.002 -15.076  0.00  0.00    +0.002 C 
ATOM     27  C   UNL     1      38.341 -23.738 -15.379  0.00  0.00    +0.002 C 
ATOM     28  C   UNL     1      38.591 -25.072 -15.055  0.00  0.00    +0.031 C 
BRANCH  28  31
ATOM     29  N   UNL     1      40.154 -26.500 -13.758  0.00  0.00    -0.343 N 
ATOM     30  N   UNL     1      40.980 -24.914 -15.262  0.00  0.00    -0.285 NA
ATOM     31  C   UNL     1      39.936 -25.493 -14.696  0.00  0.00    +0.117 C 
ATOM     32  H   UNL     1      41.073 -26.769 -13.530  0.00  0.00    +0.144 HD
ATOM     33  H   UNL     1      39.390 -26.943 -13.323  0.00  0.00    +0.144 HD
ATOM     34  H   UNL     1      41.891 -25.197 -15.021  0.00  0.00    +0.188 HD
ENDBRANCH  28  31
ENDBRANCH  22  23
ENDBRANCH   4  22
TORSDOF 6
ENDMDL
MODEL 7
REMARK VINA RESULT:     -12.2      3.483      5.963
REMARK  Name = 446805
REMARK  6 active torsions:
REMARK  status: ('A' for Active; 'I' for Inactive)
REMARK    1  A    between atoms: C_4  and  C_22
REMARK    2  A    between atoms: C_7  and  N_11
REMARK    3  A    between atoms: N_11  and  S_13
REMARK    4  A    between atoms: S_13  and  C_16
REMARK    5  A    between atoms: C_22  and  C_23
REMARK    6  A    between atoms: C_28  and  C_31
REMARK                            x       y       z     vdW  Elec       q    Type
REMARK                         _______ _______ _______ _____ _____    ______ ____
ROOT
ATOM      1  N   UNL     1      36.146 -19.137 -22.523  0.00  0.00    -0.262 N 
ATOM      2  N   UNL     1      33.966 -19.212 -22.948  0.00  0.00    -0.394 NA
ATOM      3  C   UNL     1      35.606 -19.915 -21.532  0.00  0.00    +0.079 C 
ATOM      4  C   UNL     1      35.127 -18.741 -23.344  0.00  0.00    +0.168 C 
ATOM      5  C   UNL     1      34.245 -19.949 -21.820  0.00  0.00    +0.129 C 
ATOM      6  C   UNL     1      33.384 -20.677 -20.981  0.00  0.00    +0.103 C 
ATOM      7  C   UNL     1      33.933 -21.346 -19.880  0.00  0.00    +0.050 C 
ATOM      8  C   UNL     1      36.175 -20.576 -20.442  0.00  0.00    +0.018 C 
ATOM      9  C   UNL     1      37.543 -18.797 -22.669  0.00  0.00    +0.119 C 
ATOM     10  C   UNL     1      35.304 -21.296 -19.617  0.00  0.00    +0.013 C 
ENDROOT
BRANCH   7  11
ATOM     11  N   UNL     1      33.076 -22.092 -19.013  0.00  0.00    -0.219 N 
ATOM     12  H   UNL     1      32.104 -21.934 -18.987  0.00  0.00    +0.173 HD
BRANCH  11  13
ATOM     13  S   UNL     1      33.833 -23.291 -18.010  0.00  0.00    +0.073 S 
ATOM     14  O   UNL     1      35.104 -22.784 -17.532  0.00  0.00    -0.150 OA
ATOM     15  O   UNL     1      33.757 -24.581 -18.670  0.00  0.00    -0.150 OA
BRANCH  13  16
ATOM     16  C   UNL     1      32.727 -23.355 -16.631  0.00  0.00    +0.125 C 
ATOM     17  C   UNL     1      31.404 -22.991 -16.811  0.00  0.00    +0.020 C 
ATOM     18  C   UNL     1      33.207 -23.767 -15.401  0.00  0.00    +0.020 C 
ATOM     19  C   UNL     1      30.532 -23.043 -15.723  0.00  0.00    +0.001 C 
ATOM     20  C   UNL     1      32.335 -23.819 -14.313  0.00  0.00    +0.001 C 
ATOM     21  C   UNL     1      30.997 -23.456 -14.474  0.00  0.00    +0.000 C 
ENDBRANCH  13  16
ENDBRANCH  11  13
ENDBRANCH   7  11
BRANCH   4  22
ATOM     22  C   UNL     1      35.357 -17.883 -24.525  0.00  0.00    +0.101 C 
BRANCH  22  23
ATOM     23  C   UNL     1      34.954 -16.429 -24.318  0.00  0.00    -0.014 C 
ATOM     24  C   UNL     1      35.263 -15.815 -23.122  0.00  0.00    -0.004 C 
ATOM     25  C   UNL     1      34.292 -15.770 -25.334  0.00  0.00    -0.004 C 
ATOM     26  C   UNL     1      34.894 -14.483 -22.933  0.00  0.00    +0.002 C 
ATOM     27  C   UNL     1      33.923 -14.439 -25.145  0.00  0.00    +0.002 C 
ATOM     28  C   UNL     1      34.224 -13.795 -23.944  0.00  0.00    +0.031 C 
BRANCH  28  31
ATOM     29  N   UNL     1      32.767 -12.062 -22.924  0.00  0.00    -0.343 N 
ATOM     30  N   UNL     1      34.507 -11.445 -24.357  0.00  0.00    -0.285 NA
ATOM     31  C   UNL     1      33.838 -12.407 -23.747  0.00  0.00    +0.117 C 
ATOM     32  H   UNL     1      32.524 -11.115 -22.806  0.00  0.00    +0.144 HD
ATOM     33  H   UNL     1      32.255 -12.764 -22.463  0.00  0.00    +0.144 HD
ATOM     34  H   UNL     1      34.248 -10.504 -24.226  0.00  0.00    +0.188 HD
ENDBRANCH  28  31
ENDBRANCH  22  23
ENDBRANCH   4  22
TORSDOF 6
ENDMDL
MODEL 8
REMARK VINA RESULT:     -11.8      3.238      8.971
REMARK  Name = 446805
REMARK  6 active torsions:
REMARK  status: ('A' for Active; 'I' for Inactive)
REMARK    1  A    between atoms: C_4  and  C_22
REMARK    2  A    between atoms: C_7  and  N_11
REMARK    3  A    between atoms: N_11  and  S_13
REMARK    4  A    between atoms: S_13  and  C_16
REMARK    5  A    between atoms: C_22  and  C_23
REMARK    6  A    between atoms: C_28  and  C_31
REMARK                            x       y       z     vdW  Elec       q    Type
REMARK                         _______ _______ _______ _____ _____    ______ ____
ROOT
ATOM      1  N   UNL     1      35.530 -18.912 -23.211  0.00  0.00    -0.262 N 
ATOM      2  N   UNL     1      35.773 -18.162 -21.133  0.00  0.00    -0.394 NA
ATOM      3  C   UNL     1      35.271 -17.567 -23.275  0.00  0.00    +0.079 C 
ATOM      4  C   UNL     1      35.824 -19.219 -21.913  0.00  0.00    +0.168 C 
ATOM      5  C   UNL     1      35.429 -17.121 -21.966  0.00  0.00    +0.129 C 
ATOM      6  C   UNL     1      35.233 -15.761 -21.675  0.00  0.00    +0.103 C 
ATOM      7  C   UNL     1      34.882 -14.899 -22.722  0.00  0.00    +0.050 C 
ATOM      8  C   UNL     1      34.923 -16.726 -24.333  0.00  0.00    +0.018 C 
ATOM      9  C   UNL     1      35.495 -19.836 -24.322  0.00  0.00    +0.119 C 
ATOM     10  C   UNL     1      34.731 -15.375 -24.027  0.00  0.00    +0.013 C 
ENDROOT
BRANCH   7  11
ATOM     11  N   UNL     1      34.676 -13.511 -22.450  0.00  0.00    -0.219 N 
ATOM     12  H   UNL     1      35.314 -12.991 -21.910  0.00  0.00    +0.173 HD
BRANCH  11  13
ATOM     13  S   UNL     1      33.247 -12.787 -23.121  0.00  0.00    +0.073 S 
ATOM     14  O   UNL     1      32.376 -13.829 -23.631  0.00  0.00    -0.150 OA
ATOM     15  O   UNL     1      33.629 -11.669 -23.963  0.00  0.00    -0.150 OA
BRANCH  13  16
ATOM     16  C   UNL     1      32.480 -12.105 -21.680  0.00  0.00    +0.125 C 
ATOM     17  C   UNL     1      31.853 -10.874 -21.770  0.00  0.00    +0.020 C 
ATOM     18  C   UNL     1      32.522 -12.814 -20.494  0.00  0.00    +0.020 C 
ATOM     19  C   UNL     1      31.247 -10.336 -20.634  0.00  0.00    +0.001 C 
ATOM     20  C   UNL     1      31.916 -12.276 -19.358  0.00  0.00    +0.001 C 
ATOM     21  C   UNL     1      31.279 -11.037 -19.428  0.00  0.00    +0.000 C 
ENDBRANCH  13  16
ENDBRANCH  11  13
ENDBRANCH   7  11
BRANCH   4  22
ATOM     22  C   UNL     1      36.155 -20.594 -21.486  0.00  0.00    +0.101 C 
BRANCH  22  23
ATOM     23  C   UNL     1      35.195 -21.167 -20.451  0.00  0.00    -0.014 C 
ATOM     24  C   UNL     1      35.697 -21.973 -19.450  0.00  0.00    -0.004 C 
ATOM     25  C   UNL     1      33.853 -20.861 -20.547  0.00  0.00    -0.004 C 
ATOM     26  C   UNL     1      34.817 -22.497 -18.502  0.00  0.00    +0.002 C 
ATOM     27  C   UNL     1      32.974 -21.385 -19.600  0.00  0.00    +0.002 C 
ATOM     28  C   UNL     1      33.456 -22.203 -18.577  0.00  0.00    +0.031 C 
BRANCH  28  31
ATOM     29  N   UNL     1      32.961 -23.689 -16.650  0.00  0.00    -0.343 N 
ATOM     30  N   UNL     1      31.277 -22.358 -17.576  0.00  0.00    -0.285 NA
ATOM     31  C   UNL     1      32.539 -22.750 -17.590  0.00  0.00    +0.117 C 
ATOM     32  H   UNL     1      32.322 -24.046 -15.991  0.00  0.00    +0.144 HD
ATOM     33  H   UNL     1      33.896 -23.995 -16.646  0.00  0.00    +0.144 HD
ATOM     34  H   UNL     1      30.654 -22.727 -16.909  0.00  0.00    +0.188 HD
ENDBRANCH  28  31
ENDBRANCH  22  23
ENDBRANCH   4  22
TORSDOF 6
ENDMDL
MODEL 9
REMARK VINA RESULT:     -11.2      4.270      6.791
REMARK  Name = 446805
REMARK  6 active torsions:
REMARK  status: ('A' for Active; 'I' for Inactive)
REMARK    1  A    between atoms: C_4  and  C_22
REMARK    2  A    between atoms: C_7  and  N_11
REMARK    3  A    between atoms: N_11  and  S_13
REMARK    4  A    between atoms: S_13  and  C_16
REMARK    5  A    between atoms: C_22  and  C_23
REMARK    6  A    between atoms: C_28  and  C_31
REMARK                            x       y       z     vdW  Elec       q    Type
REMARK                         _______ _______ _______ _____ _____    ______ ____
ROOT
ATOM      1  N   UNL     1      35.170 -19.875 -21.592  0.00  0.00    -0.262 N 
ATOM      2  N   UNL     1      37.202 -19.401 -20.827  0.00  0.00    -0.394 NA
ATOM      3  C   UNL     1      35.345 -20.680 -20.496  0.00  0.00    +0.079 C 
ATOM      4  C   UNL     1      36.305 -19.130 -21.749  0.00  0.00    +0.168 C 
ATOM      5  C   UNL     1      36.620 -20.365 -20.036  0.00  0.00    +0.129 C 
ATOM      6  C   UNL     1      37.122 -21.025 -18.901  0.00  0.00    +0.103 C 
ATOM      7  C   UNL     1      36.313 -21.980 -18.272  0.00  0.00    +0.050 C 
ATOM      8  C   UNL     1      34.522 -21.627 -19.885  0.00  0.00    +0.018 C 
ATOM      9  C   UNL     1      33.993 -19.826 -22.430  0.00  0.00    +0.119 C 
ATOM     10  C   UNL     1      35.036 -22.274 -18.757  0.00  0.00    +0.013 C 
ENDROOT
BRANCH   7  11
ATOM     11  N   UNL     1      36.803 -22.663 -17.117  0.00  0.00    -0.219 N 
ATOM     12  H   UNL     1      37.766 -22.711 -16.914  0.00  0.00    +0.173 HD
BRANCH  11  13
ATOM     13  S   UNL     1      35.617 -23.405 -16.087  0.00  0.00    +0.073 S 
ATOM     14  O   UNL     1      34.768 -24.273 -16.879  0.00  0.00    -0.150 OA
ATOM     15  O   UNL     1      35.035 -22.392 -15.225  0.00  0.00    -0.150 OA
BRANCH  13  16
ATOM     16  C   UNL     1      36.625 -24.433 -15.059  0.00  0.00    +0.125 C 
ATOM     17  C   UNL     1      36.517 -25.808 -15.169  0.00  0.00    +0.020 C 
ATOM     18  C   UNL     1      37.502 -23.842 -14.168  0.00  0.00    +0.020 C 
ATOM     19  C   UNL     1      37.313 -26.619 -14.360  0.00  0.00    +0.001 C 
ATOM     20  C   UNL     1      38.298 -24.653 -13.358  0.00  0.00    +0.001 C 
ATOM     21  C   UNL     1      38.204 -26.041 -13.454  0.00  0.00    +0.000 C 
ENDBRANCH  13  16
ENDBRANCH  11  13
ENDBRANCH   7  11
BRANCH   4  22
ATOM     22  C   UNL     1      36.458 -18.149 -22.843  0.00  0.00    +0.101 C 
BRANCH  22  23
ATOM     23  C   UNL     1      35.632 -16.883 -22.656  0.00  0.00    -0.014 C 
ATOM     24  C   UNL     1      35.237 -16.173 -23.771  0.00  0.00    -0.004 C 
ATOM     25  C   UNL     1      35.304 -16.485 -21.376  0.00  0.00    -0.004 C 
ATOM     26  C   UNL     1      34.481 -15.014 -23.600  0.00  0.00    +0.002 C 
ATOM     27  C   UNL     1      34.548 -15.326 -21.204  0.00  0.00    +0.002 C 
ATOM     28  C   UNL     1      34.136 -14.590 -22.316  0.00  0.00    +0.031 C 
BRANCH  28  31
ATOM     29  N   UNL     1      33.296 -12.397 -23.123  0.00  0.00    -0.343 N 
ATOM     30  N   UNL     1      32.668 -13.199 -21.019  0.00  0.00    -0.285 NA
ATOM     31  C   UNL     1      33.349 -13.381 -22.137  0.00  0.00    +0.117 C 
ATOM     32  H   UNL     1      32.756 -11.586 -22.980  0.00  0.00    +0.144 HD
ATOM     33  H   UNL     1      33.798 -12.513 -23.961  0.00  0.00    +0.144 HD
ATOM     34  H   UNL     1      32.134 -12.381 -20.895  0.00  0.00    +0.188 HD
ENDBRANCH  28  31
ENDBRANCH  22  23
ENDBRANCH   4  22
TORSDOF 6
ENDMDL
