MODEL 1
REMARK VINA RESULT:     -11.0      0.000      0.000
REMARK  Name = 10173277
REMARK  7 active torsions:
REMARK  status: ('A' for Active; 'I' for Inactive)
REMARK    1  A    between atoms: C_12  and  O_24
REMARK    2  A    between atoms: N_13  and  N_15
REMARK    3  A    between atoms: N_15  and  C_16
REMARK    4  A    between atoms: C_16  and  C_17
REMARK    5  A    between atoms: O_24  and  C_25
REMARK    6  A    between atoms: C_25  and  C_26
REMARK    7  A    between atoms: C_26  and  C_28
REMARK                            x       y       z     vdW  Elec       q    Type
REMARK                         _______ _______ _______ _____ _____    ______ ____
ROOT
ATOM      1  O   UNL     1      28.353 -24.340 -15.468  0.00  0.00    -0.350 OA
ATOM      2  N   UNL     1      31.007 -23.669 -16.103  0.00  0.00    -0.281 N 
ATOM      3  N   UNL     1      32.564 -23.201 -17.863  0.00  0.00    -0.300 NA
ATOM      4  N   UNL     1      34.899 -22.889 -17.357  0.00  0.00    -0.299 NA
ATOM      5  C   UNL     1      29.892 -23.094 -16.868  0.00  0.00    +0.125 C 
ATOM      6  C   UNL     1      30.706 -24.928 -15.412  0.00  0.00    +0.125 C 
ATOM      7  C   UNL     1      28.642 -23.046 -15.997  0.00  0.00    +0.164 C 
ATOM      8  C   UNL     1      29.411 -24.783 -14.620  0.00  0.00    +0.164 C 
ATOM      9  C   UNL     1      32.312 -23.406 -16.536  0.00  0.00    +0.184 C 
ATOM     10  C   UNL     1      33.335 -23.359 -15.589  0.00  0.00    +0.153 C 
ATOM     11  C   UNL     1      34.607 -23.097 -16.056  0.00  0.00    +0.195 C 
ATOM     12  C   UNL     1      33.846 -22.955 -18.194  0.00  0.00    +0.312 C 
ATOM     13  N   UNL     1      35.655 -23.046 -15.104  0.00  0.00    -0.238 N 
ATOM     14  H   UNL     1      36.576 -22.862 -15.398  0.00  0.00    +0.170 HD
ENDROOT
BRANCH  13  15
ATOM     15  N   UNL     1      35.396 -23.249 -13.805  0.00  0.00    -0.127 NA
BRANCH  15  16
ATOM     16  C   UNL     1      36.316 -23.927 -13.200  0.00  0.00    +0.138 C 
BRANCH  16  17
ATOM     17  C   UNL     1      37.104 -24.961 -13.892  0.00  0.00    -0.003 C 
ATOM     18  C   UNL     1      39.232 -25.905 -14.475  0.00  0.00    -0.022 C 
ATOM     19  C   UNL     1      38.487 -24.924 -13.820  0.00  0.00    -0.007 C 
ATOM     20  C   UNL     1      36.445 -25.952 -14.603  0.00  0.00    -0.003 C 
ATOM     21  C   UNL     1      38.584 -26.908 -15.194  0.00  0.00    -0.004 C 
ATOM     22  C   UNL     1      37.190 -26.933 -15.258  0.00  0.00    -0.001 C 
ATOM     23  C   UNL     1      40.722 -25.880 -14.406  0.00  0.00    +0.031 C 
ENDBRANCH  16  17
ENDBRANCH  15  16
ENDBRANCH  13  15
BRANCH  12  24
ATOM     24  O   UNL     1      34.107 -22.748 -19.528  0.00  0.00    -0.399 OA
BRANCH  24  25
ATOM     25  C   UNL     1      35.040 -21.724 -19.842  0.00  0.00    +0.229 C 
BRANCH  25  26
ATOM     26  C   UNL     1      34.336 -20.596 -20.588  0.00  0.00    +0.094 C 
BRANCH  26  28
ATOM     27  N   UNL     1      36.457 -19.480 -20.938  0.00  0.00    -0.248 NA
ATOM     28  C   UNL     1      35.277 -19.823 -21.481  0.00  0.00    +0.063 C 
ATOM     29  C   UNL     1      34.875 -19.527 -22.765  0.00  0.00    +0.015 C 
ATOM     30  C   UNL     1      35.764 -18.815 -23.562  0.00  0.00    +0.003 C 
ATOM     31  C   UNL     1      37.295 -18.788 -21.742  0.00  0.00    +0.098 C 
ATOM     32  C   UNL     1      36.999 -18.435 -23.049  0.00  0.00    +0.021 C 
ENDBRANCH  26  28
ENDBRANCH  25  26
ENDBRANCH  24  25
ENDBRANCH  12  24
TORSDOF 7
ENDMDL
MODEL 2
REMARK VINA RESULT:     -10.6      2.140      6.513
REMARK  Name = 10173277
REMARK  7 active torsions:
REMARK  status: ('A' for Active; 'I' for Inactive)
REMARK    1  A    between atoms: C_12  and  O_24
REMARK    2  A    between atoms: N_13  and  N_15
REMARK    3  A    between atoms: N_15  and  C_16
REMARK    4  A    between atoms: C_16  and  C_17
REMARK    5  A    between atoms: O_24  and  C_25
REMARK    6  A    between atoms: C_25  and  C_26
REMARK    7  A    between atoms: C_26  and  C_28
REMARK                            x       y       z     vdW  Elec       q    Type
REMARK                         _______ _______ _______ _____ _____    ______ ____
ROOT
ATOM      1  O   UNL     1      39.577 -24.729 -12.980  0.00  0.00    -0.350 OA
ATOM      2  N   UNL     1      37.431 -23.988 -14.636  0.00  0.00    -0.281 N 
ATOM      3  N   UNL     1      36.791 -23.051 -16.746  0.00  0.00    -0.300 NA
ATOM      4  N   UNL     1      34.470 -22.603 -17.213  0.00  0.00    -0.299 NA
ATOM      5  C   UNL     1      38.643 -24.587 -15.214  0.00  0.00    +0.125 C 
ATOM      6  C   UNL     1      37.614 -23.347 -13.329  0.00  0.00    +0.125 C 
ATOM      7  C   UNL     1      39.325 -25.469 -14.174  0.00  0.00    +0.164 C 
ATOM      8  C   UNL     1      38.353 -24.294 -12.391  0.00  0.00    +0.164 C 
ATOM      9  C   UNL     1      36.444 -23.519 -15.511  0.00  0.00    +0.184 C 
ATOM     10  C   UNL     1      35.113 -23.545 -15.094  0.00  0.00    +0.153 C 
ATOM     11  C   UNL     1      34.170 -23.074 -15.986  0.00  0.00    +0.195 C 
ATOM     12  C   UNL     1      35.780 -22.619 -17.525  0.00  0.00    +0.312 C 
ATOM     13  N   UNL     1      32.815 -23.094 -15.573  0.00  0.00    -0.238 N 
ATOM     14  H   UNL     1      32.113 -22.767 -16.181  0.00  0.00    +0.170 HD
ENDROOT
BRANCH  13  15
ATOM     15  N   UNL     1      32.486 -23.557 -14.359  0.00  0.00    -0.127 NA
BRANCH  15  16
ATOM     16  C   UNL     1      31.222 -23.464 -14.102  0.00  0.00    +0.138 C 
BRANCH  16  17
ATOM     17  C   UNL     1      30.196 -23.789 -15.108  0.00  0.00    -0.003 C 
ATOM     18  C   UNL     1      28.329 -23.119 -16.458  0.00  0.00    -0.022 C 
ATOM     19  C   UNL     1      29.300 -22.810 -15.505  0.00  0.00    -0.007 C 
ATOM     20  C   UNL     1      30.149 -25.069 -15.638  0.00  0.00    -0.003 C 
ATOM     21  C   UNL     1      28.268 -24.402 -17.000  0.00  0.00    -0.004 C 
ATOM     22  C   UNL     1      29.178 -25.377 -16.591  0.00  0.00    -0.001 C 
ATOM     23  C   UNL     1      27.356 -22.077 -16.897  0.00  0.00    +0.031 C 
ENDBRANCH  16  17
ENDBRANCH  15  16
ENDBRANCH  13  15
BRANCH  12  24
ATOM     24  O   UNL     1      36.122 -22.145 -18.769  0.00  0.00    -0.399 OA
BRANCH  24  25
ATOM     25  C   UNL     1      35.163 -22.320 -19.802  0.00  0.00    +0.229 C 
BRANCH  25  26
ATOM     26  C   UNL     1      34.497 -20.986 -20.119  0.00  0.00    +0.094 C 
BRANCH  26  28
ATOM     27  N   UNL     1      36.513 -19.731 -20.595  0.00  0.00    -0.248 NA
ATOM     28  C   UNL     1      35.321 -20.142 -21.061  0.00  0.00    +0.063 C 
ATOM     29  C   UNL     1      34.812 -19.853 -22.308  0.00  0.00    +0.015 C 
ATOM     30  C   UNL     1      35.595 -19.074 -23.152  0.00  0.00    +0.003 C 
ATOM     31  C   UNL     1      37.246 -18.975 -21.443  0.00  0.00    +0.098 C 
ATOM     32  C   UNL     1      36.837 -18.623 -22.718  0.00  0.00    +0.021 C 
ENDBRANCH  26  28
ENDBRANCH  25  26
ENDBRANCH  24  25
ENDBRANCH  12  24
TORSDOF 7
ENDMDL
MODEL 3
REMARK VINA RESULT:     -10.6      2.608      5.966
REMARK  Name = 10173277
REMARK  7 active torsions:
REMARK  status: ('A' for Active; 'I' for Inactive)
REMARK    1  A    between atoms: C_12  and  O_24
REMARK    2  A    between atoms: N_13  and  N_15
REMARK    3  A    between atoms: N_15  and  C_16
REMARK    4  A    between atoms: C_16  and  C_17
REMARK    5  A    between atoms: O_24  and  C_25
REMARK    6  A    between atoms: C_25  and  C_26
REMARK    7  A    between atoms: C_26  and  C_28
REMARK                            x       y       z     vdW  Elec       q    Type
REMARK                         _______ _______ _______ _____ _____    ______ ____
ROOT
ATOM      1  O   UNL     1      38.255 -23.935 -13.832  0.00  0.00    -0.350 OA
ATOM      2  N   UNL     1      36.939 -23.050 -16.152  0.00  0.00    -0.281 N 
ATOM      3  N   UNL     1      37.076 -21.657 -18.097  0.00  0.00    -0.300 NA
ATOM      4  N   UNL     1      35.159 -21.403 -19.536  0.00  0.00    -0.299 NA
ATOM      5  C   UNL     1      38.386 -23.303 -16.170  0.00  0.00    +0.125 C 
ATOM      6  C   UNL     1      36.370 -22.777 -14.827  0.00  0.00    +0.125 C 
ATOM      7  C   UNL     1      38.739 -24.342 -15.112  0.00  0.00    +0.164 C 
ATOM      8  C   UNL     1      36.832 -23.842 -13.840  0.00  0.00    +0.164 C 
ATOM      9  C   UNL     1      36.351 -22.490 -17.292  0.00  0.00    +0.184 C 
ATOM     10  C   UNL     1      35.022 -22.802 -17.582  0.00  0.00    +0.153 C 
ATOM     11  C   UNL     1      34.479 -22.230 -18.715  0.00  0.00    +0.195 C 
ATOM     12  C   UNL     1      36.434 -21.162 -19.173  0.00  0.00    +0.312 C 
ATOM     13  N   UNL     1      33.132 -22.539 -19.020  0.00  0.00    -0.238 N 
ATOM     14  H   UNL     1      32.709 -22.151 -19.820  0.00  0.00    +0.170 HD
ENDROOT
BRANCH  13  15
ATOM     15  N   UNL     1      32.430 -23.358 -18.224  0.00  0.00    -0.127 NA
BRANCH  15  16
ATOM     16  C   UNL     1      31.796 -22.737 -17.283  0.00  0.00    +0.138 C 
BRANCH  16  17
ATOM     17  C   UNL     1      31.512 -23.371 -15.985  0.00  0.00    -0.003 C 
ATOM     18  C   UNL     1      30.231 -24.914 -14.667  0.00  0.00    -0.022 C 
ATOM     19  C   UNL     1      30.500 -24.313 -15.897  0.00  0.00    -0.007 C 
ATOM     20  C   UNL     1      32.262 -23.012 -14.876  0.00  0.00    -0.003 C 
ATOM     21  C   UNL     1      30.978 -24.564 -13.542  0.00  0.00    -0.004 C 
ATOM     22  C   UNL     1      31.993 -23.613 -13.646  0.00  0.00    -0.001 C 
ATOM     23  C   UNL     1      29.146 -25.931 -14.555  0.00  0.00    +0.031 C 
ENDBRANCH  16  17
ENDBRANCH  15  16
ENDBRANCH  13  15
BRANCH  12  24
ATOM     24  O   UNL     1      37.157 -20.323 -19.986  0.00  0.00    -0.399 OA
BRANCH  24  25
ATOM     25  C   UNL     1      36.627 -20.079 -21.282  0.00  0.00    +0.229 C 
BRANCH  25  26
ATOM     26  C   UNL     1      36.423 -18.582 -21.483  0.00  0.00    +0.094 C 
BRANCH  26  28
ATOM     27  N   UNL     1      35.761 -16.973 -23.168  0.00  0.00    -0.248 NA
ATOM     28  C   UNL     1      35.753 -18.266 -22.798  0.00  0.00    +0.063 C 
ATOM     29  C   UNL     1      35.189 -19.296 -23.518  0.00  0.00    +0.015 C 
ATOM     30  C   UNL     1      34.579 -18.971 -24.724  0.00  0.00    +0.003 C 
ATOM     31  C   UNL     1      35.159 -16.696 -24.345  0.00  0.00    +0.098 C 
ATOM     32  C   UNL     1      34.560 -17.648 -25.153  0.00  0.00    +0.021 C 
ENDBRANCH  26  28
ENDBRANCH  25  26
ENDBRANCH  24  25
ENDBRANCH  12  24
TORSDOF 7
ENDMDL
MODEL 4
REMARK VINA RESULT:      -9.6      2.807      6.840
REMARK  Name = 10173277
REMARK  7 active torsions:
REMARK  status: ('A' for Active; 'I' for Inactive)
REMARK    1  A    between atoms: C_12  and  O_24
REMARK    2  A    between atoms: N_13  and  N_15
REMARK    3  A    between atoms: N_15  and  C_16
REMARK    4  A    between atoms: C_16  and  C_17
REMARK    5  A    between atoms: O_24  and  C_25
REMARK    6  A    between atoms: C_25  and  C_26
REMARK    7  A    between atoms: C_26  and  C_28
REMARK                            x       y       z     vdW  Elec       q    Type
REMARK                         _______ _______ _______ _____ _____    ______ ____
ROOT
ATOM      1  O   UNL     1      40.307 -26.531 -13.364  0.00  0.00    -0.350 OA
ATOM      2  N   UNL     1      38.562 -24.737 -14.643  0.00  0.00    -0.281 N 
ATOM      3  N   UNL     1      38.391 -22.802 -16.045  0.00  0.00    -0.300 NA
ATOM      4  N   UNL     1      36.237 -21.809 -16.473  0.00  0.00    -0.299 NA
ATOM      5  C   UNL     1      39.799 -25.171 -15.307  0.00  0.00    +0.125 C 
ATOM      6  C   UNL     1      38.566 -24.852 -13.180  0.00  0.00    +0.125 C 
ATOM      7  C   UNL     1      40.206 -26.545 -14.788  0.00  0.00    +0.164 C 
ATOM      8  C   UNL     1      39.040 -26.242 -12.774  0.00  0.00    +0.164 C 
ATOM      9  C   UNL     1      37.791 -23.748 -15.263  0.00  0.00    +0.184 C 
ATOM     10  C   UNL     1      36.410 -23.753 -15.064  0.00  0.00    +0.153 C 
ATOM     11  C   UNL     1      35.684 -22.760 -15.693  0.00  0.00    +0.195 C 
ATOM     12  C   UNL     1      37.575 -21.887 -16.604  0.00  0.00    +0.312 C 
ATOM     13  N   UNL     1      34.282 -22.755 -15.498  0.00  0.00    -0.238 N 
ATOM     14  H   UNL     1      33.730 -22.063 -15.930  0.00  0.00    +0.170 HD
ENDROOT
BRANCH  13  15
ATOM     15  N   UNL     1      33.703 -23.687 -14.729  0.00  0.00    -0.127 NA
BRANCH  15  16
ATOM     16  C   UNL     1      32.569 -23.310 -14.234  0.00  0.00    +0.138 C 
BRANCH  16  17
ATOM     17  C   UNL     1      31.291 -23.875 -14.698  0.00  0.00    -0.003 C 
ATOM     18  C   UNL     1      29.166 -23.588 -15.776  0.00  0.00    -0.022 C 
ATOM     19  C   UNL     1      30.376 -23.052 -15.336  0.00  0.00    -0.007 C 
ATOM     20  C   UNL     1      31.027 -25.219 -14.487  0.00  0.00    -0.003 C 
ATOM     21  C   UNL     1      28.886 -24.939 -15.571  0.00  0.00    -0.004 C 
ATOM     22  C   UNL     1      29.816 -25.755 -14.927  0.00  0.00    -0.001 C 
ATOM     23  C   UNL     1      28.171 -22.716 -16.466  0.00  0.00    +0.031 C 
ENDBRANCH  16  17
ENDBRANCH  15  16
ENDBRANCH  13  15
BRANCH  12  24
ATOM     24  O   UNL     1      38.173 -20.932 -17.392  0.00  0.00    -0.399 OA
BRANCH  24  25
ATOM     25  C   UNL     1      37.375 -20.368 -18.423  0.00  0.00    +0.229 C 
BRANCH  25  26
ATOM     26  C   UNL     1      36.879 -21.469 -19.353  0.00  0.00    +0.094 C 
BRANCH  26  28
ATOM     27  N   UNL     1      35.489 -20.219 -20.893  0.00  0.00    -0.248 NA
ATOM     28  C   UNL     1      35.521 -21.162 -19.935  0.00  0.00    +0.063 C 
ATOM     29  C   UNL     1      34.426 -21.850 -19.459  0.00  0.00    +0.015 C 
ATOM     30  C   UNL     1      33.190 -21.543 -20.016  0.00  0.00    +0.003 C 
ATOM     31  C   UNL     1      34.270 -19.948 -21.410  0.00  0.00    +0.098 C 
ATOM     32  C   UNL     1      33.102 -20.575 -21.010  0.00  0.00    +0.021 C 
ENDBRANCH  26  28
ENDBRANCH  25  26
ENDBRANCH  24  25
ENDBRANCH  12  24
TORSDOF 7
ENDMDL
MODEL 5
REMARK VINA RESULT:      -9.5      2.685      8.427
REMARK  Name = 10173277
REMARK  7 active torsions:
REMARK  status: ('A' for Active; 'I' for Inactive)
REMARK    1  A    between atoms: C_12  and  O_24
REMARK    2  A    between atoms: N_13  and  N_15
REMARK    3  A    between atoms: N_15  and  C_16
REMARK    4  A    between atoms: C_16  and  C_17
REMARK    5  A    between atoms: O_24  and  C_25
REMARK    6  A    between atoms: C_25  and  C_26
REMARK    7  A    between atoms: C_26  and  C_28
REMARK                            x       y       z     vdW  Elec       q    Type
REMARK                         _______ _______ _______ _____ _____    ______ ____
ROOT
ATOM      1  O   UNL     1      34.999 -21.147 -20.728  0.00  0.00    -0.350 OA
ATOM      2  N   UNL     1      35.019 -22.360 -18.193  0.00  0.00    -0.281 N 
ATOM      3  N   UNL     1      36.165 -23.873 -16.731  0.00  0.00    -0.300 NA
ATOM      4  N   UNL     1      35.196 -24.464 -14.605  0.00  0.00    -0.299 NA
ATOM      5  C   UNL     1      36.277 -21.939 -18.825  0.00  0.00    +0.125 C 
ATOM      6  C   UNL     1      33.904 -22.593 -19.117  0.00  0.00    +0.125 C 
ATOM      7  C   UNL     1      36.009 -20.786 -19.786  0.00  0.00    +0.164 C 
ATOM      8  C   UNL     1      33.764 -21.407 -20.064  0.00  0.00    +0.164 C 
ATOM      9  C   UNL     1      35.089 -23.072 -16.990  0.00  0.00    +0.184 C 
ATOM     10  C   UNL     1      34.046 -22.942 -16.073  0.00  0.00    +0.153 C 
ATOM     11  C   UNL     1      34.152 -23.661 -14.900  0.00  0.00    +0.195 C 
ATOM     12  C   UNL     1      36.152 -24.524 -15.551  0.00  0.00    +0.312 C 
ATOM     13  N   UNL     1      33.099 -23.538 -13.961  0.00  0.00    -0.238 N 
ATOM     14  H   UNL     1      33.138 -24.035 -13.112  0.00  0.00    +0.170 HD
ENDROOT
BRANCH  13  15
ATOM     15  N   UNL     1      32.049 -22.749 -14.225  0.00  0.00    -0.127 NA
BRANCH  15  16
ATOM     16  C   UNL     1      30.910 -23.322 -14.008  0.00  0.00    +0.138 C 
BRANCH  16  17
ATOM     17  C   UNL     1      29.982 -23.652 -15.103  0.00  0.00    -0.003 C 
ATOM     18  C   UNL     1      28.176 -23.022 -16.552  0.00  0.00    -0.022 C 
ATOM     19  C   UNL     1      29.054 -22.709 -15.514  0.00  0.00    -0.007 C 
ATOM     20  C   UNL     1      30.055 -24.901 -15.701  0.00  0.00    -0.003 C 
ATOM     21  C   UNL     1      28.237 -24.274 -17.164  0.00  0.00    -0.004 C 
ATOM     22  C   UNL     1      29.177 -25.213 -16.739  0.00  0.00    -0.001 C 
ATOM     23  C   UNL     1      27.171 -22.018 -17.007  0.00  0.00    +0.031 C 
ENDBRANCH  16  17
ENDBRANCH  15  16
ENDBRANCH  13  15
BRANCH  12  24
ATOM     24  O   UNL     1      37.231 -25.333 -15.285  0.00  0.00    -0.399 OA
BRANCH  24  25
ATOM     25  C   UNL     1      36.967 -26.530 -14.567  0.00  0.00    +0.229 C 
BRANCH  25  26
ATOM     26  C   UNL     1      37.754 -26.533 -13.262  0.00  0.00    +0.094 C 
BRANCH  26  28
ATOM     27  N   UNL     1      36.339 -25.542 -11.565  0.00  0.00    -0.248 NA
ATOM     28  C   UNL     1      37.398 -25.366 -12.374  0.00  0.00    +0.063 C 
ATOM     29  C   UNL     1      38.162 -24.222 -12.446  0.00  0.00    +0.015 C 
ATOM     30  C   UNL     1      37.809 -23.165 -11.615  0.00  0.00    +0.003 C 
ATOM     31  C   UNL     1      36.024 -24.493 -10.772  0.00  0.00    +0.098 C 
ATOM     32  C   UNL     1      36.720 -23.296 -10.759  0.00  0.00    +0.021 C 
ENDBRANCH  26  28
ENDBRANCH  25  26
ENDBRANCH  24  25
ENDBRANCH  12  24
TORSDOF 7
ENDMDL
MODEL 6
REMARK VINA RESULT:      -9.5      6.711     10.547
REMARK  Name = 10173277
REMARK  7 active torsions:
REMARK  status: ('A' for Active; 'I' for Inactive)
REMARK    1  A    between atoms: C_12  and  O_24
REMARK    2  A    between atoms: N_13  and  N_15
REMARK    3  A    between atoms: N_15  and  C_16
REMARK    4  A    between atoms: C_16  and  C_17
REMARK    5  A    between atoms: O_24  and  C_25
REMARK    6  A    between atoms: C_25  and  C_26
REMARK    7  A    between atoms: C_26  and  C_28
REMARK                            x       y       z     vdW  Elec       q    Type
REMARK                         _______ _______ _______ _____ _____    ______ ____
ROOT
ATOM      1  O   UNL     1      31.763 -12.631 -19.114  0.00  0.00    -0.350 OA
ATOM      2  N   UNL     1      33.116 -13.692 -21.338  0.00  0.00    -0.281 N 
ATOM      3  N   UNL     1      33.355 -13.636 -23.721  0.00  0.00    -0.300 NA
ATOM      4  N   UNL     1      34.796 -15.221 -24.826  0.00  0.00    -0.299 NA
ATOM      5  C   UNL     1      32.773 -12.264 -21.289  0.00  0.00    +0.125 C 
ATOM      6  C   UNL     1      32.295 -14.561 -20.486  0.00  0.00    +0.125 C 
ATOM      7  C   UNL     1      32.678 -11.808 -19.837  0.00  0.00    +0.164 C 
ATOM      8  C   UNL     1      32.224 -13.981 -19.078  0.00  0.00    +0.164 C 
ATOM      9  C   UNL     1      33.674 -14.198 -22.517  0.00  0.00    +0.184 C 
ATOM     10  C   UNL     1      34.556 -15.276 -22.432  0.00  0.00    +0.153 C 
ATOM     11  C   UNL     1      35.085 -15.745 -23.617  0.00  0.00    +0.195 C 
ATOM     12  C   UNL     1      33.936 -14.184 -24.806  0.00  0.00    +0.312 C 
ATOM     13  N   UNL     1      35.980 -16.840 -23.544  0.00  0.00    -0.238 N 
ATOM     14  H   UNL     1      36.379 -17.203 -24.367  0.00  0.00    +0.170 HD
ENDROOT
BRANCH  13  15
ATOM     15  N   UNL     1      36.287 -17.382 -22.357  0.00  0.00    -0.127 NA
BRANCH  15  16
ATOM     16  C   UNL     1      36.490 -18.658 -22.416  0.00  0.00    +0.138 C 
BRANCH  16  17
ATOM     17  C   UNL     1      35.796 -19.600 -21.521  0.00  0.00    -0.003 C 
ATOM     18  C   UNL     1      35.864 -21.175 -19.712  0.00  0.00    -0.022 C 
ATOM     19  C   UNL     1      36.522 -20.284 -20.560  0.00  0.00    -0.007 C 
ATOM     20  C   UNL     1      34.429 -19.784 -21.659  0.00  0.00    -0.003 C 
ATOM     21  C   UNL     1      34.489 -21.371 -19.838  0.00  0.00    -0.004 C 
ATOM     22  C   UNL     1      33.771 -20.675 -20.812  0.00  0.00    -0.001 C 
ATOM     23  C   UNL     1      36.631 -21.918 -18.670  0.00  0.00    +0.031 C 
ENDBRANCH  16  17
ENDBRANCH  15  16
ENDBRANCH  13  15
BRANCH  12  24
ATOM     24  O   UNL     1      33.619 -13.624 -26.021  0.00  0.00    -0.399 OA
BRANCH  24  25
ATOM     25  C   UNL     1      33.572 -12.206 -26.075  0.00  0.00    +0.229 C 
BRANCH  25  26
ATOM     26  C   UNL     1      34.757 -11.621 -25.314  0.00  0.00    +0.094 C 
BRANCH  26  28
ATOM     27  N   UNL     1      33.173 -10.317 -24.027  0.00  0.00    -0.248 NA
ATOM     28  C   UNL     1      34.398 -10.352 -24.580  0.00  0.00    +0.063 C 
ATOM     29  C   UNL     1      35.325  -9.335 -24.524  0.00  0.00    +0.015 C 
ATOM     30  C   UNL     1      34.964  -8.180 -23.840  0.00  0.00    +0.003 C 
ATOM     31  C   UNL     1      32.857  -9.178 -23.371  0.00  0.00    +0.098 C 
ATOM     32  C   UNL     1      33.708  -8.092 -23.250  0.00  0.00    +0.021 C 
ENDBRANCH  26  28
ENDBRANCH  25  26
ENDBRANCH  24  25
ENDBRANCH  12  24
TORSDOF 7
ENDMDL
MODEL 7
REMARK VINA RESULT:      -9.3      9.976     14.186
REMARK  Name = 10173277
REMARK  7 active torsions:
REMARK  status: ('A' for Active; 'I' for Inactive)
REMARK    1  A    between atoms: C_12  and  O_24
REMARK    2  A    between atoms: N_13  and  N_15
REMARK    3  A    between atoms: N_15  and  C_16
REMARK    4  A    between atoms: C_16  and  C_17
REMARK    5  A    between atoms: O_24  and  C_25
REMARK    6  A    between atoms: C_25  and  C_26
REMARK    7  A    between atoms: C_26  and  C_28
REMARK                            x       y       z     vdW  Elec       q    Type
REMARK                         _______ _______ _______ _____ _____    ______ ____
ROOT
ATOM      1  O   UNL     1      30.458 -10.427 -19.332  0.00  0.00    -0.350 OA
ATOM      2  N   UNL     1      32.236 -10.606 -21.501  0.00  0.00    -0.281 N 
ATOM      3  N   UNL     1      33.542  -9.385 -23.096  0.00  0.00    -0.300 NA
ATOM      4  N   UNL     1      34.706 -10.555 -24.852  0.00  0.00    -0.299 NA
ATOM      5  C   UNL     1      32.408  -9.559 -20.485  0.00  0.00    +0.125 C 
ATOM      6  C   UNL     1      30.881 -11.157 -21.607  0.00  0.00    +0.125 C 
ATOM      7  C   UNL     1      31.818 -10.028 -19.159  0.00  0.00    +0.164 C 
ATOM      8  C   UNL     1      30.371 -11.539 -20.222  0.00  0.00    +0.164 C 
ATOM      9  C   UNL     1      33.067 -10.576 -22.627  0.00  0.00    +0.184 C 
ATOM     10  C   UNL     1      33.395 -11.782 -23.249  0.00  0.00    +0.153 C 
ATOM     11  C   UNL     1      34.216 -11.710 -24.356  0.00  0.00    +0.195 C 
ATOM     12  C   UNL     1      34.334  -9.446 -24.184  0.00  0.00    +0.312 C 
ATOM     13  N   UNL     1      34.555 -12.927 -24.997  0.00  0.00    -0.238 N 
ATOM     14  H   UNL     1      35.139 -12.917 -25.789  0.00  0.00    +0.170 HD
ENDROOT
BRANCH  13  15
ATOM     15  N   UNL     1      34.084 -14.090 -24.527  0.00  0.00    -0.127 NA
BRANCH  15  16
ATOM     16  C   UNL     1      34.993 -14.823 -23.971  0.00  0.00    +0.138 C 
BRANCH  16  17
ATOM     17  C   UNL     1      34.967 -16.293 -24.053  0.00  0.00    -0.003 C 
ATOM     18  C   UNL     1      35.403 -18.434 -23.059  0.00  0.00    -0.022 C 
ATOM     19  C   UNL     1      35.428 -17.041 -22.981  0.00  0.00    -0.007 C 
ATOM     20  C   UNL     1      34.483 -16.900 -25.201  0.00  0.00    -0.003 C 
ATOM     21  C   UNL     1      34.918 -19.059 -24.208  0.00  0.00    -0.004 C 
ATOM     22  C   UNL     1      34.458 -18.292 -25.279  0.00  0.00    -0.001 C 
ATOM     23  C   UNL     1      35.894 -19.254 -21.915  0.00  0.00    +0.031 C 
ENDBRANCH  16  17
ENDBRANCH  15  16
ENDBRANCH  13  15
BRANCH  12  24
ATOM     24  O   UNL     1      34.815  -8.250 -24.662  0.00  0.00    -0.399 OA
BRANCH  24  25
ATOM     25  C   UNL     1      34.844  -7.165 -23.746  0.00  0.00    +0.229 C 
BRANCH  25  26
ATOM     26  C   UNL     1      34.146  -5.955 -24.358  0.00  0.00    +0.094 C 
BRANCH  26  28
ATOM     27  N   UNL     1      32.174  -4.568 -24.127  0.00  0.00    -0.248 NA
ATOM     28  C   UNL     1      32.910  -5.556 -23.589  0.00  0.00    +0.063 C 
ATOM     29  C   UNL     1      32.622  -6.212 -22.412  0.00  0.00    +0.015 C 
ATOM     30  C   UNL     1      31.477  -5.821 -21.728  0.00  0.00    +0.003 C 
ATOM     31  C   UNL     1      31.069  -4.214 -23.434  0.00  0.00    +0.098 C 
ATOM     32  C   UNL     1      30.680  -4.804 -22.242  0.00  0.00    +0.021 C 
ENDBRANCH  26  28
ENDBRANCH  25  26
ENDBRANCH  24  25
ENDBRANCH  12  24
TORSDOF 7
ENDMDL
MODEL 8
REMARK VINA RESULT:      -9.1      2.527      8.156
REMARK  Name = 10173277
REMARK  7 active torsions:
REMARK  status: ('A' for Active; 'I' for Inactive)
REMARK    1  A    between atoms: C_12  and  O_24
REMARK    2  A    between atoms: N_13  and  N_15
REMARK    3  A    between atoms: N_15  and  C_16
REMARK    4  A    between atoms: C_16  and  C_17
REMARK    5  A    between atoms: O_24  and  C_25
REMARK    6  A    between atoms: C_25  and  C_26
REMARK    7  A    between atoms: C_26  and  C_28
REMARK                            x       y       z     vdW  Elec       q    Type
REMARK                         _______ _______ _______ _____ _____    ______ ____
ROOT
ATOM      1  O   UNL     1      35.686 -18.496 -23.185  0.00  0.00    -0.350 OA
ATOM      2  N   UNL     1      35.607 -20.109 -20.885  0.00  0.00    -0.281 N 
ATOM      3  N   UNL     1      36.897 -21.198 -19.185  0.00  0.00    -0.300 NA
ATOM      4  N   UNL     1      35.816 -22.652 -17.596  0.00  0.00    -0.299 NA
ATOM      5  C   UNL     1      36.578 -19.011 -20.989  0.00  0.00    +0.125 C 
ATOM      6  C   UNL     1      35.101 -20.618 -22.165  0.00  0.00    +0.125 C 
ATOM      7  C   UNL     1      36.036 -17.933 -21.921  0.00  0.00    +0.164 C 
ATOM      8  C   UNL     1      34.640 -19.454 -23.035  0.00  0.00    +0.164 C 
ATOM      9  C   UNL     1      35.689 -20.962 -19.779  0.00  0.00    +0.184 C 
ATOM     10  C   UNL     1      34.521 -21.557 -19.304  0.00  0.00    +0.153 C 
ATOM     11  C   UNL     1      34.644 -22.392 -18.211  0.00  0.00    +0.195 C 
ATOM     12  C   UNL     1      36.888 -22.032 -18.127  0.00  0.00    +0.312 C 
ATOM     13  N   UNL     1      33.465 -23.002 -17.720  0.00  0.00    -0.238 N 
ATOM     14  H   UNL     1      33.512 -23.604 -16.942  0.00  0.00    +0.170 HD
ENDROOT
BRANCH  13  15
ATOM     15  N   UNL     1      32.285 -22.764 -18.309  0.00  0.00    -0.127 NA
BRANCH  15  16
ATOM     16  C   UNL     1      31.337 -22.505 -17.469  0.00  0.00    +0.138 C 
BRANCH  16  17
ATOM     17  C   UNL     1      31.240 -23.190 -16.169  0.00  0.00    -0.003 C 
ATOM     18  C   UNL     1      30.228 -24.860 -14.774  0.00  0.00    -0.022 C 
ATOM     19  C   UNL     1      30.318 -24.211 -16.006  0.00  0.00    -0.007 C 
ATOM     20  C   UNL     1      32.073 -22.797 -15.132  0.00  0.00    -0.003 C 
ATOM     21  C   UNL     1      31.059 -24.476 -13.722  0.00  0.00    -0.004 C 
ATOM     22  C   UNL     1      31.982 -23.445 -13.901  0.00  0.00    -0.001 C 
ATOM     23  C   UNL     1      29.242 -25.962 -14.582  0.00  0.00    +0.031 C 
ENDBRANCH  16  17
ENDBRANCH  15  16
ENDBRANCH  13  15
BRANCH  12  24
ATOM     24  O   UNL     1      38.100 -22.274 -17.525  0.00  0.00    -0.399 OA
BRANCH  24  25
ATOM     25  C   UNL     1      38.066 -22.659 -16.159  0.00  0.00    +0.229 C 
BRANCH  25  26
ATOM     26  C   UNL     1      38.849 -23.952 -15.968  0.00  0.00    +0.094 C 
BRANCH  26  28
ATOM     27  N   UNL     1      38.377 -24.132 -13.599  0.00  0.00    -0.248 NA
ATOM     28  C   UNL     1      38.354 -24.755 -14.790  0.00  0.00    +0.063 C 
ATOM     29  C   UNL     1      37.919 -26.045 -15.004  0.00  0.00    +0.015 C 
ATOM     30  C   UNL     1      37.469 -26.758 -13.898  0.00  0.00    +0.003 C 
ATOM     31  C   UNL     1      37.933 -24.856 -12.548  0.00  0.00    +0.098 C 
ATOM     32  C   UNL     1      37.472 -26.159 -12.643  0.00  0.00    +0.021 C 
ENDBRANCH  26  28
ENDBRANCH  25  26
ENDBRANCH  24  25
ENDBRANCH  12  24
TORSDOF 7
ENDMDL
MODEL 9
REMARK VINA RESULT:      -9.1     10.347     14.607
REMARK  Name = 10173277
REMARK  7 active torsions:
REMARK  status: ('A' for Active; 'I' for Inactive)
REMARK    1  A    between atoms: C_12  and  O_24
REMARK    2  A    between atoms: N_13  and  N_15
REMARK    3  A    between atoms: N_15  and  C_16
REMARK    4  A    between atoms: C_16  and  C_17
REMARK    5  A    between atoms: O_24  and  C_25
REMARK    6  A    between atoms: C_25  and  C_26
REMARK    7  A    between atoms: C_26  and  C_28
REMARK                            x       y       z     vdW  Elec       q    Type
REMARK                         _______ _______ _______ _____ _____    ______ ____
ROOT
ATOM      1  O   UNL     1      31.426 -11.546 -18.014  0.00  0.00    -0.350 OA
ATOM      2  N   UNL     1      32.088 -10.696 -20.610  0.00  0.00    -0.281 N 
ATOM      3  N   UNL     1      31.727  -9.040 -22.303  0.00  0.00    -0.300 NA
ATOM      4  N   UNL     1      32.711  -9.313 -24.486  0.00  0.00    -0.299 NA
ATOM      5  C   UNL     1      31.886  -9.714 -19.536  0.00  0.00    +0.125 C 
ATOM      6  C   UNL     1      31.439 -11.995 -20.398  0.00  0.00    +0.125 C 
ATOM      7  C   UNL     1      32.195 -10.355 -18.188  0.00  0.00    +0.164 C 
ATOM      8  C   UNL     1      31.770 -12.514 -19.003  0.00  0.00    +0.164 C 
ATOM      9  C   UNL     1      32.290 -10.221 -21.910  0.00  0.00    +0.184 C 
ATOM     10  C   UNL     1      33.074 -10.975 -22.784  0.00  0.00    +0.153 C 
ATOM     11  C   UNL     1      33.249 -10.473 -24.058  0.00  0.00    +0.195 C 
ATOM     12  C   UNL     1      31.971  -8.657 -23.571  0.00  0.00    +0.312 C 
ATOM     13  N   UNL     1      34.042 -11.230 -24.955  0.00  0.00    -0.238 N 
ATOM     14  H   UNL     1      34.191 -10.905 -25.872  0.00  0.00    +0.170 HD
ENDROOT
BRANCH  13  15
ATOM     15  N   UNL     1      34.590 -12.387 -24.559  0.00  0.00    -0.127 NA
BRANCH  15  16
ATOM     16  C   UNL     1      33.808 -13.404 -24.719  0.00  0.00    +0.138 C 
BRANCH  16  17
ATOM     17  C   UNL     1      34.290 -14.788 -24.572  0.00  0.00    -0.003 C 
ATOM     18  C   UNL     1      35.186 -16.538 -23.195  0.00  0.00    -0.022 C 
ATOM     19  C   UNL     1      34.730 -15.227 -23.334  0.00  0.00    -0.007 C 
ATOM     20  C   UNL     1      34.294 -15.625 -25.677  0.00  0.00    -0.003 C 
ATOM     21  C   UNL     1      35.196 -17.392 -24.298  0.00  0.00    -0.004 C 
ATOM     22  C   UNL     1      34.750 -16.937 -25.538  0.00  0.00    -0.001 C 
ATOM     23  C   UNL     1      35.663 -17.026 -21.869  0.00  0.00    +0.031 C 
ENDBRANCH  16  17
ENDBRANCH  15  16
ENDBRANCH  13  15
BRANCH  12  24
ATOM     24  O   UNL     1      31.407  -7.469 -23.973  0.00  0.00    -0.399 OA
BRANCH  24  25
ATOM     25  C   UNL     1      31.501  -6.380 -23.066  0.00  0.00    +0.229 C 
BRANCH  25  26
ATOM     26  C   UNL     1      32.942  -5.887 -23.001  0.00  0.00    +0.094 C 
BRANCH  26  28
ATOM     27  N   UNL     1      32.702  -4.465 -24.946  0.00  0.00    -0.248 NA
ATOM     28  C   UNL     1      33.446  -5.406 -24.340  0.00  0.00    +0.063 C 
ATOM     29  C   UNL     1      34.607  -5.949 -24.844  0.00  0.00    +0.015 C 
ATOM     30  C   UNL     1      35.044  -5.484 -26.079  0.00  0.00    +0.003 C 
ATOM     31  C   UNL     1      33.157  -4.038 -26.145  0.00  0.00    +0.098 C 
ATOM     32  C   UNL     1      34.311  -4.511 -26.749  0.00  0.00    +0.021 C 
ENDBRANCH  26  28
ENDBRANCH  25  26
ENDBRANCH  24  25
ENDBRANCH  12  24
TORSDOF 7
ENDMDL
