MODEL 1
REMARK VINA RESULT:     -12.6      0.000      0.000
REMARK  Name = 17748441
REMARK  5 active torsions:
REMARK  status: ('A' for Active; 'I' for Inactive)
REMARK    1  A    between atoms: C_2  and  N_10
REMARK    2  A    between atoms: C_3  and  O_24
REMARK    3  A    between atoms: C_12  and  C_16
REMARK    4  A    between atoms: C_16  and  C_18
REMARK    5  A    between atoms: O_24  and  C_27
REMARK                            x       y       z     vdW  Elec       q    Type
REMARK                         _______ _______ _______ _____ _____    ______ ____
ROOT
ATOM      1  F   UNL     1      31.229 -12.122 -19.919  0.00  0.00    -0.201 F 
ATOM      2  C   UNL     1      33.717 -14.208 -21.558  0.00  0.00    +0.054 C 
ATOM      3  C   UNL     1      32.222 -11.908 -22.064  0.00  0.00    +0.173 C 
ATOM      4  C   UNL     1      32.828 -13.729 -20.596  0.00  0.00    +0.047 C 
ATOM      5  C   UNL     1      33.858 -13.537 -22.773  0.00  0.00    +0.018 C 
ATOM      6  C   UNL     1      32.081 -12.579 -20.849  0.00  0.00    +0.176 C 
ATOM      7  C   UNL     1      33.110 -12.388 -23.026  0.00  0.00    +0.041 C 
ENDROOT
BRANCH   2  10
ATOM      8  O   UNL     1      36.496 -18.506 -23.402  0.00  0.00    -0.274 OA
ATOM      9  O   UNL     1      34.978 -16.162 -23.458  0.00  0.00    -0.252 OA
ATOM     10  N   UNL     1      34.475 -15.375 -21.303  0.00  0.00    -0.268 N 
ATOM     11  N   UNL     1      35.718 -17.293 -21.569  0.00  0.00    -0.239 N 
ATOM     12  C   UNL     1      36.396 -18.345 -22.189  0.00  0.00    +0.234 C 
ATOM     13  C   UNL     1      35.040 -16.252 -22.235  0.00  0.00    +0.310 C 
ATOM     14  H   UNL     1      34.621 -15.597 -20.354  0.00  0.00    +0.156 HD
ATOM     15  H   UNL     1      35.711 -17.278 -20.584  0.00  0.00    +0.159 HD
BRANCH  12  16
ATOM     16  C   UNL     1      37.008 -19.284 -21.165  0.00  0.00    +0.112 C 
BRANCH  16  18
ATOM     17  F   UNL     1      33.291 -22.893 -18.948  0.00  0.00    -0.204 F 
ATOM     18  C   UNL     1      36.014 -20.248 -20.572  0.00  0.00    -0.013 C 
ATOM     19  C   UNL     1      36.434 -21.196 -19.641  0.00  0.00    -0.001 C 
ATOM     20  C   UNL     1      34.674 -20.193 -20.955  0.00  0.00    -0.001 C 
ATOM     21  C   UNL     1      35.514 -22.090 -19.091  0.00  0.00    +0.029 C 
ATOM     22  C   UNL     1      33.754 -21.087 -20.407  0.00  0.00    +0.029 C 
ATOM     23  C   UNL     1      34.174 -22.035 -19.475  0.00  0.00    +0.140 C 
ENDBRANCH  16  18
ENDBRANCH  12  16
ENDBRANCH   2  10
BRANCH   3  24
ATOM     24  O   UNL     1      31.491 -10.787 -22.311  0.00  0.00    -0.451 OA
BRANCH  24  27
ATOM     25  N   UNL     1      33.503  -7.123 -22.330  0.00  0.00    -0.229 NA
ATOM     26  N   UNL     1      33.512  -7.133 -19.947  0.00  0.00    -0.343 N 
ATOM     27  C   UNL     1      32.157  -9.573 -22.317  0.00  0.00    +0.150 C 
ATOM     28  C   UNL     1      32.502  -8.959 -21.118  0.00  0.00    +0.071 C 
ATOM     29  C   UNL     1      32.486  -8.963 -23.522  0.00  0.00    +0.058 C 
ATOM     30  C   UNL     1      33.168  -7.746 -21.178  0.00  0.00    +0.128 C 
ATOM     31  C   UNL     1      33.153  -7.750 -23.476  0.00  0.00    +0.103 C 
ATOM     32  H   UNL     1      33.986  -6.270 -19.943  0.00  0.00    +0.144 HD
ATOM     33  H   UNL     1      33.276  -7.570 -19.097  0.00  0.00    +0.144 HD
ENDBRANCH  24  27
ENDBRANCH   3  24
TORSDOF 5
ENDMDL
MODEL 2
REMARK VINA RESULT:     -12.3      1.002      1.342
REMARK  Name = 17748441
REMARK  5 active torsions:
REMARK  status: ('A' for Active; 'I' for Inactive)
REMARK    1  A    between atoms: C_2  and  N_10
REMARK    2  A    between atoms: C_3  and  O_24
REMARK    3  A    between atoms: C_12  and  C_16
REMARK    4  A    between atoms: C_16  and  C_18
REMARK    5  A    between atoms: O_24  and  C_27
REMARK                            x       y       z     vdW  Elec       q    Type
REMARK                         _______ _______ _______ _____ _____    ______ ____
ROOT
ATOM      1  F   UNL     1      33.694 -11.517 -24.428  0.00  0.00    -0.201 F 
ATOM      2  C   UNL     1      33.845 -14.109 -21.882  0.00  0.00    +0.054 C 
ATOM      3  C   UNL     1      32.402 -11.792 -22.457  0.00  0.00    +0.173 C 
ATOM      4  C   UNL     1      34.134 -13.375 -23.032  0.00  0.00    +0.047 C 
ATOM      5  C   UNL     1      32.835 -13.684 -21.019  0.00  0.00    +0.018 C 
ATOM      6  C   UNL     1      33.412 -12.217 -23.320  0.00  0.00    +0.176 C 
ATOM      7  C   UNL     1      32.114 -12.525 -21.307  0.00  0.00    +0.041 C 
ENDROOT
BRANCH   2  10
ATOM      8  O   UNL     1      36.372 -18.619 -23.576  0.00  0.00    -0.274 OA
ATOM      9  O   UNL     1      34.932 -16.229 -23.710  0.00  0.00    -0.252 OA
ATOM     10  N   UNL     1      34.577 -15.284 -21.589  0.00  0.00    -0.268 N 
ATOM     11  N   UNL     1      35.738 -17.259 -21.790  0.00  0.00    -0.239 N 
ATOM     12  C   UNL     1      36.345 -18.375 -22.373  0.00  0.00    +0.234 C 
ATOM     13  C   UNL     1      35.060 -16.240 -22.488  0.00  0.00    +0.310 C 
ATOM     14  H   UNL     1      34.768 -15.447 -20.636  0.00  0.00    +0.156 HD
ATOM     15  H   UNL     1      35.787 -17.179 -20.809  0.00  0.00    +0.159 HD
BRANCH  12  16
ATOM     16  C   UNL     1      36.981 -19.266 -21.322  0.00  0.00    +0.112 C 
BRANCH  16  18
ATOM     17  F   UNL     1      33.338 -22.826 -18.914  0.00  0.00    -0.204 F 
ATOM     18  C   UNL     1      36.007 -20.217 -20.678  0.00  0.00    -0.013 C 
ATOM     19  C   UNL     1      36.464 -21.177 -19.776  0.00  0.00    -0.001 C 
ATOM     20  C   UNL     1      34.649 -20.139 -20.985  0.00  0.00    -0.001 C 
ATOM     21  C   UNL     1      35.562 -22.058 -19.180  0.00  0.00    +0.029 C 
ATOM     22  C   UNL     1      33.747 -21.021 -20.390  0.00  0.00    +0.029 C 
ATOM     23  C   UNL     1      34.203 -21.980 -19.486  0.00  0.00    +0.140 C 
ENDBRANCH  16  18
ENDBRANCH  12  16
ENDBRANCH   2  10
BRANCH   3  24
ATOM     24  O   UNL     1      31.699 -10.660 -22.737  0.00  0.00    -0.451 OA
BRANCH  24  27
ATOM     25  N   UNL     1      33.669  -6.998 -22.315  0.00  0.00    -0.229 NA
ATOM     26  N   UNL     1      33.484  -7.189 -19.947  0.00  0.00    -0.343 N 
ATOM     27  C   UNL     1      32.351  -9.447 -22.597  0.00  0.00    +0.150 C 
ATOM     28  C   UNL     1      32.591  -8.925 -21.331  0.00  0.00    +0.071 C 
ATOM     29  C   UNL     1      32.770  -8.746 -23.722  0.00  0.00    +0.058 C 
ATOM     30  C   UNL     1      33.247  -7.707 -21.244  0.00  0.00    +0.128 C 
ATOM     31  C   UNL     1      33.419  -7.536 -23.529  0.00  0.00    +0.103 C 
ATOM     32  H   UNL     1      33.947  -6.327 -19.838  0.00  0.00    +0.144 HD
ATOM     33  H   UNL     1      33.184  -7.691 -19.154  0.00  0.00    +0.144 HD
ENDBRANCH  24  27
ENDBRANCH   3  24
TORSDOF 5
ENDMDL
MODEL 3
REMARK VINA RESULT:     -12.1      5.363     12.431
REMARK  Name = 17748441
REMARK  5 active torsions:
REMARK  status: ('A' for Active; 'I' for Inactive)
REMARK    1  A    between atoms: C_2  and  N_10
REMARK    2  A    between atoms: C_3  and  O_24
REMARK    3  A    between atoms: C_12  and  C_16
REMARK    4  A    between atoms: C_16  and  C_18
REMARK    5  A    between atoms: O_24  and  C_27
REMARK                            x       y       z     vdW  Elec       q    Type
REMARK                         _______ _______ _______ _____ _____    ______ ____
ROOT
ATOM      1  F   UNL     1      34.323 -23.768 -16.787  0.00  0.00    -0.201 F 
ATOM      2  C   UNL     1      36.507 -21.420 -18.503  0.00  0.00    +0.054 C 
ATOM      3  C   UNL     1      36.418 -22.873 -16.124  0.00  0.00    +0.173 C 
ATOM      4  C   UNL     1      35.417 -22.247 -18.231  0.00  0.00    +0.047 C 
ATOM      5  C   UNL     1      37.552 -21.320 -17.585  0.00  0.00    +0.018 C 
ATOM      6  C   UNL     1      35.373 -22.974 -17.042  0.00  0.00    +0.176 C 
ATOM      7  C   UNL     1      37.507 -22.046 -16.395  0.00  0.00    +0.041 C 
ENDROOT
BRANCH   2  10
ATOM      8  O   UNL     1      34.039 -19.599 -22.996  0.00  0.00    -0.274 OA
ATOM      9  O   UNL     1      34.379 -20.931 -20.565  0.00  0.00    -0.252 OA
ATOM     10  N   UNL     1      36.552 -20.682 -19.709  0.00  0.00    -0.268 N 
ATOM     11  N   UNL     1      35.978 -19.690 -21.704  0.00  0.00    -0.239 N 
ATOM     12  C   UNL     1      35.215 -19.299 -22.807  0.00  0.00    +0.234 C 
ATOM     13  C   UNL     1      35.523 -20.489 -20.635  0.00  0.00    +0.310 C 
ATOM     14  H   UNL     1      37.414 -20.254 -19.922  0.00  0.00    +0.156 HD
ATOM     15  H   UNL     1      36.914 -19.383 -21.670  0.00  0.00    +0.159 HD
BRANCH  12  16
ATOM     16  C   UNL     1      36.027 -18.445 -23.762  0.00  0.00    +0.112 C 
BRANCH  16  18
ATOM     17  F   UNL     1      33.357 -13.754 -25.381  0.00  0.00    -0.204 F 
ATOM     18  C   UNL     1      35.313 -17.191 -24.195  0.00  0.00    -0.013 C 
ATOM     19  C   UNL     1      34.637 -17.159 -25.414  0.00  0.00    -0.001 C 
ATOM     20  C   UNL     1      35.328 -16.062 -23.376  0.00  0.00    -0.001 C 
ATOM     21  C   UNL     1      33.976 -15.998 -25.815  0.00  0.00    +0.029 C 
ATOM     22  C   UNL     1      34.668 -14.901 -23.777  0.00  0.00    +0.029 C 
ATOM     23  C   UNL     1      33.991 -14.868 -24.996  0.00  0.00    +0.140 C 
ENDBRANCH  16  18
ENDBRANCH  12  16
ENDBRANCH   2  10
BRANCH   3  24
ATOM     24  O   UNL     1      36.373 -23.581 -14.962  0.00  0.00    -0.451 OA
BRANCH  24  27
ATOM     25  N   UNL     1      38.389 -27.241 -14.838  0.00  0.00    -0.229 NA
ATOM     26  N   UNL     1      40.347 -26.120 -14.072  0.00  0.00    -0.343 N 
ATOM     27  C   UNL     1      37.042 -24.794 -14.921  0.00  0.00    +0.150 C 
ATOM     28  C   UNL     1      38.370 -24.846 -14.513  0.00  0.00    +0.071 C 
ATOM     29  C   UNL     1      36.387 -25.964 -15.287  0.00  0.00    +0.058 C 
ATOM     30  C   UNL     1      38.993 -26.083 -14.489  0.00  0.00    +0.128 C 
ATOM     31  C   UNL     1      37.098 -27.152 -15.228  0.00  0.00    +0.103 C 
ATOM     32  H   UNL     1      40.829 -26.977 -14.039  0.00  0.00    +0.144 HD
ATOM     33  H   UNL     1      40.805 -25.287 -13.814  0.00  0.00    +0.144 HD
ENDBRANCH  24  27
ENDBRANCH   3  24
TORSDOF 5
ENDMDL
MODEL 4
REMARK VINA RESULT:     -11.6      2.878     10.972
REMARK  Name = 17748441
REMARK  5 active torsions:
REMARK  status: ('A' for Active; 'I' for Inactive)
REMARK    1  A    between atoms: C_2  and  N_10
REMARK    2  A    between atoms: C_3  and  O_24
REMARK    3  A    between atoms: C_12  and  C_16
REMARK    4  A    between atoms: C_16  and  C_18
REMARK    5  A    between atoms: O_24  and  C_27
REMARK                            x       y       z     vdW  Elec       q    Type
REMARK                         _______ _______ _______ _____ _____    ______ ____
ROOT
ATOM      1  F   UNL     1      35.244 -18.682 -24.854  0.00  0.00    -0.201 F 
ATOM      2  C   UNL     1      34.930 -15.521 -23.083  0.00  0.00    +0.054 C 
ATOM      3  C   UNL     1      35.552 -18.188 -22.554  0.00  0.00    +0.173 C 
ATOM      4  C   UNL     1      34.931 -16.456 -24.119  0.00  0.00    +0.047 C 
ATOM      5  C   UNL     1      35.239 -15.921 -21.783  0.00  0.00    +0.018 C 
ATOM      6  C   UNL     1      35.243 -17.789 -23.854  0.00  0.00    +0.176 C 
ATOM      7  C   UNL     1      35.550 -17.255 -21.519  0.00  0.00    +0.041 C 
ENDROOT
BRANCH   2  10
ATOM      8  O   UNL     1      31.791 -11.165 -22.207  0.00  0.00    -0.274 OA
ATOM      9  O   UNL     1      32.751 -13.778 -21.974  0.00  0.00    -0.252 OA
ATOM     10  N   UNL     1      34.613 -14.168 -23.351  0.00  0.00    -0.268 N 
ATOM     11  N   UNL     1      33.608 -12.100 -23.332  0.00  0.00    -0.239 N 
ATOM     12  C   UNL     1      32.720 -11.072 -23.005  0.00  0.00    +0.234 C 
ATOM     13  C   UNL     1      33.580 -13.405 -22.800  0.00  0.00    +0.310 C 
ATOM     14  H   UNL     1      35.191 -13.711 -24.005  0.00  0.00    +0.156 HD
ATOM     15  H   UNL     1      34.312 -11.896 -23.990  0.00  0.00    +0.159 HD
BRANCH  12  16
ATOM     16  C   UNL     1      33.044  -9.801 -23.769  0.00  0.00    +0.112 C 
BRANCH  16  18
ATOM     17  F   UNL     1      30.906  -5.161 -21.393  0.00  0.00    -0.204 F 
ATOM     18  C   UNL     1      32.472  -8.561 -23.134  0.00  0.00    -0.013 C 
ATOM     19  C   UNL     1      31.494  -7.825 -23.800  0.00  0.00    -0.001 C 
ATOM     20  C   UNL     1      32.922  -8.149 -21.879  0.00  0.00    -0.001 C 
ATOM     21  C   UNL     1      30.964  -6.676 -23.212  0.00  0.00    +0.029 C 
ATOM     22  C   UNL     1      32.394  -7.000 -21.292  0.00  0.00    +0.029 C 
ATOM     23  C   UNL     1      31.414  -6.263 -21.957  0.00  0.00    +0.140 C 
ENDBRANCH  16  18
ENDBRANCH  12  16
ENDBRANCH   2  10
BRANCH   3  24
ATOM     24  O   UNL     1      35.854 -19.491 -22.296  0.00  0.00    -0.451 OA
BRANCH  24  27
ATOM     25  N   UNL     1      33.446 -21.534 -19.557  0.00  0.00    -0.229 NA
ATOM     26  N   UNL     1      35.401 -22.420 -18.522  0.00  0.00    -0.343 N 
ATOM     27  C   UNL     1      35.057 -20.168 -21.388  0.00  0.00    +0.150 C 
ATOM     28  C   UNL     1      35.637 -20.960 -20.404  0.00  0.00    +0.071 C 
ATOM     29  C   UNL     1      33.673 -20.058 -21.458  0.00  0.00    +0.058 C 
ATOM     30  C   UNL     1      34.795 -21.616 -19.520  0.00  0.00    +0.128 C 
ATOM     31  C   UNL     1      32.918 -20.755 -20.527  0.00  0.00    +0.103 C 
ATOM     32  H   UNL     1      34.842 -22.904 -17.873  0.00  0.00    +0.144 HD
ATOM     33  H   UNL     1      36.382 -22.493 -18.478  0.00  0.00    +0.144 HD
ENDBRANCH  24  27
ENDBRANCH   3  24
TORSDOF 5
ENDMDL
MODEL 5
REMARK VINA RESULT:     -11.5      4.725      7.658
REMARK  Name = 17748441
REMARK  5 active torsions:
REMARK  status: ('A' for Active; 'I' for Inactive)
REMARK    1  A    between atoms: C_2  and  N_10
REMARK    2  A    between atoms: C_3  and  O_24
REMARK    3  A    between atoms: C_12  and  C_16
REMARK    4  A    between atoms: C_16  and  C_18
REMARK    5  A    between atoms: O_24  and  C_27
REMARK                            x       y       z     vdW  Elec       q    Type
REMARK                         _______ _______ _______ _____ _____    ______ ____
ROOT
ATOM      1  F   UNL     1      33.723 -19.757 -23.047  0.00  0.00    -0.201 F 
ATOM      2  C   UNL     1      36.599 -19.803 -20.820  0.00  0.00    +0.054 C 
ATOM      3  C   UNL     1      35.845 -18.721 -23.278  0.00  0.00    +0.173 C 
ATOM      4  C   UNL     1      35.326 -20.055 -21.332  0.00  0.00    +0.047 C 
ATOM      5  C   UNL     1      37.494 -19.010 -21.538  0.00  0.00    +0.018 C 
ATOM      6  C   UNL     1      34.949 -19.513 -22.561  0.00  0.00    +0.176 C 
ATOM      7  C   UNL     1      37.117 -18.470 -22.767  0.00  0.00    +0.041 C 
ENDROOT
BRANCH   2  10
ATOM      8  O   UNL     1      35.841 -23.453 -16.858  0.00  0.00    -0.274 OA
ATOM      9  O   UNL     1      35.428 -22.085 -19.259  0.00  0.00    -0.252 OA
ATOM     10  N   UNL     1      36.982 -20.352 -19.574  0.00  0.00    -0.268 N 
ATOM     11  N   UNL     1      37.078 -21.655 -17.681  0.00  0.00    -0.239 N 
ATOM     12  C   UNL     1      36.760 -22.647 -16.749  0.00  0.00    +0.234 C 
ATOM     13  C   UNL     1      36.395 -21.422 -18.892  0.00  0.00    +0.310 C 
ATOM     14  H   UNL     1      37.755 -19.928 -19.135  0.00  0.00    +0.156 HD
ATOM     15  H   UNL     1      37.842 -21.069 -17.474  0.00  0.00    +0.159 HD
BRANCH  12  16
ATOM     16  C   UNL     1      37.705 -22.609 -15.562  0.00  0.00    +0.112 C 
BRANCH  16  18
ATOM     17  F   UNL     1      37.245 -27.108 -12.202  0.00  0.00    -0.204 F 
ATOM     18  C   UNL     1      37.582 -23.811 -14.664  0.00  0.00    -0.013 C 
ATOM     19  C   UNL     1      38.273 -24.983 -14.970  0.00  0.00    -0.001 C 
ATOM     20  C   UNL     1      36.777 -23.753 -13.526  0.00  0.00    -0.001 C 
ATOM     21  C   UNL     1      38.159 -26.097 -14.138  0.00  0.00    +0.029 C 
ATOM     22  C   UNL     1      36.663 -24.867 -12.695  0.00  0.00    +0.029 C 
ATOM     23  C   UNL     1      37.354 -26.039 -13.000  0.00  0.00    +0.140 C 
ENDBRANCH  16  18
ENDBRANCH  12  16
ENDBRANCH   2  10
BRANCH   3  24
ATOM     24  O   UNL     1      35.477 -18.194 -24.479  0.00  0.00    -0.451 OA
BRANCH  24  27
ATOM     25  N   UNL     1      34.117 -14.242 -24.529  0.00  0.00    -0.229 NA
ATOM     26  N   UNL     1      33.161 -14.614 -26.680  0.00  0.00    -0.343 N 
ATOM     27  C   UNL     1      35.027 -16.884 -24.496  0.00  0.00    +0.150 C 
ATOM     28  C   UNL     1      34.315 -16.405 -25.590  0.00  0.00    +0.071 C 
ATOM     29  C   UNL     1      35.284 -16.044 -23.419  0.00  0.00    +0.058 C 
ATOM     30  C   UNL     1      33.886 -15.088 -25.558  0.00  0.00    +0.128 C 
ATOM     31  C   UNL     1      34.811 -14.743 -23.483  0.00  0.00    +0.103 C 
ATOM     32  H   UNL     1      32.837 -13.685 -26.700  0.00  0.00    +0.144 HD
ATOM     33  H   UNL     1      32.983 -15.215 -27.440  0.00  0.00    +0.144 HD
ENDBRANCH  24  27
ENDBRANCH   3  24
TORSDOF 5
ENDMDL
MODEL 6
REMARK VINA RESULT:     -11.5      5.842      9.215
REMARK  Name = 17748441
REMARK  5 active torsions:
REMARK  status: ('A' for Active; 'I' for Inactive)
REMARK    1  A    between atoms: C_2  and  N_10
REMARK    2  A    between atoms: C_3  and  O_24
REMARK    3  A    between atoms: C_12  and  C_16
REMARK    4  A    between atoms: C_16  and  C_18
REMARK    5  A    between atoms: O_24  and  C_27
REMARK                            x       y       z     vdW  Elec       q    Type
REMARK                         _______ _______ _______ _____ _____    ______ ____
ROOT
ATOM      1  F   UNL     1      37.217 -21.535 -20.256  0.00  0.00    -0.201 F 
ATOM      2  C   UNL     1      33.674 -21.726 -19.456  0.00  0.00    +0.054 C 
ATOM      3  C   UNL     1      35.398 -20.251 -21.078  0.00  0.00    +0.173 C 
ATOM      4  C   UNL     1      35.042 -22.001 -19.452  0.00  0.00    +0.047 C 
ATOM      5  C   UNL     1      33.169 -20.713 -20.271  0.00  0.00    +0.018 C 
ATOM      6  C   UNL     1      35.904 -21.264 -20.263  0.00  0.00    +0.176 C 
ATOM      7  C   UNL     1      34.032 -19.975 -21.081  0.00  0.00    +0.041 C 
ENDROOT
BRANCH   2  10
ATOM      8  O   UNL     1      32.755 -24.490 -14.861  0.00  0.00    -0.274 OA
ATOM      9  O   UNL     1      34.134 -22.986 -16.769  0.00  0.00    -0.252 OA
ATOM     10  N   UNL     1      32.799 -22.474 -18.633  0.00  0.00    -0.268 N 
ATOM     11  N   UNL     1      31.928 -23.704 -16.895  0.00  0.00    -0.239 N 
ATOM     12  C   UNL     1      31.843 -24.382 -15.676  0.00  0.00    +0.234 C 
ATOM     13  C   UNL     1      33.071 -23.039 -17.383  0.00  0.00    +0.310 C 
ATOM     14  H   UNL     1      31.889 -22.613 -18.983  0.00  0.00    +0.156 HD
ATOM     15  H   UNL     1      31.122 -23.691 -17.462  0.00  0.00    +0.159 HD
BRANCH  12  16
ATOM     16  C   UNL     1      30.464 -24.981 -15.475  0.00  0.00    +0.112 C 
BRANCH  16  18
ATOM     17  F   UNL     1      26.294 -21.621 -17.228  0.00  0.00    -0.204 F 
ATOM     18  C   UNL     1      29.350 -24.083 -15.944  0.00  0.00    -0.013 C 
ATOM     19  C   UNL     1      28.899 -23.047 -15.127  0.00  0.00    -0.001 C 
ATOM     20  C   UNL     1      28.768 -24.287 -17.195  0.00  0.00    -0.001 C 
ATOM     21  C   UNL     1      27.867 -22.215 -15.561  0.00  0.00    +0.029 C 
ATOM     22  C   UNL     1      27.735 -23.456 -17.629  0.00  0.00    +0.029 C 
ATOM     23  C   UNL     1      27.285 -22.419 -16.812  0.00  0.00    +0.140 C 
ENDBRANCH  16  18
ENDBRANCH  12  16
ENDBRANCH   2  10
BRANCH   3  24
ATOM     24  O   UNL     1      36.240 -19.530 -21.868  0.00  0.00    -0.451 OA
BRANCH  24  27
ATOM     25  N   UNL     1      34.569 -17.410 -25.059  0.00  0.00    -0.229 NA
ATOM     26  N   UNL     1      35.218 -15.365 -24.021  0.00  0.00    -0.343 N 
ATOM     27  C   UNL     1      35.686 -18.827 -22.925  0.00  0.00    +0.150 C 
ATOM     28  C   UNL     1      35.732 -17.437 -22.940  0.00  0.00    +0.071 C 
ATOM     29  C   UNL     1      35.083 -19.508 -23.976  0.00  0.00    +0.058 C 
ATOM     30  C   UNL     1      35.164 -16.782 -24.021  0.00  0.00    +0.128 C 
ATOM     31  C   UNL     1      34.544 -18.760 -25.010  0.00  0.00    +0.103 C 
ATOM     32  H   UNL     1      34.827 -14.858 -24.769  0.00  0.00    +0.144 HD
ATOM     33  H   UNL     1      35.647 -14.889 -23.274  0.00  0.00    +0.144 HD
ENDBRANCH  24  27
ENDBRANCH   3  24
TORSDOF 5
ENDMDL
MODEL 7
REMARK VINA RESULT:     -11.4      1.165      1.616
REMARK  Name = 17748441
REMARK  5 active torsions:
REMARK  status: ('A' for Active; 'I' for Inactive)
REMARK    1  A    between atoms: C_2  and  N_10
REMARK    2  A    between atoms: C_3  and  O_24
REMARK    3  A    between atoms: C_12  and  C_16
REMARK    4  A    between atoms: C_16  and  C_18
REMARK    5  A    between atoms: O_24  and  C_27
REMARK                            x       y       z     vdW  Elec       q    Type
REMARK                         _______ _______ _______ _____ _____    ______ ____
ROOT
ATOM      1  F   UNL     1      31.436 -11.401 -21.807  0.00  0.00    -0.201 F 
ATOM      2  C   UNL     1      34.168 -13.609 -22.752  0.00  0.00    +0.054 C 
ATOM      3  C   UNL     1      32.971 -11.239 -23.609  0.00  0.00    +0.173 C 
ATOM      4  C   UNL     1      33.079 -13.085 -22.054  0.00  0.00    +0.047 C 
ATOM      5  C   UNL     1      34.657 -12.947 -23.878  0.00  0.00    +0.018 C 
ATOM      6  C   UNL     1      32.481 -11.900 -22.483  0.00  0.00    +0.176 C 
ATOM      7  C   UNL     1      34.058 -11.763 -24.307  0.00  0.00    +0.041 C 
ENDROOT
BRANCH   2  10
ATOM      8  O   UNL     1      35.841 -18.677 -23.805  0.00  0.00    -0.274 OA
ATOM      9  O   UNL     1      34.717 -16.158 -24.242  0.00  0.00    -0.252 OA
ATOM     10  N   UNL     1      34.775 -14.811 -22.318  0.00  0.00    -0.268 N 
ATOM     11  N   UNL     1      35.634 -16.944 -22.258  0.00  0.00    -0.239 N 
ATOM     12  C   UNL     1      36.009 -18.223 -22.676  0.00  0.00    +0.234 C 
ATOM     13  C   UNL     1      35.005 -15.972 -23.062  0.00  0.00    +0.310 C 
ATOM     14  H   UNL     1      35.070 -14.831 -21.378  0.00  0.00    +0.156 HD
ATOM     15  H   UNL     1      35.824 -16.700 -21.322  0.00  0.00    +0.159 HD
BRANCH  12  16
ATOM     16  C   UNL     1      36.660 -19.002 -21.548  0.00  0.00    +0.112 C 
BRANCH  16  18
ATOM     17  F   UNL     1      33.201 -22.732 -19.125  0.00  0.00    -0.204 F 
ATOM     18  C   UNL     1      35.735 -19.999 -20.901  0.00  0.00    -0.013 C 
ATOM     19  C   UNL     1      34.357 -19.887 -21.076  0.00  0.00    -0.001 C 
ATOM     20  C   UNL     1      36.258 -21.034 -20.125  0.00  0.00    -0.001 C 
ATOM     21  C   UNL     1      33.500 -20.811 -20.476  0.00  0.00    +0.029 C 
ATOM     22  C   UNL     1      35.402 -21.957 -19.525  0.00  0.00    +0.029 C 
ATOM     23  C   UNL     1      34.023 -21.846 -19.700  0.00  0.00    +0.140 C 
ENDBRANCH  16  18
ENDBRANCH  12  16
ENDBRANCH   2  10
BRANCH   3  24
ATOM     24  O   UNL     1      32.386 -10.084 -24.029  0.00  0.00    -0.451 OA
BRANCH  24  27
ATOM     25  N   UNL     1      33.691  -6.509 -22.300  0.00  0.00    -0.229 NA
ATOM     26  N   UNL     1      31.475  -6.092 -21.527  0.00  0.00    -0.343 N 
ATOM     27  C   UNL     1      32.818  -8.899 -23.456  0.00  0.00    +0.150 C 
ATOM     28  C   UNL     1      31.920  -8.085 -22.774  0.00  0.00    +0.071 C 
ATOM     29  C   UNL     1      34.151  -8.520 -23.560  0.00  0.00    +0.058 C 
ATOM     30  C   UNL     1      32.403  -6.911 -22.219  0.00  0.00    +0.128 C 
ATOM     31  C   UNL     1      34.534  -7.326 -22.970  0.00  0.00    +0.103 C 
ATOM     32  H   UNL     1      31.774  -5.248 -21.117  0.00  0.00    +0.144 HD
ATOM     33  H   UNL     1      30.533  -6.367 -21.457  0.00  0.00    +0.144 HD
ENDBRANCH  24  27
ENDBRANCH   3  24
TORSDOF 5
ENDMDL
MODEL 8
REMARK VINA RESULT:     -11.4      4.844      7.605
REMARK  Name = 17748441
REMARK  5 active torsions:
REMARK  status: ('A' for Active; 'I' for Inactive)
REMARK    1  A    between atoms: C_2  and  N_10
REMARK    2  A    between atoms: C_3  and  O_24
REMARK    3  A    between atoms: C_12  and  C_16
REMARK    4  A    between atoms: C_16  and  C_18
REMARK    5  A    between atoms: O_24  and  C_27
REMARK                            x       y       z     vdW  Elec       q    Type
REMARK                         _______ _______ _______ _____ _____    ______ ____
ROOT
ATOM      1  F   UNL     1      38.221 -18.520 -22.674  0.00  0.00    -0.201 F 
ATOM      2  C   UNL     1      35.739 -20.244 -20.650  0.00  0.00    +0.054 C 
ATOM      3  C   UNL     1      35.921 -18.918 -23.097  0.00  0.00    +0.173 C 
ATOM      4  C   UNL     1      36.956 -19.701 -21.061  0.00  0.00    +0.047 C 
ATOM      5  C   UNL     1      34.612 -20.123 -21.464  0.00  0.00    +0.018 C 
ATOM      6  C   UNL     1      37.047 -19.038 -22.284  0.00  0.00    +0.176 C 
ATOM      7  C   UNL     1      34.703 -19.459 -22.687  0.00  0.00    +0.041 C 
ENDROOT
BRANCH   2  10
ATOM      8  O   UNL     1      33.758 -24.329 -17.653  0.00  0.00    -0.274 OA
ATOM      9  O   UNL     1      34.216 -22.717 -19.888  0.00  0.00    -0.252 OA
ATOM     10  N   UNL     1      35.645 -20.916 -19.409  0.00  0.00    -0.268 N 
ATOM     11  N   UNL     1      35.089 -22.417 -17.757  0.00  0.00    -0.239 N 
ATOM     12  C   UNL     1      34.504 -23.514 -17.119  0.00  0.00    +0.234 C 
ATOM     13  C   UNL     1      34.915 -22.071 -19.112  0.00  0.00    +0.310 C 
ATOM     14  H   UNL     1      36.156 -20.521 -18.664  0.00  0.00    +0.156 HD
ATOM     15  H   UNL     1      35.671 -21.836 -17.214  0.00  0.00    +0.159 HD
BRANCH  12  16
ATOM     16  C   UNL     1      34.909 -23.580 -15.658  0.00  0.00    +0.112 C 
BRANCH  16  18
ATOM     17  F   UNL     1      39.561 -26.632 -14.768  0.00  0.00    -0.204 F 
ATOM     18  C   UNL     1      36.152 -24.396 -15.420  0.00  0.00    -0.013 C 
ATOM     19  C   UNL     1      37.385 -23.761 -15.275  0.00  0.00    -0.001 C 
ATOM     20  C   UNL     1      36.071 -25.787 -15.344  0.00  0.00    -0.001 C 
ATOM     21  C   UNL     1      38.537 -24.517 -15.055  0.00  0.00    +0.029 C 
ATOM     22  C   UNL     1      37.222 -26.542 -15.125  0.00  0.00    +0.029 C 
ATOM     23  C   UNL     1      38.456 -25.907 -14.979  0.00  0.00    +0.140 C 
ENDBRANCH  16  18
ENDBRANCH  12  16
ENDBRANCH   2  10
BRANCH   3  24
ATOM     24  O   UNL     1      36.009 -18.268 -24.291  0.00  0.00    -0.451 OA
BRANCH  24  27
ATOM     25  N   UNL     1      33.852 -14.716 -24.736  0.00  0.00    -0.229 NA
ATOM     26  N   UNL     1      34.716 -13.948 -22.652  0.00  0.00    -0.343 N 
ATOM     27  C   UNL     1      35.294 -17.092 -24.438  0.00  0.00    +0.150 C 
ATOM     28  C   UNL     1      35.366 -16.104 -23.461  0.00  0.00    +0.071 C 
ATOM     29  C   UNL     1      34.503 -16.892 -25.563  0.00  0.00    +0.058 C 
ATOM     30  C   UNL     1      34.632 -14.945 -23.656  0.00  0.00    +0.128 C 
ATOM     31  C   UNL     1      33.807 -15.698 -25.664  0.00  0.00    +0.103 C 
ATOM     32  H   UNL     1      34.211 -13.109 -22.749  0.00  0.00    +0.144 HD
ATOM     33  H   UNL     1      35.278 -14.096 -21.857  0.00  0.00    +0.144 HD
ENDBRANCH  24  27
ENDBRANCH   3  24
TORSDOF 5
ENDMDL
MODEL 9
REMARK VINA RESULT:     -11.3      5.451     12.164
REMARK  Name = 17748441
REMARK  5 active torsions:
REMARK  status: ('A' for Active; 'I' for Inactive)
REMARK    1  A    between atoms: C_2  and  N_10
REMARK    2  A    between atoms: C_3  and  O_24
REMARK    3  A    between atoms: C_12  and  C_16
REMARK    4  A    between atoms: C_16  and  C_18
REMARK    5  A    between atoms: O_24  and  C_27
REMARK                            x       y       z     vdW  Elec       q    Type
REMARK                         _______ _______ _______ _____ _____    ______ ____
ROOT
ATOM      1  F   UNL     1      32.525 -23.923 -16.768  0.00  0.00    -0.201 F 
ATOM      2  C   UNL     1      34.836 -22.053 -18.864  0.00  0.00    +0.054 C 
ATOM      3  C   UNL     1      34.797 -23.350 -16.394  0.00  0.00    +0.173 C 
ATOM      4  C   UNL     1      33.669 -22.676 -18.421  0.00  0.00    +0.047 C 
ATOM      5  C   UNL     1      35.984 -22.079 -18.070  0.00  0.00    +0.018 C 
ATOM      6  C   UNL     1      33.650 -23.325 -17.187  0.00  0.00    +0.176 C 
ATOM      7  C   UNL     1      35.963 -22.727 -16.836  0.00  0.00    +0.041 C 
ENDROOT
BRANCH   2  10
ATOM      8  O   UNL     1      37.229 -18.602 -22.322  0.00  0.00    -0.274 OA
ATOM      9  O   UNL     1      36.809 -20.094 -19.998  0.00  0.00    -0.252 OA
ATOM     10  N   UNL     1      34.857 -21.395 -20.116  0.00  0.00    -0.268 N 
ATOM     11  N   UNL     1      35.461 -20.061 -21.889  0.00  0.00    -0.239 N 
ATOM     12  C   UNL     1      36.187 -19.153 -22.665  0.00  0.00    +0.234 C 
ATOM     13  C   UNL     1      35.808 -20.487 -20.591  0.00  0.00    +0.310 C 
ATOM     14  H   UNL     1      34.111 -21.601 -20.725  0.00  0.00    +0.156 HD
ATOM     15  H   UNL     1      34.638 -20.433 -22.281  0.00  0.00    +0.159 HD
BRANCH  12  16
ATOM     16  C   UNL     1      35.522 -18.924 -24.009  0.00  0.00    +0.112 C 
BRANCH  16  18
ATOM     17  F   UNL     1      34.002 -13.565 -24.863  0.00  0.00    -0.204 F 
ATOM     18  C   UNL     1      35.115 -17.492 -24.237  0.00  0.00    -0.013 C 
ATOM     19  C   UNL     1      34.572 -17.108 -25.463  0.00  0.00    -0.001 C 
ATOM     20  C   UNL     1      35.282 -16.549 -23.223  0.00  0.00    -0.001 C 
ATOM     21  C   UNL     1      34.196 -15.781 -25.674  0.00  0.00    +0.029 C 
ATOM     22  C   UNL     1      34.907 -15.222 -23.434  0.00  0.00    +0.029 C 
ATOM     23  C   UNL     1      34.363 -14.838 -24.660  0.00  0.00    +0.140 C 
ENDBRANCH  16  18
ENDBRANCH  12  16
ENDBRANCH   2  10
BRANCH   3  24
ATOM     24  O   UNL     1      34.777 -23.981 -15.188  0.00  0.00    -0.451 OA
BRANCH  24  27
ATOM     25  N   UNL     1      38.042 -26.399 -14.207  0.00  0.00    -0.229 NA
ATOM     26  N   UNL     1      38.703 -24.811 -12.557  0.00  0.00    -0.343 N 
ATOM     27  C   UNL     1      35.859 -24.782 -14.863  0.00  0.00    +0.150 C 
ATOM     28  C   UNL     1      36.744 -24.389 -13.865  0.00  0.00    +0.071 C 
ATOM     29  C   UNL     1      36.065 -25.982 -15.533  0.00  0.00    +0.058 C 
ATOM     30  C   UNL     1      37.810 -25.226 -13.577  0.00  0.00    +0.128 C 
ATOM     31  C   UNL     1      37.162 -26.748 -15.171  0.00  0.00    +0.103 C 
ATOM     32  H   UNL     1      39.474 -25.375 -12.319  0.00  0.00    +0.144 HD
ATOM     33  H   UNL     1      38.551 -23.960 -12.086  0.00  0.00    +0.144 HD
ENDBRANCH  24  27
ENDBRANCH   3  24
TORSDOF 5
ENDMDL
