MODEL 1
REMARK VINA RESULT:     -11.2      0.000      0.000
REMARK  Name = 445018
REMARK  7 active torsions:
REMARK  status: ('A' for Active; 'I' for Inactive)
REMARK    1  A    between atoms: N_2  and  S_14
REMARK    2  A    between atoms: N_3  and  C_25
REMARK    3  A    between atoms: C_4  and  C_10
REMARK    4  A    between atoms: N_9  and  O_12
REMARK    5  A    between atoms: S_14  and  C_17
REMARK    6  A    between atoms: C_22  and  O_23
REMARK    7  A    between atoms: C_25  and  C_26
REMARK                            x       y       z     vdW  Elec       q    Type
REMARK                         _______ _______ _______ _____ _____    ______ ____
ROOT
ATOM      1  O   UNL     1      36.475 -22.758 -17.411  0.00  0.00    -0.275 OA
ATOM      2  N   UNL     1      33.343 -24.051 -15.119  0.00  0.00    -0.128 NA
ATOM      3  N   UNL     1      34.216 -23.312 -17.269  0.00  0.00    -0.260 N 
ATOM      4  C   UNL     1      34.606 -23.629 -14.460  0.00  0.00    +0.168 C 
ATOM      5  C   UNL     1      33.051 -23.358 -16.397  0.00  0.00    +0.192 C 
ATOM      6  C   UNL     1      35.410 -22.618 -15.268  0.00  0.00    +0.112 C 
ATOM      7  C   UNL     1      35.446 -22.913 -16.756  0.00  0.00    +0.229 C 
ENDROOT
BRANCH   4  10
ATOM      8  O   UNL     1      35.564 -25.681 -15.189  0.00  0.00    -0.272 OA
ATOM      9  N   UNL     1      35.830 -25.053 -12.981  0.00  0.00    -0.196 N 
ATOM     10  C   UNL     1      35.375 -24.895 -14.263  0.00  0.00    +0.261 C 
ATOM     11  H   UNL     1      35.649 -24.390 -12.276  0.00  0.00    +0.182 HD
BRANCH   9  12
ATOM     12  O   UNL     1      36.571 -26.217 -12.735  0.00  0.00    -0.295 OA
ATOM     13  H   UNL     1      37.419 -26.166 -13.203  0.00  0.00    +0.241 HD
ENDBRANCH   9  12
ENDBRANCH   4  10
BRANCH   2  14
ATOM     14  S   UNL     1      32.003 -24.361 -14.105  0.00  0.00    +0.065 S 
ATOM     15  O   UNL     1      31.944 -23.347 -13.073  0.00  0.00    -0.153 OA
ATOM     16  O   UNL     1      31.979 -25.768 -13.766  0.00  0.00    -0.153 OA
BRANCH  14  17
ATOM     17  C   UNL     1      30.680 -24.054 -15.234  0.00  0.00    +0.122 C 
ATOM     18  C   UNL     1      30.269 -22.751 -15.460  0.00  0.00    +0.023 C 
ATOM     19  C   UNL     1      30.076 -25.123 -15.875  0.00  0.00    +0.023 C 
ATOM     20  C   UNL     1      29.223 -22.509 -16.351  0.00  0.00    +0.038 C 
ATOM     21  C   UNL     1      29.030 -24.882 -16.768  0.00  0.00    +0.038 C 
ATOM     22  C   UNL     1      28.604 -23.574 -17.005  0.00  0.00    +0.139 C 
BRANCH  22  23
ATOM     23  O   UNL     1      27.585 -23.338 -17.876  0.00  0.00    -0.471 OA
ATOM     24  C   UNL     1      26.882 -22.105 -17.733  0.00  0.00    +0.252 C 
ENDBRANCH  22  23
ENDBRANCH  14  17
ENDBRANCH   2  14
BRANCH   3  25
ATOM     25  C   UNL     1      34.023 -23.557 -18.688  0.00  0.00    +0.121 C 
BRANCH  25  26
ATOM     26  C   UNL     1      34.152 -22.299 -19.497  0.00  0.00    -0.002 C 
ATOM     27  C   UNL     1      33.034 -21.502 -19.713  0.00  0.00    -0.003 C 
ATOM     28  C   UNL     1      35.389 -21.943 -20.025  0.00  0.00    -0.003 C 
ATOM     29  C   UNL     1      33.154 -20.333 -20.465  0.00  0.00    -0.000 C 
ATOM     30  C   UNL     1      35.509 -20.775 -20.776  0.00  0.00    -0.000 C 
ATOM     31  C   UNL     1      34.391 -19.970 -20.997  0.00  0.00    -0.000 C 
ENDBRANCH  25  26
ENDBRANCH   3  25
TORSDOF 7
ENDMDL
