MODEL 1
REMARK VINA RESULT:     -11.0      0.000      0.000
REMARK  Name = 10453870
REMARK  8 active torsions:
REMARK  status: ('A' for Active; 'I' for Inactive)
REMARK    1  A    between atoms: C_2  and  C_12
REMARK    2  A    between atoms: C_5  and  C_23
REMARK    3  A    between atoms: C_9  and  O_14
REMARK    4  A    between atoms: C_10  and  O_16
REMARK    5  A    between atoms: C_11  and  O_18
REMARK    6  A    between atoms: C_13  and  C_20
REMARK    7  A    between atoms: C_20  and  O_21
REMARK    8  A    between atoms: C_23  and  C_25
REMARK                            x       y       z     vdW  Elec       q    Type
REMARK                         _______ _______ _______ _____ _____    ______ ____
ROOT
ATOM      1  F   UNL     1      31.306 -22.705 -17.681  0.00  0.00    -0.204 F 
ATOM      2  C   UNL     1      34.453 -23.544 -15.144  0.00  0.00    +0.007 C 
ATOM      3  C   UNL     1      34.618 -23.684 -16.522  0.00  0.00    -0.004 C 
ATOM      4  C   UNL     1      33.231 -23.122 -14.625  0.00  0.00    +0.000 C 
ATOM      5  C   UNL     1      33.556 -23.401 -17.381  0.00  0.00    +0.010 C 
ATOM      6  C   UNL     1      32.170 -22.839 -15.484  0.00  0.00    +0.029 C 
ATOM      7  C   UNL     1      32.332 -22.979 -16.863  0.00  0.00    +0.136 C 
ENDROOT
BRANCH   2  12
ATOM      8  O   UNL     1      36.485 -24.757 -14.886  0.00  0.00    -0.347 OA
ATOM      9  C   UNL     1      35.124 -24.450 -12.880  0.00  0.00    +0.171 C 
ATOM     10  C   UNL     1      36.309 -24.899 -12.020  0.00  0.00    +0.169 C 
ATOM     11  C   UNL     1      37.292 -25.748 -12.826  0.00  0.00    +0.169 C 
ATOM     12  C   UNL     1      35.606 -23.851 -14.210  0.00  0.00    +0.167 C 
ATOM     13  C   UNL     1      37.664 -25.049 -14.136  0.00  0.00    +0.174 C 
BRANCH   9  14
ATOM     14  O   UNL     1      34.389 -23.453 -12.170  0.00  0.00    -0.379 OA
ATOM     15  H   UNL     1      34.634 -23.476 -11.232  0.00  0.00    +0.211 HD
ENDBRANCH   9  14
BRANCH  10  16
ATOM     16  O   UNL     1      35.832 -25.693 -10.931  0.00  0.00    -0.379 OA
ATOM     17  H   UNL     1      36.580 -25.973 -10.382  0.00  0.00    +0.211 HD
ENDBRANCH  10  16
BRANCH  11  18
ATOM     18  O   UNL     1      38.471 -25.963 -12.056  0.00  0.00    -0.379 OA
ATOM     19  H   UNL     1      38.758 -26.884 -12.153  0.00  0.00    +0.211 HD
ENDBRANCH  11  18
BRANCH  13  20
ATOM     20  C   UNL     1      38.557 -25.924 -15.008  0.00  0.00    +0.169 C 
BRANCH  20  21
ATOM     21  O   UNL     1      38.228 -27.282 -14.774  0.00  0.00    -0.379 OA
ATOM     22  H   UNL     1      38.715 -27.845 -15.395  0.00  0.00    +0.211 HD
ENDBRANCH  20  21
ENDBRANCH  13  20
ENDBRANCH   2  12
BRANCH   5  23
ATOM     23  C   UNL     1      33.733 -23.552 -18.855  0.00  0.00    +0.061 C 
BRANCH  23  25
ATOM     24  S   UNL     1      33.421 -21.249 -20.330  0.00  0.00    -0.091 S 
ATOM     25  C   UNL     1      34.395 -22.357 -19.510  0.00  0.00    +0.012 C 
ATOM     26  C   UNL     1      35.712 -22.055 -19.521  0.00  0.00    +0.003 C 
ATOM     27  C   UNL     1      35.973 -20.842 -20.240  0.00  0.00    +0.006 C 
ATOM     28  C   UNL     1      34.791 -20.287 -20.743  0.00  0.00    +0.029 C 
ATOM     29  C   UNL     1      37.191 -20.166 -20.496  0.00  0.00    +0.001 C 
ATOM     30  C   UNL     1      34.797 -19.091 -21.486  0.00  0.00    +0.006 C 
ATOM     31  C   UNL     1      37.199 -18.979 -21.233  0.00  0.00    +0.000 C 
ATOM     32  C   UNL     1      36.014 -18.448 -21.723  0.00  0.00    +0.001 C 
ENDBRANCH  23  25
ENDBRANCH   5  23
TORSDOF 8
ENDMDL
MODEL 2
REMARK VINA RESULT:     -10.7      1.227      2.209
REMARK  Name = 10453870
REMARK  8 active torsions:
REMARK  status: ('A' for Active; 'I' for Inactive)
REMARK    1  A    between atoms: C_2  and  C_12
REMARK    2  A    between atoms: C_5  and  C_23
REMARK    3  A    between atoms: C_9  and  O_14
REMARK    4  A    between atoms: C_10  and  O_16
REMARK    5  A    between atoms: C_11  and  O_18
REMARK    6  A    between atoms: C_13  and  C_20
REMARK    7  A    between atoms: C_20  and  O_21
REMARK    8  A    between atoms: C_23  and  C_25
REMARK                            x       y       z     vdW  Elec       q    Type
REMARK                         _______ _______ _______ _____ _____    ______ ____
ROOT
ATOM      1  F   UNL     1      31.097 -22.424 -17.191  0.00  0.00    -0.204 F 
ATOM      2  C   UNL     1      34.363 -23.984 -15.206  0.00  0.00    +0.007 C 
ATOM      3  C   UNL     1      34.328 -23.997 -16.599  0.00  0.00    -0.004 C 
ATOM      4  C   UNL     1      33.299 -23.446 -14.484  0.00  0.00    +0.000 C 
ATOM      5  C   UNL     1      33.226 -23.470 -17.273  0.00  0.00    +0.010 C 
ATOM      6  C   UNL     1      32.197 -22.919 -15.158  0.00  0.00    +0.029 C 
ATOM      7  C   UNL     1      32.160 -22.932 -16.553  0.00  0.00    +0.136 C 
ENDROOT
BRANCH   2  12
ATOM      8  O   UNL     1      36.267 -23.464 -13.876  0.00  0.00    -0.347 OA
ATOM      9  C   UNL     1      36.480 -25.353 -15.411  0.00  0.00    +0.171 C 
ATOM     10  C   UNL     1      37.760 -25.783 -14.687  0.00  0.00    +0.169 C 
ATOM     11  C   UNL     1      38.401 -24.610 -13.947  0.00  0.00    +0.169 C 
ATOM     12  C   UNL     1      35.560 -24.555 -14.473  0.00  0.00    +0.167 C 
ATOM     13  C   UNL     1      37.370 -23.889 -13.076  0.00  0.00    +0.174 C 
BRANCH   9  14
ATOM     14  O   UNL     1      35.784 -26.518 -15.853  0.00  0.00    -0.379 OA
ATOM     15  H   UNL     1      34.900 -26.268 -16.164  0.00  0.00    +0.211 HD
ENDBRANCH   9  14
BRANCH  10  16
ATOM     16  O   UNL     1      38.704 -26.271 -15.642  0.00  0.00    -0.379 OA
ATOM     17  H   UNL     1      39.563 -26.401 -15.211  0.00  0.00    +0.211 HD
ENDBRANCH  10  16
BRANCH  11  18
ATOM     18  O   UNL     1      39.457 -25.095 -13.122  0.00  0.00    -0.379 OA
ATOM     19  H   UNL     1      39.112 -25.773 -12.520  0.00  0.00    +0.211 HD
ENDBRANCH  11  18
BRANCH  13  20
ATOM     20  C   UNL     1      37.960 -22.650 -12.411  0.00  0.00    +0.169 C 
BRANCH  20  21
ATOM     21  O   UNL     1      38.999 -23.056 -11.538  0.00  0.00    -0.379 OA
ATOM     22  H   UNL     1      39.528 -23.747 -11.965  0.00  0.00    +0.211 HD
ENDBRANCH  20  21
ENDBRANCH  13  20
ENDBRANCH   2  12
BRANCH   5  23
ATOM     23  C   UNL     1      33.191 -23.486 -18.764  0.00  0.00    +0.061 C 
BRANCH  23  25
ATOM     24  S   UNL     1      33.213 -21.241 -20.357  0.00  0.00    -0.091 S 
ATOM     25  C   UNL     1      34.008 -22.380 -19.400  0.00  0.00    +0.012 C 
ATOM     26  C   UNL     1      35.342 -22.183 -19.293  0.00  0.00    +0.003 C 
ATOM     27  C   UNL     1      35.769 -21.031 -20.033  0.00  0.00    +0.006 C 
ATOM     28  C   UNL     1      34.691 -20.411 -20.672  0.00  0.00    +0.029 C 
ATOM     29  C   UNL     1      37.058 -20.467 -20.195  0.00  0.00    +0.001 C 
ATOM     30  C   UNL     1      34.867 -19.257 -21.461  0.00  0.00    +0.006 C 
ATOM     31  C   UNL     1      37.235 -19.322 -20.977  0.00  0.00    +0.000 C 
ATOM     32  C   UNL     1      36.149 -18.725 -21.602  0.00  0.00    +0.001 C 
ENDBRANCH  23  25
ENDBRANCH   5  23
TORSDOF 8
ENDMDL
MODEL 3
REMARK VINA RESULT:     -10.5      8.099     12.488
REMARK  Name = 10453870
REMARK  8 active torsions:
REMARK  status: ('A' for Active; 'I' for Inactive)
REMARK    1  A    between atoms: C_2  and  C_12
REMARK    2  A    between atoms: C_5  and  C_23
REMARK    3  A    between atoms: C_9  and  O_14
REMARK    4  A    between atoms: C_10  and  O_16
REMARK    5  A    between atoms: C_11  and  O_18
REMARK    6  A    between atoms: C_13  and  C_20
REMARK    7  A    between atoms: C_20  and  O_21
REMARK    8  A    between atoms: C_23  and  C_25
REMARK                            x       y       z     vdW  Elec       q    Type
REMARK                         _______ _______ _______ _____ _____    ______ ____
ROOT
ATOM      1  F   UNL     1      34.893 -17.932 -25.866  0.00  0.00    -0.204 F 
ATOM      2  C   UNL     1      34.217 -14.428 -23.791  0.00  0.00    +0.007 C 
ATOM      3  C   UNL     1      35.186 -15.323 -23.341  0.00  0.00    -0.004 C 
ATOM      4  C   UNL     1      33.479 -14.714 -24.938  0.00  0.00    +0.000 C 
ATOM      5  C   UNL     1      35.417 -16.508 -24.041  0.00  0.00    +0.010 C 
ATOM      6  C   UNL     1      33.710 -15.899 -25.637  0.00  0.00    +0.029 C 
ATOM      7  C   UNL     1      34.679 -16.796 -25.188  0.00  0.00    +0.136 C 
ENDROOT
BRANCH   2  12
ATOM      8  O   UNL     1      32.869 -13.367 -22.142  0.00  0.00    -0.347 OA
ATOM      9  C   UNL     1      33.669 -11.965 -23.976  0.00  0.00    +0.171 C 
ATOM     10  C   UNL     1      33.262 -10.718 -23.187  0.00  0.00    +0.169 C 
ATOM     11  C   UNL     1      32.186 -11.041 -22.150  0.00  0.00    +0.169 C 
ATOM     12  C   UNL     1      33.966 -13.140 -23.032  0.00  0.00    +0.167 C 
ATOM     13  C   UNL     1      32.597 -12.246 -21.301  0.00  0.00    +0.174 C 
BRANCH   9  14
ATOM     14  O   UNL     1      34.847 -11.674 -24.728  0.00  0.00    -0.379 OA
ATOM     15  H   UNL     1      34.857 -12.212 -25.535  0.00  0.00    +0.211 HD
ENDBRANCH   9  14
BRANCH  10  16
ATOM     16  O   UNL     1      32.731  -9.741 -24.084  0.00  0.00    -0.379 OA
ATOM     17  H   UNL     1      33.239  -8.918 -24.005  0.00  0.00    +0.211 HD
ENDBRANCH  10  16
BRANCH  11  18
ATOM     18  O   UNL     1      31.994  -9.912 -21.303  0.00  0.00    -0.379 OA
ATOM     19  H   UNL     1      32.778  -9.789 -20.745  0.00  0.00    +0.211 HD
ENDBRANCH  11  18
BRANCH  13  20
ATOM     20  C   UNL     1      31.492 -12.656 -20.333  0.00  0.00    +0.169 C 
BRANCH  20  21
ATOM     21  O   UNL     1      31.621 -11.889 -19.149  0.00  0.00    -0.379 OA
ATOM     22  H   UNL     1      30.742 -11.715 -18.779  0.00  0.00    +0.211 HD
ENDBRANCH  20  21
ENDBRANCH  13  20
ENDBRANCH   2  12
BRANCH   5  23
ATOM     23  C   UNL     1      36.454 -17.466 -23.557  0.00  0.00    +0.061 C 
BRANCH  23  25
ATOM     24  S   UNL     1      37.009 -19.290 -21.572  0.00  0.00    -0.091 S 
ATOM     25  C   UNL     1      35.918 -18.498 -22.586  0.00  0.00    +0.012 C 
ATOM     26  C   UNL     1      34.631 -18.878 -22.424  0.00  0.00    +0.003 C 
ATOM     27  C   UNL     1      34.498 -19.882 -21.409  0.00  0.00    +0.006 C 
ATOM     28  C   UNL     1      35.739 -20.206 -20.851  0.00  0.00    +0.029 C 
ATOM     29  C   UNL     1      33.350 -20.552 -20.921  0.00  0.00    +0.001 C 
ATOM     30  C   UNL     1      35.859 -21.172 -19.833  0.00  0.00    +0.006 C 
ATOM     31  C   UNL     1      33.466 -21.510 -19.910  0.00  0.00    +0.000 C 
ATOM     32  C   UNL     1      34.709 -21.815 -19.373  0.00  0.00    +0.001 C 
ENDBRANCH  23  25
ENDBRANCH   5  23
TORSDOF 8
ENDMDL
MODEL 4
REMARK VINA RESULT:      -9.9      2.727      4.819
REMARK  Name = 10453870
REMARK  8 active torsions:
REMARK  status: ('A' for Active; 'I' for Inactive)
REMARK    1  A    between atoms: C_2  and  C_12
REMARK    2  A    between atoms: C_5  and  C_23
REMARK    3  A    between atoms: C_9  and  O_14
REMARK    4  A    between atoms: C_10  and  O_16
REMARK    5  A    between atoms: C_11  and  O_18
REMARK    6  A    between atoms: C_13  and  C_20
REMARK    7  A    between atoms: C_20  and  O_21
REMARK    8  A    between atoms: C_23  and  C_25
REMARK                            x       y       z     vdW  Elec       q    Type
REMARK                         _______ _______ _______ _____ _____    ______ ____
ROOT
ATOM      1  F   UNL     1      33.702 -19.754 -22.012  0.00  0.00    -0.204 F 
ATOM      2  C   UNL     1      34.800 -22.139 -18.826  0.00  0.00    +0.007 C 
ATOM      3  C   UNL     1      35.776 -21.448 -19.542  0.00  0.00    -0.004 C 
ATOM      4  C   UNL     1      33.457 -22.025 -19.183  0.00  0.00    +0.000 C 
ATOM      5  C   UNL     1      35.408 -20.641 -20.619  0.00  0.00    +0.010 C 
ATOM      6  C   UNL     1      33.090 -21.218 -20.260  0.00  0.00    +0.029 C 
ATOM      7  C   UNL     1      34.066 -20.526 -20.979  0.00  0.00    +0.136 C 
ENDROOT
BRANCH   2  12
ATOM      8  O   UNL     1      34.077 -23.096 -16.770  0.00  0.00    -0.347 OA
ATOM      9  C   UNL     1      36.434 -22.468 -16.923  0.00  0.00    +0.171 C 
ATOM     10  C   UNL     1      36.721 -23.277 -15.654  0.00  0.00    +0.169 C 
ATOM     11  C   UNL     1      35.459 -23.456 -14.811  0.00  0.00    +0.169 C 
ATOM     12  C   UNL     1      35.199 -23.015 -17.655  0.00  0.00    +0.167 C 
ATOM     13  C   UNL     1      34.303 -23.976 -15.668  0.00  0.00    +0.174 C 
BRANCH   9  14
ATOM     14  O   UNL     1      37.560 -22.560 -17.796  0.00  0.00    -0.379 OA
ATOM     15  H   UNL     1      37.805 -23.491 -17.912  0.00  0.00    +0.211 HD
ENDBRANCH   9  14
BRANCH  10  16
ATOM     16  O   UNL     1      37.688 -22.587 -14.860  0.00  0.00    -0.379 OA
ATOM     17  H   UNL     1      37.641 -21.636 -15.047  0.00  0.00    +0.211 HD
ENDBRANCH  10  16
BRANCH  11  18
ATOM     18  O   UNL     1      35.721 -24.384 -13.762  0.00  0.00    -0.379 OA
ATOM     19  H   UNL     1      36.206 -23.939 -13.050  0.00  0.00    +0.211 HD
ENDBRANCH  11  18
BRANCH  13  20
ATOM     20  C   UNL     1      33.004 -24.058 -14.874  0.00  0.00    +0.169 C 
BRANCH  20  21
ATOM     21  O   UNL     1      33.009 -25.261 -14.125  0.00  0.00    -0.379 OA
ATOM     22  H   UNL     1      33.059 -25.052 -13.179  0.00  0.00    +0.211 HD
ENDBRANCH  20  21
ENDBRANCH  13  20
ENDBRANCH   2  12
BRANCH   5  23
ATOM     23  C   UNL     1      36.454 -19.903 -21.385  0.00  0.00    +0.061 C 
BRANCH  23  25
ATOM     24  S   UNL     1      35.956 -18.252 -23.530  0.00  0.00    -0.091 S 
ATOM     25  C   UNL     1      36.001 -18.541 -21.869  0.00  0.00    +0.012 C 
ATOM     26  C   UNL     1      35.615 -17.490 -21.110  0.00  0.00    +0.003 C 
ATOM     27  C   UNL     1      35.252 -16.360 -21.915  0.00  0.00    +0.006 C 
ATOM     28  C   UNL     1      35.393 -16.642 -23.277  0.00  0.00    +0.029 C 
ATOM     29  C   UNL     1      34.796 -15.072 -21.542  0.00  0.00    +0.001 C 
ATOM     30  C   UNL     1      35.094 -15.680 -24.263  0.00  0.00    +0.006 C 
ATOM     31  C   UNL     1      34.499 -14.117 -22.518  0.00  0.00    +0.000 C 
ATOM     32  C   UNL     1      34.647 -14.420 -23.864  0.00  0.00    +0.001 C 
ENDBRANCH  23  25
ENDBRANCH   5  23
TORSDOF 8
ENDMDL
MODEL 5
REMARK VINA RESULT:      -9.9      8.251     12.695
REMARK  Name = 10453870
REMARK  8 active torsions:
REMARK  status: ('A' for Active; 'I' for Inactive)
REMARK    1  A    between atoms: C_2  and  C_12
REMARK    2  A    between atoms: C_5  and  C_23
REMARK    3  A    between atoms: C_9  and  O_14
REMARK    4  A    between atoms: C_10  and  O_16
REMARK    5  A    between atoms: C_11  and  O_18
REMARK    6  A    between atoms: C_13  and  C_20
REMARK    7  A    between atoms: C_20  and  O_21
REMARK    8  A    between atoms: C_23  and  C_25
REMARK                            x       y       z     vdW  Elec       q    Type
REMARK                         _______ _______ _______ _____ _____    ______ ____
ROOT
ATOM      1  F   UNL     1      35.462 -18.703 -24.843  0.00  0.00    -0.204 F 
ATOM      2  C   UNL     1      34.075 -14.826 -24.558  0.00  0.00    +0.007 C 
ATOM      3  C   UNL     1      34.978 -15.309 -23.613  0.00  0.00    -0.004 C 
ATOM      4  C   UNL     1      33.641 -15.648 -25.596  0.00  0.00    +0.000 C 
ATOM      5  C   UNL     1      35.450 -16.619 -23.707  0.00  0.00    +0.010 C 
ATOM      6  C   UNL     1      34.112 -16.958 -25.690  0.00  0.00    +0.029 C 
ATOM      7  C   UNL     1      35.016 -17.443 -24.745  0.00  0.00    +0.136 C 
ENDROOT
BRANCH   2  12
ATOM      8  O   UNL     1      34.616 -12.530 -24.879  0.00  0.00    -0.347 OA
ATOM      9  C   UNL     1      33.106 -13.057 -23.032  0.00  0.00    +0.171 C 
ATOM     10  C   UNL     1      32.746 -11.573 -22.917  0.00  0.00    +0.169 C 
ATOM     11  C   UNL     1      33.841 -10.687 -23.510  0.00  0.00    +0.169 C 
ATOM     12  C   UNL     1      33.563 -13.403 -24.457  0.00  0.00    +0.167 C 
ATOM     13  C   UNL     1      34.219 -11.159 -24.915  0.00  0.00    +0.174 C 
BRANCH   9  14
ATOM     14  O   UNL     1      31.954 -13.839 -22.718  0.00  0.00    -0.379 OA
ATOM     15  H   UNL     1      32.062 -14.237 -21.841  0.00  0.00    +0.211 HD
ENDBRANCH   9  14
BRANCH  10  16
ATOM     16  O   UNL     1      32.596 -11.225 -21.539  0.00  0.00    -0.379 OA
ATOM     17  H   UNL     1      33.249 -10.549 -21.303  0.00  0.00    +0.211 HD
ENDBRANCH  10  16
BRANCH  11  18
ATOM     18  O   UNL     1      33.374  -9.342 -23.576  0.00  0.00    -0.379 OA
ATOM     19  H   UNL     1      32.936  -9.110 -22.742  0.00  0.00    +0.211 HD
ENDBRANCH  11  18
BRANCH  13  20
ATOM     20  C   UNL     1      35.386 -10.359 -25.485  0.00  0.00    +0.169 C 
BRANCH  20  21
ATOM     21  O   UNL     1      36.020  -9.668 -24.424  0.00  0.00    -0.379 OA
ATOM     22  H   UNL     1      36.637 -10.264 -23.973  0.00  0.00    +0.211 HD
ENDBRANCH  20  21
ENDBRANCH  13  20
ENDBRANCH   2  12
BRANCH   5  23
ATOM     23  C   UNL     1      36.416 -17.134 -22.694  0.00  0.00    +0.061 C 
BRANCH  23  25
ATOM     24  S   UNL     1      37.051 -19.418 -21.295  0.00  0.00    -0.091 S 
ATOM     25  C   UNL     1      35.916 -18.354 -21.947  0.00  0.00    +0.012 C 
ATOM     26  C   UNL     1      34.630 -18.709 -21.729  0.00  0.00    +0.003 C 
ATOM     27  C   UNL     1      34.536 -19.929 -20.981  0.00  0.00    +0.006 C 
ATOM     28  C   UNL     1      35.804 -20.433 -20.672  0.00  0.00    +0.029 C 
ATOM     29  C   UNL     1      33.403 -20.653 -20.537  0.00  0.00    +0.001 C 
ATOM     30  C   UNL     1      35.965 -21.626 -19.941  0.00  0.00    +0.006 C 
ATOM     31  C   UNL     1      33.560 -21.837 -19.811  0.00  0.00    +0.000 C 
ATOM     32  C   UNL     1      34.828 -22.317 -19.517  0.00  0.00    +0.001 C 
ENDBRANCH  23  25
ENDBRANCH   5  23
TORSDOF 8
ENDMDL
MODEL 6
REMARK VINA RESULT:      -9.9     11.016     14.112
REMARK  Name = 10453870
REMARK  8 active torsions:
REMARK  status: ('A' for Active; 'I' for Inactive)
REMARK    1  A    between atoms: C_2  and  C_12
REMARK    2  A    between atoms: C_5  and  C_23
REMARK    3  A    between atoms: C_9  and  O_14
REMARK    4  A    between atoms: C_10  and  O_16
REMARK    5  A    between atoms: C_11  and  O_18
REMARK    6  A    between atoms: C_13  and  C_20
REMARK    7  A    between atoms: C_20  and  O_21
REMARK    8  A    between atoms: C_23  and  C_25
REMARK                            x       y       z     vdW  Elec       q    Type
REMARK                         _______ _______ _______ _____ _____    ______ ____
ROOT
ATOM      1  F   UNL     1      30.802 -11.294 -19.400  0.00  0.00    -0.204 F 
ATOM      2  C   UNL     1      33.161 -13.181 -22.214  0.00  0.00    +0.007 C 
ATOM      3  C   UNL     1      32.435 -12.045 -22.569  0.00  0.00    -0.004 C 
ATOM      4  C   UNL     1      33.092 -13.678 -20.914  0.00  0.00    +0.000 C 
ATOM      5  C   UNL     1      31.637 -11.404 -21.620  0.00  0.00    +0.010 C 
ATOM      6  C   UNL     1      32.294 -13.038 -19.966  0.00  0.00    +0.029 C 
ATOM      7  C   UNL     1      31.566 -11.901 -20.319  0.00  0.00    +0.136 C 
ENDROOT
BRANCH   2  12
ATOM      8  O   UNL     1      33.321 -13.862 -24.489  0.00  0.00    -0.347 OA
ATOM      9  C   UNL     1      34.372 -15.315 -22.829  0.00  0.00    +0.171 C 
ATOM     10  C   UNL     1      35.110 -16.048 -23.953  0.00  0.00    +0.169 C 
ATOM     11  C   UNL     1      34.389 -15.884 -25.291  0.00  0.00    +0.169 C 
ATOM     12  C   UNL     1      34.028 -13.876 -23.245  0.00  0.00    +0.167 C 
ATOM     13  C   UNL     1      34.082 -14.411 -25.565  0.00  0.00    +0.174 C 
BRANCH   9  14
ATOM     14  O   UNL     1      35.212 -15.269 -21.676  0.00  0.00    -0.379 OA
ATOM     15  H   UNL     1      35.937 -14.643 -21.829  0.00  0.00    +0.211 HD
ENDBRANCH   9  14
BRANCH  10  16
ATOM     16  O   UNL     1      35.168 -17.443 -23.652  0.00  0.00    -0.379 OA
ATOM     17  H   UNL     1      35.489 -17.929 -24.427  0.00  0.00    +0.211 HD
ENDBRANCH  10  16
BRANCH  11  18
ATOM     18  O   UNL     1      35.213 -16.395 -26.335  0.00  0.00    -0.379 OA
ATOM     19  H   UNL     1      34.867 -17.251 -26.632  0.00  0.00    +0.211 HD
ENDBRANCH  11  18
BRANCH  13  20
ATOM     20  C   UNL     1      33.267 -14.231 -26.842  0.00  0.00    +0.169 C 
BRANCH  20  21
ATOM     21  O   UNL     1      34.154 -13.931 -27.905  0.00  0.00    -0.379 OA
ATOM     22  H   UNL     1      34.016 -13.014 -28.191  0.00  0.00    +0.211 HD
ENDBRANCH  20  21
ENDBRANCH  13  20
ENDBRANCH   2  12
BRANCH   5  23
ATOM     23  C   UNL     1      30.861 -10.189 -22.001  0.00  0.00    +0.061 C 
BRANCH  23  25
ATOM     24  S   UNL     1      30.913  -7.925 -23.566  0.00  0.00    -0.091 S 
ATOM     25  C   UNL     1      31.700  -9.122 -22.674  0.00  0.00    +0.012 C 
ATOM     26  C   UNL     1      33.046  -9.003 -22.648  0.00  0.00    +0.003 C 
ATOM     27  C   UNL     1      33.493  -7.865 -23.399  0.00  0.00    +0.006 C 
ATOM     28  C   UNL     1      32.415  -7.176 -23.963  0.00  0.00    +0.029 C 
ATOM     29  C   UNL     1      34.800  -7.372 -23.635  0.00  0.00    +0.001 C 
ATOM     30  C   UNL     1      32.608  -6.022 -24.748  0.00  0.00    +0.006 C 
ATOM     31  C   UNL     1      34.994  -6.228 -24.412  0.00  0.00    +0.000 C 
ATOM     32  C   UNL     1      33.908  -5.561 -24.962  0.00  0.00    +0.001 C 
ENDBRANCH  23  25
ENDBRANCH   5  23
TORSDOF 8
ENDMDL
MODEL 7
REMARK VINA RESULT:      -9.4     13.205     17.229
REMARK  Name = 10453870
REMARK  8 active torsions:
REMARK  status: ('A' for Active; 'I' for Inactive)
REMARK    1  A    between atoms: C_2  and  C_12
REMARK    2  A    between atoms: C_5  and  C_23
REMARK    3  A    between atoms: C_9  and  O_14
REMARK    4  A    between atoms: C_10  and  O_16
REMARK    5  A    between atoms: C_11  and  O_18
REMARK    6  A    between atoms: C_13  and  C_20
REMARK    7  A    between atoms: C_20  and  O_21
REMARK    8  A    between atoms: C_23  and  C_25
REMARK                            x       y       z     vdW  Elec       q    Type
REMARK                         _______ _______ _______ _____ _____    ______ ____
ROOT
ATOM      1  F   UNL     1      32.624 -10.497 -19.098  0.00  0.00    -0.204 F 
ATOM      2  C   UNL     1      32.125  -7.683 -22.077  0.00  0.00    +0.007 C 
ATOM      3  C   UNL     1      31.542  -8.942 -22.209  0.00  0.00    -0.004 C 
ATOM      4  C   UNL     1      32.874  -7.374 -20.942  0.00  0.00    +0.000 C 
ATOM      5  C   UNL     1      31.709  -9.895 -21.204  0.00  0.00    +0.010 C 
ATOM      6  C   UNL     1      33.040  -8.327 -19.937  0.00  0.00    +0.029 C 
ATOM      7  C   UNL     1      32.458  -9.588 -20.068  0.00  0.00    +0.136 C 
ENDROOT
BRANCH   2  12
ATOM      8  O   UNL     1      33.191  -6.521 -23.859  0.00  0.00    -0.347 OA
ATOM      9  C   UNL     1      31.493  -5.291 -22.604  0.00  0.00    +0.171 C 
ATOM     10  C   UNL     1      31.473  -4.221 -23.700  0.00  0.00    +0.169 C 
ATOM     11  C   UNL     1      32.774  -4.221 -24.502  0.00  0.00    +0.169 C 
ATOM     12  C   UNL     1      31.944  -6.647 -23.168  0.00  0.00    +0.167 C 
ATOM     13  C   UNL     1      33.119  -5.635 -24.976  0.00  0.00    +0.174 C 
BRANCH   9  14
ATOM     14  O   UNL     1      30.177  -5.433 -22.071  0.00  0.00    -0.379 OA
ATOM     15  H   UNL     1      29.818  -6.299 -22.320  0.00  0.00    +0.211 HD
ENDBRANCH   9  14
BRANCH  10  16
ATOM     16  O   UNL     1      31.323  -2.932 -23.103  0.00  0.00    -0.379 OA
ATOM     17  H   UNL     1      30.747  -2.383 -23.657  0.00  0.00    +0.211 HD
ENDBRANCH  10  16
BRANCH  11  18
ATOM     18  O   UNL     1      32.630  -3.368 -25.634  0.00  0.00    -0.379 OA
ATOM     19  H   UNL     1      32.785  -3.877 -26.445  0.00  0.00    +0.211 HD
ENDBRANCH  11  18
BRANCH  13  20
ATOM     20  C   UNL     1      34.469  -5.679 -25.685  0.00  0.00    +0.169 C 
BRANCH  20  21
ATOM     21  O   UNL     1      34.291  -5.244 -27.021  0.00  0.00    -0.379 OA
ATOM     22  H   UNL     1      34.124  -6.011 -27.591  0.00  0.00    +0.211 HD
ENDBRANCH  20  21
ENDBRANCH  13  20
ENDBRANCH   2  12
BRANCH   5  23
ATOM     23  C   UNL     1      31.085 -11.242 -21.348  0.00  0.00    +0.061 C 
BRANCH  23  25
ATOM     24  S   UNL     1      32.694 -12.540 -23.165  0.00  0.00    -0.091 S 
ATOM     25  C   UNL     1      32.088 -12.349 -21.602  0.00  0.00    +0.012 C 
ATOM     26  C   UNL     1      32.576 -13.233 -20.704  0.00  0.00    +0.003 C 
ATOM     27  C   UNL     1      33.510 -14.140 -21.305  0.00  0.00    +0.006 C 
ATOM     28  C   UNL     1      33.673 -13.870 -22.668  0.00  0.00    +0.029 C 
ATOM     29  C   UNL     1      34.250 -15.209 -20.742  0.00  0.00    +0.001 C 
ATOM     30  C   UNL     1      34.543 -14.633 -23.471  0.00  0.00    +0.006 C 
ATOM     31  C   UNL     1      35.114 -15.967 -21.537  0.00  0.00    +0.000 C 
ATOM     32  C   UNL     1      35.257 -15.680 -22.887  0.00  0.00    +0.001 C 
ENDBRANCH  23  25
ENDBRANCH   5  23
TORSDOF 8
ENDMDL
MODEL 8
REMARK VINA RESULT:      -9.3      2.369      5.185
REMARK  Name = 10453870
REMARK  8 active torsions:
REMARK  status: ('A' for Active; 'I' for Inactive)
REMARK    1  A    between atoms: C_2  and  C_12
REMARK    2  A    between atoms: C_5  and  C_23
REMARK    3  A    between atoms: C_9  and  O_14
REMARK    4  A    between atoms: C_10  and  O_16
REMARK    5  A    between atoms: C_11  and  O_18
REMARK    6  A    between atoms: C_13  and  C_20
REMARK    7  A    between atoms: C_20  and  O_21
REMARK    8  A    between atoms: C_23  and  C_25
REMARK                            x       y       z     vdW  Elec       q    Type
REMARK                         _______ _______ _______ _____ _____    ______ ____
ROOT
ATOM      1  F   UNL     1      35.836 -20.910 -19.568  0.00  0.00    -0.204 F 
ATOM      2  C   UNL     1      37.209 -22.794 -16.161  0.00  0.00    +0.007 C 
ATOM      3  C   UNL     1      35.932 -23.077 -16.642  0.00  0.00    -0.004 C 
ATOM      4  C   UNL     1      38.021 -21.878 -16.828  0.00  0.00    +0.000 C 
ATOM      5  C   UNL     1      35.465 -22.442 -17.793  0.00  0.00    +0.010 C 
ATOM      6  C   UNL     1      37.554 -21.243 -17.980  0.00  0.00    +0.029 C 
ATOM      7  C   UNL     1      36.275 -21.525 -18.462  0.00  0.00    +0.136 C 
ENDROOT
BRANCH   2  12
ATOM      8  O   UNL     1      38.661 -24.479 -15.316  0.00  0.00    -0.347 OA
ATOM      9  C   UNL     1      36.575 -24.112 -14.098  0.00  0.00    +0.171 C 
ATOM     10  C   UNL     1      37.124 -24.937 -12.930  0.00  0.00    +0.169 C 
ATOM     11  C   UNL     1      38.229 -25.887 -13.391  0.00  0.00    +0.169 C 
ATOM     12  C   UNL     1      37.717 -23.483 -14.911  0.00  0.00    +0.167 C 
ATOM     13  C   UNL     1      39.281 -25.138 -14.211  0.00  0.00    +0.174 C 
BRANCH   9  14
ATOM     14  O   UNL     1      35.753 -23.067 -13.581  0.00  0.00    -0.379 OA
ATOM     15  H   UNL     1      35.203 -23.413 -12.861  0.00  0.00    +0.211 HD
ENDBRANCH   9  14
BRANCH  10  16
ATOM     16  O   UNL     1      36.072 -25.725 -12.369  0.00  0.00    -0.379 OA
ATOM     17  H   UNL     1      36.122 -26.628 -12.718  0.00  0.00    +0.211 HD
ENDBRANCH  10  16
BRANCH  11  18
ATOM     18  O   UNL     1      38.852 -26.473 -12.251  0.00  0.00    -0.379 OA
ATOM     19  H   UNL     1      38.635 -25.953 -11.461  0.00  0.00    +0.211 HD
ENDBRANCH  11  18
BRANCH  13  20
ATOM     20  C   UNL     1      40.337 -26.083 -14.774  0.00  0.00    +0.169 C 
BRANCH  20  21
ATOM     21  O   UNL     1      40.506 -25.801 -16.152  0.00  0.00    -0.379 OA
ATOM     22  H   UNL     1      40.677 -24.854 -16.270  0.00  0.00    +0.211 HD
ENDBRANCH  20  21
ENDBRANCH  13  20
ENDBRANCH   2  12
BRANCH   5  23
ATOM     23  C   UNL     1      34.097 -22.746 -18.306  0.00  0.00    +0.061 C 
BRANCH  23  25
ATOM     24  S   UNL     1      31.509 -22.809 -17.370  0.00  0.00    -0.091 S 
ATOM     25  C   UNL     1      33.140 -23.219 -17.231  0.00  0.00    +0.012 C 
ATOM     26  C   UNL     1      33.438 -23.954 -16.136  0.00  0.00    +0.003 C 
ATOM     27  C   UNL     1      32.274 -24.215 -15.340  0.00  0.00    +0.006 C 
ATOM     28  C   UNL     1      31.133 -23.639 -15.907  0.00  0.00    +0.029 C 
ATOM     29  C   UNL     1      32.129 -24.935 -14.128  0.00  0.00    +0.001 C 
ATOM     30  C   UNL     1      29.867 -23.762 -15.300  0.00  0.00    +0.006 C 
ATOM     31  C   UNL     1      30.875 -25.058 -13.525  0.00  0.00    +0.000 C 
ATOM     32  C   UNL     1      29.757 -24.477 -14.107  0.00  0.00    +0.001 C 
ENDBRANCH  23  25
ENDBRANCH   5  23
TORSDOF 8
ENDMDL
MODEL 9
REMARK VINA RESULT:      -9.2     12.722     16.874
REMARK  Name = 10453870
REMARK  8 active torsions:
REMARK  status: ('A' for Active; 'I' for Inactive)
REMARK    1  A    between atoms: C_2  and  C_12
REMARK    2  A    between atoms: C_5  and  C_23
REMARK    3  A    between atoms: C_9  and  O_14
REMARK    4  A    between atoms: C_10  and  O_16
REMARK    5  A    between atoms: C_11  and  O_18
REMARK    6  A    between atoms: C_13  and  C_20
REMARK    7  A    between atoms: C_20  and  O_21
REMARK    8  A    between atoms: C_23  and  C_25
REMARK                            x       y       z     vdW  Elec       q    Type
REMARK                         _______ _______ _______ _____ _____    ______ ____
ROOT
ATOM      1  F   UNL     1      31.352 -10.999 -19.336  0.00  0.00    -0.204 F 
ATOM      2  C   UNL     1      32.715  -7.839 -21.615  0.00  0.00    +0.007 C 
ATOM      3  C   UNL     1      32.226  -8.984 -22.241  0.00  0.00    -0.004 C 
ATOM      4  C   UNL     1      32.744  -7.760 -20.224  0.00  0.00    +0.000 C 
ATOM      5  C   UNL     1      31.764 -10.054 -21.474  0.00  0.00    +0.010 C 
ATOM      6  C   UNL     1      32.282  -8.830 -19.457  0.00  0.00    +0.029 C 
ATOM      7  C   UNL     1      31.793  -9.977 -20.082  0.00  0.00    +0.136 C 
ENDROOT
BRANCH   2  12
ATOM      8  O   UNL     1      32.079  -5.906 -22.849  0.00  0.00    -0.347 OA
ATOM      9  C   UNL     1      34.014  -7.150 -23.674  0.00  0.00    +0.171 C 
ATOM     10  C   UNL     1      34.371  -5.971 -24.584  0.00  0.00    +0.169 C 
ATOM     11  C   UNL     1      33.150  -5.097 -24.868  0.00  0.00    +0.169 C 
ATOM     12  C   UNL     1      33.217  -6.677 -22.448  0.00  0.00    +0.167 C 
ATOM     13  C   UNL     1      32.436  -4.724 -23.567  0.00  0.00    +0.174 C 
BRANCH   9  14
ATOM     14  O   UNL     1      35.218  -7.770 -23.223  0.00  0.00    -0.379 OA
ATOM     15  H   UNL     1      35.569  -8.342 -23.923  0.00  0.00    +0.211 HD
ENDBRANCH   9  14
BRANCH  10  16
ATOM     16  O   UNL     1      34.859  -6.466 -25.832  0.00  0.00    -0.379 OA
ATOM     17  H   UNL     1      34.143  -6.460 -26.485  0.00  0.00    +0.211 HD
ENDBRANCH  10  16
BRANCH  11  18
ATOM     18  O   UNL     1      33.566  -3.908 -25.533  0.00  0.00    -0.379 OA
ATOM     19  H   UNL     1      32.939  -3.194 -25.343  0.00  0.00    +0.211 HD
ENDBRANCH  11  18
BRANCH  13  20
ATOM     20  C   UNL     1      31.152  -3.944 -23.831  0.00  0.00    +0.169 C 
BRANCH  20  21
ATOM     21  O   UNL     1      30.536  -3.655 -22.589  0.00  0.00    -0.379 OA
ATOM     22  H   UNL     1      31.215  -3.577 -21.902  0.00  0.00    +0.211 HD
ENDBRANCH  20  21
ENDBRANCH  13  20
ENDBRANCH   2  12
BRANCH   5  23
ATOM     23  C   UNL     1      31.241 -11.279 -22.146  0.00  0.00    +0.061 C 
BRANCH  23  25
ATOM     24  S   UNL     1      32.965 -12.846 -23.612  0.00  0.00    -0.091 S 
ATOM     25  C   UNL     1      32.225 -12.431 -22.153  0.00  0.00    +0.012 C 
ATOM     26  C   UNL     1      32.598 -13.195 -21.102  0.00  0.00    +0.003 C 
ATOM     27  C   UNL     1      33.553 -14.195 -21.485  0.00  0.00    +0.006 C 
ATOM     28  C   UNL     1      33.848 -14.117 -22.850  0.00  0.00    +0.029 C 
ATOM     29  C   UNL     1      34.200 -15.193 -20.717  0.00  0.00    +0.001 C 
ATOM     30  C   UNL     1      34.762 -15.000 -23.458  0.00  0.00    +0.006 C 
ATOM     31  C   UNL     1      35.107 -16.070 -21.317  0.00  0.00    +0.000 C 
ATOM     32  C   UNL     1      35.384 -15.973 -22.674  0.00  0.00    +0.001 C 
ENDBRANCH  23  25
ENDBRANCH   5  23
TORSDOF 8
ENDMDL
