MODEL 1
REMARK VINA RESULT:     -13.1      0.000      0.000
REMARK  Name = 11167118
REMARK  6 active torsions:
REMARK  status: ('A' for Active; 'I' for Inactive)
REMARK    1  A    between atoms: N_2  and  C_6
REMARK    2  A    between atoms: N_2  and  C_15
REMARK    3  A    between atoms: C_8  and  O_25
REMARK    4  A    between atoms: C_17  and  C_24
REMARK    5  A    between atoms: O_25  and  C_27
REMARK    6  A    between atoms: C_30  and  C_34
REMARK                            x       y       z     vdW  Elec       q    Type
REMARK                         _______ _______ _______ _____ _____    ______ ____
ROOT
ATOM      1  N   UNL     1      34.787 -19.185 -21.713  0.00  0.00    -0.302 N 
ATOM      2  N   UNL     1      36.864 -19.654 -21.079  0.00  0.00    -0.302 N 
ATOM      3  C   UNL     1      34.674 -20.234 -20.838  0.00  0.00    +0.063 C 
ATOM      4  C   UNL     1      35.985 -20.508 -20.456  0.00  0.00    +0.060 C 
ATOM      5  C   UNL     1      36.113 -18.874 -21.825  0.00  0.00    +0.225 C 
ATOM      6  C   UNL     1      33.572 -20.946 -20.360  0.00  0.00    +0.053 C 
ATOM      7  C   UNL     1      33.834 -21.979 -19.455  0.00  0.00    +0.147 C 
ATOM      8  C   UNL     1      36.229 -21.550 -19.545  0.00  0.00    +0.019 C 
ATOM      9  C   UNL     1      35.138 -22.277 -19.053  0.00  0.00    +0.039 C 
ATOM     10  H   UNL     1      34.044 -18.736 -22.178  0.00  0.00    +0.150 HD
ATOM     11  H   UNL     1      37.844 -19.630 -20.987  0.00  0.00    +0.150 HD
ENDROOT
BRANCH   5  12
ATOM     12  N   UNL     1      36.466 -17.859 -22.643  0.00  0.00    -0.303 N 
ATOM     13  H   UNL     1      37.420 -17.616 -22.614  0.00  0.00    +0.150 HD
BRANCH  12  15
ATOM     14 CL   UNL     1      33.190 -14.667 -26.411  0.00  0.00    -0.082 Cl
ATOM     15  C   UNL     1      35.679 -17.084 -23.542  0.00  0.00    +0.047 C 
ATOM     16  C   UNL     1      35.328 -15.786 -23.199  0.00  0.00    +0.019 C 
ATOM     17  C   UNL     1      34.557 -15.027 -24.080  0.00  0.00    +0.083 C 
ATOM     18  C   UNL     1      35.274 -17.639 -24.748  0.00  0.00    +0.015 C 
ATOM     19  C   UNL     1      34.144 -15.575 -25.296  0.00  0.00    +0.062 C 
ATOM     20  C   UNL     1      34.503 -16.881 -25.629  0.00  0.00    +0.013 C 
BRANCH  17  24
ATOM     21  F   UNL     1      34.639 -12.717 -24.580  0.00  0.00    -0.166 F 
ATOM     22  F   UNL     1      32.855 -13.457 -23.583  0.00  0.00    -0.166 F 
ATOM     23  F   UNL     1      34.731 -13.311 -22.484  0.00  0.00    -0.166 F 
ATOM     24  C   UNL     1      34.194 -13.632 -23.685  0.00  0.00    +0.419 C 
ENDBRANCH  17  24
ENDBRANCH  12  15
ENDBRANCH   5  12
BRANCH   7  25
ATOM     25  O   UNL     1      32.796 -22.709 -18.956  0.00  0.00    -0.453 OA
BRANCH  25  27
ATOM     26  N   UNL     1      32.908 -23.713 -14.926  0.00  0.00    -0.239 NA
ATOM     27  C   UNL     1      32.833 -23.043 -17.615  0.00  0.00    +0.149 C 
ATOM     28  C   UNL     1      33.986 -23.583 -17.086  0.00  0.00    +0.061 C 
ATOM     29  C   UNL     1      31.717 -22.829 -16.834  0.00  0.00    +0.058 C 
ATOM     30  C   UNL     1      33.973 -23.901 -15.737  0.00  0.00    +0.137 C 
ATOM     31  C   UNL     1      31.804 -23.180 -15.497  0.00  0.00    +0.102 C 
BRANCH  30  34
ATOM     32  O   UNL     1      36.143 -24.787 -15.791  0.00  0.00    -0.268 OA
ATOM     33  N   UNL     1      35.118 -24.630 -13.718  0.00  0.00    -0.298 N 
ATOM     34  C   UNL     1      35.151 -24.475 -15.109  0.00  0.00    +0.264 C 
ATOM     35  C   UNL     1      36.218 -25.164 -12.946  0.00  0.00    +0.111 C 
ATOM     36  H   UNL     1      34.300 -24.363 -13.239  0.00  0.00    +0.150 HD
ENDBRANCH  30  34
ENDBRANCH  25  27
ENDBRANCH   7  25
TORSDOF 6
ENDMDL
MODEL 2
REMARK VINA RESULT:     -13.0      5.712     10.597
REMARK  Name = 11167118
REMARK  6 active torsions:
REMARK  status: ('A' for Active; 'I' for Inactive)
REMARK    1  A    between atoms: N_2  and  C_6
REMARK    2  A    between atoms: N_2  and  C_15
REMARK    3  A    between atoms: C_8  and  O_25
REMARK    4  A    between atoms: C_17  and  C_24
REMARK    5  A    between atoms: O_25  and  C_27
REMARK    6  A    between atoms: C_30  and  C_34
REMARK                            x       y       z     vdW  Elec       q    Type
REMARK                         _______ _______ _______ _____ _____    ______ ____
ROOT
ATOM      1  N   UNL     1      33.697 -21.377 -20.442  0.00  0.00    -0.302 N 
ATOM      2  N   UNL     1      35.509 -21.909 -19.271  0.00  0.00    -0.302 N 
ATOM      3  C   UNL     1      34.683 -20.538 -20.892  0.00  0.00    +0.063 C 
ATOM      4  C   UNL     1      35.804 -20.890 -20.145  0.00  0.00    +0.060 C 
ATOM      5  C   UNL     1      34.238 -22.177 -19.475  0.00  0.00    +0.225 C 
ATOM      6  C   UNL     1      34.692 -19.530 -21.859  0.00  0.00    +0.053 C 
ATOM      7  C   UNL     1      35.903 -18.863 -22.062  0.00  0.00    +0.147 C 
ATOM      8  C   UNL     1      37.014 -20.208 -20.363  0.00  0.00    +0.019 C 
ATOM      9  C   UNL     1      37.045 -19.194 -21.329  0.00  0.00    +0.039 C 
ATOM     10  H   UNL     1      32.765 -21.399 -20.759  0.00  0.00    +0.150 HD
ATOM     11  H   UNL     1      36.117 -22.345 -18.630  0.00  0.00    +0.150 HD
ENDROOT
BRANCH   5  12
ATOM     12  N   UNL     1      33.442 -23.093 -18.882  0.00  0.00    -0.303 N 
ATOM     13  H   UNL     1      33.142 -23.824 -19.471  0.00  0.00    +0.150 HD
BRANCH  12  15
ATOM     14 CL   UNL     1      31.501 -23.425 -13.293  0.00  0.00    -0.082 Cl
ATOM     15  C   UNL     1      32.966 -23.171 -17.543  0.00  0.00    +0.047 C 
ATOM     16  C   UNL     1      31.608 -23.038 -17.290  0.00  0.00    +0.019 C 
ATOM     17  C   UNL     1      31.142 -23.115 -15.977  0.00  0.00    +0.083 C 
ATOM     18  C   UNL     1      33.868 -23.379 -16.509  0.00  0.00    +0.015 C 
ATOM     19  C   UNL     1      32.040 -23.324 -14.929  0.00  0.00    +0.062 C 
ATOM     20  C   UNL     1      33.403 -23.456 -15.195  0.00  0.00    +0.013 C 
BRANCH  17  24
ATOM     21  F   UNL     1      29.125 -24.102 -15.235  0.00  0.00    -0.166 F 
ATOM     22  F   UNL     1      29.393 -21.979 -14.854  0.00  0.00    -0.166 F 
ATOM     23  F   UNL     1      29.018 -22.679 -16.883  0.00  0.00    -0.166 F 
ATOM     24  C   UNL     1      29.675 -22.969 -15.735  0.00  0.00    +0.419 C 
ENDBRANCH  17  24
ENDBRANCH  12  15
ENDBRANCH   5  12
BRANCH   7  25
ATOM     25  O   UNL     1      35.970 -17.870 -22.994  0.00  0.00    -0.453 OA
BRANCH  25  27
ATOM     26  N   UNL     1      34.321 -14.186 -22.005  0.00  0.00    -0.239 NA
ATOM     27  C   UNL     1      35.421 -16.643 -22.664  0.00  0.00    +0.149 C 
ATOM     28  C   UNL     1      35.109 -15.752 -23.670  0.00  0.00    +0.061 C 
ATOM     29  C   UNL     1      35.197 -16.338 -21.339  0.00  0.00    +0.058 C 
ATOM     30  C   UNL     1      34.561 -14.538 -23.289  0.00  0.00    +0.137 C 
ATOM     31  C   UNL     1      34.646 -15.097 -21.061  0.00  0.00    +0.102 C 
BRANCH  30  34
ATOM     32  O   UNL     1      33.578 -13.878 -25.312  0.00  0.00    -0.268 OA
ATOM     33  N   UNL     1      34.583 -12.223 -24.038  0.00  0.00    -0.298 N 
ATOM     34  C   UNL     1      34.207 -13.547 -24.291  0.00  0.00    +0.264 C 
ATOM     35  C   UNL     1      34.284 -11.122 -24.926  0.00  0.00    +0.111 C 
ATOM     36  H   UNL     1      35.080 -12.030 -23.209  0.00  0.00    +0.150 HD
ENDBRANCH  30  34
ENDBRANCH  25  27
ENDBRANCH   7  25
TORSDOF 6
ENDMDL
MODEL 3
REMARK VINA RESULT:     -13.0      5.724     10.839
REMARK  Name = 11167118
REMARK  6 active torsions:
REMARK  status: ('A' for Active; 'I' for Inactive)
REMARK    1  A    between atoms: N_2  and  C_6
REMARK    2  A    between atoms: N_2  and  C_15
REMARK    3  A    between atoms: C_8  and  O_25
REMARK    4  A    between atoms: C_17  and  C_24
REMARK    5  A    between atoms: O_25  and  C_27
REMARK    6  A    between atoms: C_30  and  C_34
REMARK                            x       y       z     vdW  Elec       q    Type
REMARK                         _______ _______ _______ _____ _____    ______ ____
ROOT
ATOM      1  N   UNL     1      35.376 -22.131 -18.855  0.00  0.00    -0.302 N 
ATOM      2  N   UNL     1      33.169 -22.199 -19.103  0.00  0.00    -0.302 N 
ATOM      3  C   UNL     1      35.099 -21.282 -19.895  0.00  0.00    +0.063 C 
ATOM      4  C   UNL     1      33.714 -21.342 -20.030  0.00  0.00    +0.060 C 
ATOM      5  C   UNL     1      34.193 -22.654 -18.415  0.00  0.00    +0.225 C 
ATOM      6  C   UNL     1      35.914 -20.490 -20.706  0.00  0.00    +0.053 C 
ATOM      7  C   UNL     1      35.275 -19.731 -21.691  0.00  0.00    +0.147 C 
ATOM      8  C   UNL     1      33.089 -20.573 -21.026  0.00  0.00    +0.019 C 
ATOM      9  C   UNL     1      33.888 -19.770 -21.851  0.00  0.00    +0.039 C 
ATOM     10  H   UNL     1      36.270 -22.328 -18.491  0.00  0.00    +0.150 HD
ATOM     11  H   UNL     1      32.218 -22.423 -18.979  0.00  0.00    +0.150 HD
ENDROOT
BRANCH   5  12
ATOM     12  N   UNL     1      34.223 -23.527 -17.384  0.00  0.00    -0.303 N 
ATOM     13  H   UNL     1      34.987 -24.147 -17.389  0.00  0.00    +0.150 HD
BRANCH  12  15
ATOM     14 CL   UNL     1      30.517 -24.230 -12.813  0.00  0.00    -0.082 Cl
ATOM     15  C   UNL     1      33.325 -23.692 -16.292  0.00  0.00    +0.047 C 
ATOM     16  C   UNL     1      31.977 -23.411 -16.465  0.00  0.00    +0.019 C 
ATOM     17  C   UNL     1      31.097 -23.574 -15.395  0.00  0.00    +0.083 C 
ATOM     18  C   UNL     1      33.811 -24.132 -15.068  0.00  0.00    +0.015 C 
ATOM     19  C   UNL     1      31.575 -24.016 -14.160  0.00  0.00    +0.062 C 
ATOM     20  C   UNL     1      32.932 -24.294 -13.997  0.00  0.00    +0.013 C 
BRANCH  17  24
ATOM     21  F   UNL     1      28.851 -24.305 -15.271  0.00  0.00    -0.166 F 
ATOM     22  F   UNL     1      29.236 -22.201 -14.882  0.00  0.00    -0.166 F 
ATOM     23  F   UNL     1      29.403 -22.979 -16.912  0.00  0.00    -0.166 F 
ATOM     24  C   UNL     1      29.651 -23.265 -15.611  0.00  0.00    +0.419 C 
ENDBRANCH  17  24
ENDBRANCH  12  15
ENDBRANCH   5  12
BRANCH   7  25
ATOM     25  O   UNL     1      36.022 -18.939 -22.513  0.00  0.00    -0.453 OA
BRANCH  25  27
ATOM     26  N   UNL     1      34.603 -15.117 -23.318  0.00  0.00    -0.239 NA
ATOM     27  C   UNL     1      35.549 -17.667 -22.780  0.00  0.00    +0.149 C 
ATOM     28  C   UNL     1      35.134 -17.357 -24.058  0.00  0.00    +0.061 C 
ATOM     29  C   UNL     1      35.503 -16.737 -21.765  0.00  0.00    +0.058 C 
ATOM     30  C   UNL     1      34.670 -16.069 -24.276  0.00  0.00    +0.137 C 
ATOM     31  C   UNL     1      35.022 -15.476 -22.083  0.00  0.00    +0.102 C 
BRANCH  30  34
ATOM     32  O   UNL     1      34.114 -16.504 -26.512  0.00  0.00    -0.268 OA
ATOM     33  N   UNL     1      33.880 -14.320 -25.770  0.00  0.00    -0.298 N 
ATOM     34  C   UNL     1      34.215 -15.667 -25.596  0.00  0.00    +0.264 C 
ATOM     35  C   UNL     1      33.391 -13.771 -27.016  0.00  0.00    +0.111 C 
ATOM     36  H   UNL     1      33.984 -13.711 -25.003  0.00  0.00    +0.150 HD
ENDBRANCH  30  34
ENDBRANCH  25  27
ENDBRANCH   7  25
TORSDOF 6
ENDMDL
MODEL 4
REMARK VINA RESULT:     -12.9      6.475     11.339
REMARK  Name = 11167118
REMARK  6 active torsions:
REMARK  status: ('A' for Active; 'I' for Inactive)
REMARK    1  A    between atoms: N_2  and  C_6
REMARK    2  A    between atoms: N_2  and  C_15
REMARK    3  A    between atoms: C_8  and  O_25
REMARK    4  A    between atoms: C_17  and  C_24
REMARK    5  A    between atoms: O_25  and  C_27
REMARK    6  A    between atoms: C_30  and  C_34
REMARK                            x       y       z     vdW  Elec       q    Type
REMARK                         _______ _______ _______ _____ _____    ______ ____
ROOT
ATOM      1  N   UNL     1      35.338 -22.439 -18.358  0.00  0.00    -0.302 N 
ATOM      2  N   UNL     1      33.131 -22.455 -18.614  0.00  0.00    -0.302 N 
ATOM      3  C   UNL     1      35.088 -21.618 -19.428  0.00  0.00    +0.063 C 
ATOM      4  C   UNL     1      33.703 -21.645 -19.567  0.00  0.00    +0.060 C 
ATOM      5  C   UNL     1      34.139 -22.914 -17.906  0.00  0.00    +0.225 C 
ATOM      6  C   UNL     1      35.928 -20.877 -20.261  0.00  0.00    +0.053 C 
ATOM      7  C   UNL     1      35.313 -20.135 -21.275  0.00  0.00    +0.147 C 
ATOM      8  C   UNL     1      33.103 -20.894 -20.592  0.00  0.00    +0.019 C 
ATOM      9  C   UNL     1      33.926 -20.142 -21.439  0.00  0.00    +0.039 C 
ATOM     10  H   UNL     1      36.225 -22.647 -17.983  0.00  0.00    +0.150 HD
ATOM     11  H   UNL     1      32.174 -22.649 -18.487  0.00  0.00    +0.150 HD
ENDROOT
BRANCH   5  12
ATOM     12  N   UNL     1      34.141 -23.751 -16.846  0.00  0.00    -0.303 N 
ATOM     13  H   UNL     1      33.322 -24.287 -16.739  0.00  0.00    +0.150 HD
BRANCH  12  15
ATOM     14 CL   UNL     1      38.291 -24.674 -12.717  0.00  0.00    -0.082 Cl
ATOM     15  C   UNL     1      35.140 -23.983 -15.857  0.00  0.00    +0.047 C 
ATOM     16  C   UNL     1      35.807 -25.199 -15.830  0.00  0.00    +0.019 C 
ATOM     17  C   UNL     1      36.785 -25.425 -14.861  0.00  0.00    +0.083 C 
ATOM     18  C   UNL     1      35.431 -22.987 -14.935  0.00  0.00    +0.015 C 
ATOM     19  C   UNL     1      37.086 -24.431 -13.929  0.00  0.00    +0.062 C 
ATOM     20  C   UNL     1      36.409 -23.213 -13.966  0.00  0.00    +0.013 C 
BRANCH  17  24
ATOM     21  F   UNL     1      38.833 -26.606 -14.948  0.00  0.00    -0.166 F 
ATOM     22  F   UNL     1      37.245 -27.453 -13.728  0.00  0.00    -0.166 F 
ATOM     23  F   UNL     1      37.093 -27.510 -15.901  0.00  0.00    -0.166 F 
ATOM     24  C   UNL     1      37.488 -26.744 -14.856  0.00  0.00    +0.419 C 
ENDBRANCH  17  24
ENDBRANCH  12  15
ENDBRANCH   5  12
BRANCH   7  25
ATOM     25  O   UNL     1      36.085 -19.393 -22.119  0.00  0.00    -0.453 OA
BRANCH  25  27
ATOM     26  N   UNL     1      34.827 -15.526 -22.978  0.00  0.00    -0.239 NA
ATOM     27  C   UNL     1      35.666 -18.105 -22.405  0.00  0.00    +0.149 C 
ATOM     28  C   UNL     1      35.391 -17.760 -23.711  0.00  0.00    +0.061 C 
ATOM     29  C   UNL     1      35.532 -17.195 -21.379  0.00  0.00    +0.058 C 
ATOM     30  C   UNL     1      34.975 -16.459 -23.946  0.00  0.00    +0.137 C 
ATOM     31  C   UNL     1      35.110 -15.919 -21.716  0.00  0.00    +0.102 C 
BRANCH  30  34
ATOM     32  O   UNL     1      35.050 -16.681 -26.279  0.00  0.00    -0.268 OA
ATOM     33  N   UNL     1      33.908 -14.852 -25.428  0.00  0.00    -0.298 N 
ATOM     34  C   UNL     1      34.667 -16.021 -25.296  0.00  0.00    +0.264 C 
ATOM     35  C   UNL     1      33.502 -14.301 -26.702  0.00  0.00    +0.111 C 
ATOM     36  H   UNL     1      33.637 -14.377 -24.609  0.00  0.00    +0.150 HD
ENDBRANCH  30  34
ENDBRANCH  25  27
ENDBRANCH   7  25
TORSDOF 6
ENDMDL
MODEL 5
REMARK VINA RESULT:     -12.8      1.269      1.819
REMARK  Name = 11167118
REMARK  6 active torsions:
REMARK  status: ('A' for Active; 'I' for Inactive)
REMARK    1  A    between atoms: N_2  and  C_6
REMARK    2  A    between atoms: N_2  and  C_15
REMARK    3  A    between atoms: C_8  and  O_25
REMARK    4  A    between atoms: C_17  and  C_24
REMARK    5  A    between atoms: O_25  and  C_27
REMARK    6  A    between atoms: C_30  and  C_34
REMARK                            x       y       z     vdW  Elec       q    Type
REMARK                         _______ _______ _______ _____ _____    ______ ____
ROOT
ATOM      1  N   UNL     1      34.595 -19.305 -21.553  0.00  0.00    -0.302 N 
ATOM      2  N   UNL     1      36.722 -19.493 -20.937  0.00  0.00    -0.302 N 
ATOM      3  C   UNL     1      34.638 -20.386 -20.711  0.00  0.00    +0.063 C 
ATOM      4  C   UNL     1      35.976 -20.482 -20.340  0.00  0.00    +0.060 C 
ATOM      5  C   UNL     1      35.862 -18.805 -21.657  0.00  0.00    +0.225 C 
ATOM      6  C   UNL     1      33.651 -21.263 -20.254  0.00  0.00    +0.053 C 
ATOM      7  C   UNL     1      34.063 -22.275 -19.383  0.00  0.00    +0.147 C 
ATOM      8  C   UNL     1      36.373 -21.507 -19.463  0.00  0.00    +0.019 C 
ATOM      9  C   UNL     1      35.399 -22.397 -18.993  0.00  0.00    +0.039 C 
ATOM     10  H   UNL     1      33.793 -18.952 -22.002  0.00  0.00    +0.150 HD
ATOM     11  H   UNL     1      37.689 -19.332 -20.846  0.00  0.00    +0.150 HD
ENDROOT
BRANCH   5  12
ATOM     12  N   UNL     1      36.062 -17.725 -22.444  0.00  0.00    -0.303 N 
ATOM     13  H   UNL     1      36.820 -17.802 -23.068  0.00  0.00    +0.150 HD
BRANCH  12  15
ATOM     14 CL   UNL     1      33.105 -12.596 -22.693  0.00  0.00    -0.082 Cl
ATOM     15  C   UNL     1      35.352 -16.493 -22.514  0.00  0.00    +0.047 C 
ATOM     16  C   UNL     1      35.006 -15.972 -23.753  0.00  0.00    +0.019 C 
ATOM     17  C   UNL     1      34.310 -14.765 -23.821  0.00  0.00    +0.083 C 
ATOM     18  C   UNL     1      35.016 -15.831 -21.341  0.00  0.00    +0.015 C 
ATOM     19  C   UNL     1      33.967 -14.091 -22.648  0.00  0.00    +0.062 C 
ATOM     20  C   UNL     1      34.320 -14.623 -21.409  0.00  0.00    +0.013 C 
BRANCH  17  24
ATOM     21  F   UNL     1      32.608 -14.150 -25.344  0.00  0.00    -0.166 F 
ATOM     22  F   UNL     1      34.444 -12.985 -25.377  0.00  0.00    -0.166 F 
ATOM     23  F   UNL     1      34.436 -15.021 -26.154  0.00  0.00    -0.166 F 
ATOM     24  C   UNL     1      33.949 -14.229 -25.168  0.00  0.00    +0.419 C 
ENDBRANCH  17  24
ENDBRANCH  12  15
ENDBRANCH   5  12
BRANCH   7  25
ATOM     25  O   UNL     1      33.143 -23.160 -18.905  0.00  0.00    -0.453 OA
BRANCH  25  27
ATOM     26  N   UNL     1      32.598 -23.343 -14.790  0.00  0.00    -0.239 NA
ATOM     27  C   UNL     1      32.961 -23.221 -17.535  0.00  0.00    +0.149 C 
ATOM     28  C   UNL     1      33.976 -23.712 -16.741  0.00  0.00    +0.061 C 
ATOM     29  C   UNL     1      31.770 -22.789 -16.992  0.00  0.00    +0.058 C 
ATOM     30  C   UNL     1      33.746 -23.752 -15.376  0.00  0.00    +0.137 C 
ATOM     31  C   UNL     1      31.637 -22.870 -15.615  0.00  0.00    +0.102 C 
BRANCH  30  34
ATOM     32  O   UNL     1      35.672 -25.000 -14.897  0.00  0.00    -0.268 OA
ATOM     33  N   UNL     1      34.695 -23.850 -13.137  0.00  0.00    -0.298 N 
ATOM     34  C   UNL     1      34.768 -24.257 -14.475  0.00  0.00    +0.264 C 
ATOM     35  C   UNL     1      35.649 -24.248 -12.126  0.00  0.00    +0.111 C 
ATOM     36  H   UNL     1      33.952 -23.261 -12.870  0.00  0.00    +0.150 HD
ENDBRANCH  30  34
ENDBRANCH  25  27
ENDBRANCH   7  25
TORSDOF 6
ENDMDL
MODEL 6
REMARK VINA RESULT:     -12.8      1.439      2.825
REMARK  Name = 11167118
REMARK  6 active torsions:
REMARK  status: ('A' for Active; 'I' for Inactive)
REMARK    1  A    between atoms: N_2  and  C_6
REMARK    2  A    between atoms: N_2  and  C_15
REMARK    3  A    between atoms: C_8  and  O_25
REMARK    4  A    between atoms: C_17  and  C_24
REMARK    5  A    between atoms: O_25  and  C_27
REMARK    6  A    between atoms: C_30  and  C_34
REMARK                            x       y       z     vdW  Elec       q    Type
REMARK                         _______ _______ _______ _____ _____    ______ ____
ROOT
ATOM      1  N   UNL     1      36.346 -19.870 -20.986  0.00  0.00    -0.302 N 
ATOM      2  N   UNL     1      34.261 -19.500 -21.661  0.00  0.00    -0.302 N 
ATOM      3  C   UNL     1      35.566 -20.728 -20.253  0.00  0.00    +0.063 C 
ATOM      4  C   UNL     1      34.269 -20.477 -20.693  0.00  0.00    +0.060 C 
ATOM      5  C   UNL     1      35.522 -19.158 -21.812  0.00  0.00    +0.225 C 
ATOM      6  C   UNL     1      35.874 -21.673 -19.273  0.00  0.00    +0.053 C 
ATOM      7  C   UNL     1      34.802 -22.385 -18.727  0.00  0.00    +0.147 C 
ATOM      8  C   UNL     1      33.204 -21.202 -20.133  0.00  0.00    +0.019 C 
ATOM      9  C   UNL     1      33.490 -22.156 -19.148  0.00  0.00    +0.039 C 
ATOM     10  H   UNL     1      37.325 -19.784 -20.927  0.00  0.00    +0.150 HD
ATOM     11  H   UNL     1      33.481 -19.134 -22.138  0.00  0.00    +0.150 HD
ENDROOT
BRANCH   5  12
ATOM     12  N   UNL     1      36.077 -18.243 -22.636  0.00  0.00    -0.303 N 
ATOM     13  H   UNL     1      37.061 -18.207 -22.613  0.00  0.00    +0.150 HD
BRANCH  12  15
ATOM     14 CL   UNL     1      33.537 -14.438 -26.403  0.00  0.00    -0.082 Cl
ATOM     15  C   UNL     1      35.466 -17.322 -23.534  0.00  0.00    +0.047 C 
ATOM     16  C   UNL     1      35.189 -16.031 -23.106  0.00  0.00    +0.019 C 
ATOM     17  C   UNL     1      34.591 -15.128 -23.986  0.00  0.00    +0.083 C 
ATOM     18  C   UNL     1      35.157 -17.728 -24.824  0.00  0.00    +0.015 C 
ATOM     19  C   UNL     1      34.276 -15.526 -25.286  0.00  0.00    +0.062 C 
ATOM     20  C   UNL     1      34.559 -16.826 -25.705  0.00  0.00    +0.013 C 
BRANCH  17  24
ATOM     21  F   UNL     1      34.827 -12.798 -24.315  0.00  0.00    -0.166 F 
ATOM     22  F   UNL     1      32.977 -13.493 -23.410  0.00  0.00    -0.166 F 
ATOM     23  F   UNL     1      34.832 -13.545 -22.266  0.00  0.00    -0.166 F 
ATOM     24  C   UNL     1      34.306 -13.745 -23.498  0.00  0.00    +0.419 C 
ENDBRANCH  17  24
ENDBRANCH  12  15
ENDBRANCH   5  12
BRANCH   7  25
ATOM     25  O   UNL     1      35.043 -23.321 -17.765  0.00  0.00    -0.453 OA
BRANCH  25  27
ATOM     26  N   UNL     1      32.289 -23.656 -14.671  0.00  0.00    -0.239 NA
ATOM     27  C   UNL     1      34.126 -23.433 -16.735  0.00  0.00    +0.149 C 
ATOM     28  C   UNL     1      32.792 -23.608 -17.035  0.00  0.00    +0.061 C 
ATOM     29  C   UNL     1      34.566 -23.366 -15.430  0.00  0.00    +0.058 C 
ATOM     30  C   UNL     1      31.914 -23.714 -15.968  0.00  0.00    +0.137 C 
ATOM     31  C   UNL     1      33.609 -23.483 -14.434  0.00  0.00    +0.102 C 
BRANCH  30  34
ATOM     32  O   UNL     1      29.907 -24.912 -15.778  0.00  0.00    -0.268 OA
ATOM     33  N   UNL     1      29.826 -22.887 -16.904  0.00  0.00    -0.298 N 
ATOM     34  C   UNL     1      30.493 -23.900 -16.205  0.00  0.00    +0.264 C 
ATOM     35  C   UNL     1      28.410 -22.916 -17.198  0.00  0.00    +0.111 C 
ATOM     36  H   UNL     1      30.349 -22.113 -17.214  0.00  0.00    +0.150 HD
ENDBRANCH  30  34
ENDBRANCH  25  27
ENDBRANCH   7  25
TORSDOF 6
ENDMDL
MODEL 7
REMARK VINA RESULT:     -12.7      5.917     10.877
REMARK  Name = 11167118
REMARK  6 active torsions:
REMARK  status: ('A' for Active; 'I' for Inactive)
REMARK    1  A    between atoms: N_2  and  C_6
REMARK    2  A    between atoms: N_2  and  C_15
REMARK    3  A    between atoms: C_8  and  O_25
REMARK    4  A    between atoms: C_17  and  C_24
REMARK    5  A    between atoms: O_25  and  C_27
REMARK    6  A    between atoms: C_30  and  C_34
REMARK                            x       y       z     vdW  Elec       q    Type
REMARK                         _______ _______ _______ _____ _____    ______ ____
ROOT
ATOM      1  N   UNL     1      33.363 -20.897 -20.620  0.00  0.00    -0.302 N 
ATOM      2  N   UNL     1      35.151 -21.619 -19.516  0.00  0.00    -0.302 N 
ATOM      3  C   UNL     1      34.419 -20.187 -21.131  0.00  0.00    +0.063 C 
ATOM      4  C   UNL     1      35.524 -20.656 -20.425  0.00  0.00    +0.060 C 
ATOM      5  C   UNL     1      33.849 -21.739 -19.660  0.00  0.00    +0.225 C 
ATOM      6  C   UNL     1      34.502 -19.204 -22.119  0.00  0.00    +0.053 C 
ATOM      7  C   UNL     1      35.774 -18.688 -22.388  0.00  0.00    +0.147 C 
ATOM      8  C   UNL     1      36.794 -20.126 -20.708  0.00  0.00    +0.019 C 
ATOM      9  C   UNL     1      36.900 -19.139 -21.696  0.00  0.00    +0.039 C 
ATOM     10  H   UNL     1      32.422 -20.814 -20.897  0.00  0.00    +0.150 HD
ATOM     11  H   UNL     1      35.731 -22.113 -18.893  0.00  0.00    +0.150 HD
ENDROOT
BRANCH   5  12
ATOM     12  N   UNL     1      32.978 -22.545 -19.014  0.00  0.00    -0.303 N 
ATOM     13  H   UNL     1      32.234 -22.876 -19.566  0.00  0.00    +0.150 HD
BRANCH  12  15
ATOM     14 CL   UNL     1      32.884 -24.396 -13.386  0.00  0.00    -0.082 Cl
ATOM     15  C   UNL     1      32.966 -22.991 -17.662  0.00  0.00    +0.047 C 
ATOM     16  C   UNL     1      34.156 -23.363 -17.053  0.00  0.00    +0.019 C 
ATOM     17  C   UNL     1      34.143 -23.800 -15.729  0.00  0.00    +0.083 C 
ATOM     18  C   UNL     1      31.762 -23.048 -16.973  0.00  0.00    +0.015 C 
ATOM     19  C   UNL     1      32.939 -23.862 -15.026  0.00  0.00    +0.062 C 
ATOM     20  C   UNL     1      31.749 -23.486 -15.648  0.00  0.00    +0.013 C 
BRANCH  17  24
ATOM     21  F   UNL     1      35.698 -23.481 -13.975  0.00  0.00    -0.166 F 
ATOM     22  F   UNL     1      35.466 -25.501 -14.745  0.00  0.00    -0.166 F 
ATOM     23  F   UNL     1      36.476 -23.989 -15.947  0.00  0.00    -0.166 F 
ATOM     24  C   UNL     1      35.440 -24.193 -15.098  0.00  0.00    +0.419 C 
ENDBRANCH  17  24
ENDBRANCH  12  15
ENDBRANCH   5  12
BRANCH   7  25
ATOM     25  O   UNL     1      35.915 -17.725 -23.343  0.00  0.00    -0.453 OA
BRANCH  25  27
ATOM     26  N   UNL     1      34.275 -13.986 -22.568  0.00  0.00    -0.239 NA
ATOM     27  C   UNL     1      35.369 -16.481 -23.085  0.00  0.00    +0.149 C 
ATOM     28  C   UNL     1      35.013 -15.668 -24.141  0.00  0.00    +0.061 C 
ATOM     29  C   UNL     1      35.191 -16.079 -21.778  0.00  0.00    +0.058 C 
ATOM     30  C   UNL     1      34.471 -14.431 -23.830  0.00  0.00    +0.137 C 
ATOM     31  C   UNL     1      34.641 -14.824 -21.572  0.00  0.00    +0.102 C 
BRANCH  30  34
ATOM     32  O   UNL     1      34.066 -12.290 -24.695  0.00  0.00    -0.268 OA
ATOM     33  N   UNL     1      33.726 -14.087 -26.120  0.00  0.00    -0.298 N 
ATOM     34  C   UNL     1      34.072 -13.519 -24.888  0.00  0.00    +0.264 C 
ATOM     35  C   UNL     1      33.330 -13.312 -27.276  0.00  0.00    +0.111 C 
ATOM     36  H   UNL     1      33.752 -15.068 -26.205  0.00  0.00    +0.150 HD
ENDBRANCH  30  34
ENDBRANCH  25  27
ENDBRANCH   7  25
TORSDOF 6
ENDMDL
MODEL 8
REMARK VINA RESULT:     -12.6      5.855     10.407
REMARK  Name = 11167118
REMARK  6 active torsions:
REMARK  status: ('A' for Active; 'I' for Inactive)
REMARK    1  A    between atoms: N_2  and  C_6
REMARK    2  A    between atoms: N_2  and  C_15
REMARK    3  A    between atoms: C_8  and  O_25
REMARK    4  A    between atoms: C_17  and  C_24
REMARK    5  A    between atoms: O_25  and  C_27
REMARK    6  A    between atoms: C_30  and  C_34
REMARK                            x       y       z     vdW  Elec       q    Type
REMARK                         _______ _______ _______ _____ _____    ______ ____
ROOT
ATOM      1  N   UNL     1      33.479 -20.814 -20.924  0.00  0.00    -0.302 N 
ATOM      2  N   UNL     1      35.158 -21.316 -19.557  0.00  0.00    -0.302 N 
ATOM      3  C   UNL     1      34.571 -20.154 -21.427  0.00  0.00    +0.063 C 
ATOM      4  C   UNL     1      35.606 -20.484 -20.556  0.00  0.00    +0.060 C 
ATOM      5  C   UNL     1      33.879 -21.494 -19.808  0.00  0.00    +0.225 C 
ATOM      6  C   UNL     1      34.738 -19.322 -22.536  0.00  0.00    +0.053 C 
ATOM      7  C   UNL     1      36.022 -18.812 -22.752  0.00  0.00    +0.147 C 
ATOM      8  C   UNL     1      36.889 -19.962 -20.789  0.00  0.00    +0.019 C 
ATOM      9  C   UNL     1      37.080 -19.125 -21.896  0.00  0.00    +0.039 C 
ATOM     10  H   UNL     1      32.570 -20.800 -21.301  0.00  0.00    +0.150 HD
ATOM     11  H   UNL     1      35.680 -21.697 -18.815  0.00  0.00    +0.150 HD
ENDROOT
BRANCH   5  12
ATOM     12  N   UNL     1      32.961 -22.224 -19.140  0.00  0.00    -0.303 N 
ATOM     13  H   UNL     1      32.123 -22.387 -19.631  0.00  0.00    +0.150 HD
BRANCH  12  15
ATOM     14 CL   UNL     1      33.208 -24.613 -13.722  0.00  0.00    -0.082 Cl
ATOM     15  C   UNL     1      33.010 -22.797 -17.837  0.00  0.00    +0.047 C 
ATOM     16  C   UNL     1      31.835 -22.960 -17.116  0.00  0.00    +0.019 C 
ATOM     17  C   UNL     1      31.884 -23.521 -15.840  0.00  0.00    +0.083 C 
ATOM     18  C   UNL     1      34.233 -23.184 -17.307  0.00  0.00    +0.015 C 
ATOM     19  C   UNL     1      33.108 -23.914 -15.297  0.00  0.00    +0.062 C 
ATOM     20  C   UNL     1      34.282 -23.745 -16.030  0.00  0.00    +0.013 C 
BRANCH  17  24
ATOM     21  F   UNL     1      30.271 -24.989 -14.924  0.00  0.00    -0.166 F 
ATOM     22  F   UNL     1      30.661 -23.141 -13.848  0.00  0.00    -0.166 F 
ATOM     23  F   UNL     1      29.576 -23.088 -15.738  0.00  0.00    -0.166 F 
ATOM     24  C   UNL     1      30.604 -23.685 -15.087  0.00  0.00    +0.419 C 
ENDBRANCH  17  24
ENDBRANCH  12  15
ENDBRANCH   5  12
BRANCH   7  25
ATOM     25  O   UNL     1      36.243 -17.993 -23.820  0.00  0.00    -0.453 OA
BRANCH  25  27
ATOM     26  N   UNL     1      33.857 -14.610 -24.180  0.00  0.00    -0.239 NA
ATOM     27  C   UNL     1      35.449 -16.867 -23.940  0.00  0.00    +0.149 C 
ATOM     28  C   UNL     1      35.171 -16.114 -22.818  0.00  0.00    +0.061 C 
ATOM     29  C   UNL     1      34.952 -16.520 -25.178  0.00  0.00    +0.058 C 
ATOM     30  C   UNL     1      34.371 -14.996 -22.991  0.00  0.00    +0.137 C 
ATOM     31  C   UNL     1      34.161 -15.384 -25.246  0.00  0.00    +0.102 C 
BRANCH  30  34
ATOM     32  O   UNL     1      34.842 -13.999 -20.922  0.00  0.00    -0.268 OA
ATOM     33  N   UNL     1      32.787 -13.519 -21.881  0.00  0.00    -0.298 N 
ATOM     34  C   UNL     1      34.035 -14.154 -21.856  0.00  0.00    +0.264 C 
ATOM     35  C   UNL     1      32.318 -12.634 -20.839  0.00  0.00    +0.111 C 
ATOM     36  H   UNL     1      32.196 -13.686 -22.651  0.00  0.00    +0.150 HD
ENDBRANCH  30  34
ENDBRANCH  25  27
ENDBRANCH   7  25
TORSDOF 6
ENDMDL
MODEL 9
REMARK VINA RESULT:     -12.6      1.855      3.208
REMARK  Name = 11167118
REMARK  6 active torsions:
REMARK  status: ('A' for Active; 'I' for Inactive)
REMARK    1  A    between atoms: N_2  and  C_6
REMARK    2  A    between atoms: N_2  and  C_15
REMARK    3  A    between atoms: C_8  and  O_25
REMARK    4  A    between atoms: C_17  and  C_24
REMARK    5  A    between atoms: O_25  and  C_27
REMARK    6  A    between atoms: C_30  and  C_34
REMARK                            x       y       z     vdW  Elec       q    Type
REMARK                         _______ _______ _______ _____ _____    ______ ____
ROOT
ATOM      1  N   UNL     1      34.962 -19.329 -21.826  0.00  0.00    -0.302 N 
ATOM      2  N   UNL     1      37.021 -19.065 -21.034  0.00  0.00    -0.302 N 
ATOM      3  C   UNL     1      35.139 -20.344 -20.922  0.00  0.00    +0.063 C 
ATOM      4  C   UNL     1      36.432 -20.157 -20.441  0.00  0.00    +0.060 C 
ATOM      5  C   UNL     1      36.112 -18.592 -21.858  0.00  0.00    +0.225 C 
ATOM      6  C   UNL     1      34.305 -21.380 -20.495  0.00  0.00    +0.053 C 
ATOM      7  C   UNL     1      34.827 -22.253 -19.536  0.00  0.00    +0.147 C 
ATOM      8  C   UNL     1      36.940 -21.045 -19.478  0.00  0.00    +0.019 C 
ATOM      9  C   UNL     1      36.120 -22.091 -19.035  0.00  0.00    +0.039 C 
ATOM     10  H   UNL     1      34.150 -19.162 -22.357  0.00  0.00    +0.150 HD
ATOM     11  H   UNL     1      37.926 -18.712 -20.876  0.00  0.00    +0.150 HD
ENDROOT
BRANCH   5  12
ATOM     12  N   UNL     1      36.167 -17.527 -22.688  0.00  0.00    -0.303 N 
ATOM     13  H   UNL     1      36.860 -17.582 -23.386  0.00  0.00    +0.150 HD
BRANCH  12  15
ATOM     14 CL   UNL     1      32.906 -12.580 -22.753  0.00  0.00    -0.082 Cl
ATOM     15  C   UNL     1      35.384 -16.339 -22.714  0.00  0.00    +0.047 C 
ATOM     16  C   UNL     1      35.003 -15.796 -23.933  0.00  0.00    +0.019 C 
ATOM     17  C   UNL     1      34.235 -14.632 -23.958  0.00  0.00    +0.083 C 
ATOM     18  C   UNL     1      35.013 -15.739 -21.518  0.00  0.00    +0.015 C 
ATOM     19  C   UNL     1      33.857 -14.020 -22.762  0.00  0.00    +0.062 C 
ATOM     20  C   UNL     1      34.246 -14.574 -21.543  0.00  0.00    +0.013 C 
BRANCH  17  24
ATOM     21  F   UNL     1      32.494 -14.027 -25.439  0.00  0.00    -0.166 F 
ATOM     22  F   UNL     1      34.294 -12.808 -25.468  0.00  0.00    -0.166 F 
ATOM     23  F   UNL     1      34.333 -14.823 -26.299  0.00  0.00    -0.166 F 
ATOM     24  C   UNL     1      33.839 -14.071 -25.286  0.00  0.00    +0.419 C 
ENDBRANCH  17  24
ENDBRANCH  12  15
ENDBRANCH   5  12
BRANCH   7  25
ATOM     25  O   UNL     1      34.057 -23.283 -19.083  0.00  0.00    -0.453 OA
BRANCH  25  27
ATOM     26  N   UNL     1      32.630 -23.053 -15.187  0.00  0.00    -0.239 NA
ATOM     27  C   UNL     1      33.582 -23.207 -17.786  0.00  0.00    +0.149 C 
ATOM     28  C   UNL     1      32.222 -23.132 -17.569  0.00  0.00    +0.061 C 
ATOM     29  C   UNL     1      34.477 -23.208 -16.738  0.00  0.00    +0.058 C 
ATOM     30  C   UNL     1      31.797 -23.056 -16.252  0.00  0.00    +0.137 C 
ATOM     31  C   UNL     1      33.952 -23.129 -15.458  0.00  0.00    +0.102 C 
BRANCH  30  34
ATOM     32  O   UNL     1      29.986 -23.007 -14.764  0.00  0.00    -0.268 OA
ATOM     33  N   UNL     1      29.500 -22.834 -17.024  0.00  0.00    -0.298 N 
ATOM     34  C   UNL     1      30.379 -22.974 -15.944  0.00  0.00    +0.264 C 
ATOM     35  C   UNL     1      28.066 -22.717 -16.879  0.00  0.00    +0.111 C 
ATOM     36  H   UNL     1      29.879 -22.816 -17.933  0.00  0.00    +0.150 HD
ENDBRANCH  30  34
ENDBRANCH  25  27
ENDBRANCH   7  25
TORSDOF 6
ENDMDL
