MODEL 1
REMARK VINA RESULT:     -11.5      0.000      0.000
REMARK  Name = 10401956
REMARK  3 active torsions:
REMARK  status: ('A' for Active; 'I' for Inactive)
REMARK    1  A    between atoms: N_1  and  C_13
REMARK    2  A    between atoms: C_8  and  N_20
REMARK    3  A    between atoms: C_21  and  C_23
REMARK                            x       y       z     vdW  Elec       q    Type
REMARK                         _______ _______ _______ _____ _____    ______ ____
ROOT
ATOM      1  N   UNL     1      33.061 -22.397 -18.636  0.00  0.00    -0.301 N 
ATOM      2  N   UNL     1      33.882 -24.418 -15.120  0.00  0.00    -0.248 NA
ATOM      3  N   UNL     1      34.584 -23.528 -17.246  0.00  0.00    -0.233 NA
ATOM      4  C   UNL     1      32.296 -23.272 -16.508  0.00  0.00    +0.117 C 
ATOM      5  C   UNL     1      32.634 -23.965 -15.334  0.00  0.00    +0.067 C 
ATOM      6  C   UNL     1      33.325 -23.087 -17.428  0.00  0.00    +0.115 C 
ATOM      7  C   UNL     1      30.989 -22.802 -16.720  0.00  0.00    +0.001 C 
ATOM      8  C   UNL     1      30.006 -23.021 -15.760  0.00  0.00    +0.047 C 
ATOM      9  C   UNL     1      31.630 -24.170 -14.389  0.00  0.00    +0.016 C 
ATOM     10  C   UNL     1      30.327 -23.706 -14.593  0.00  0.00    +0.016 C 
ATOM     11  C   UNL     1      34.788 -24.175 -16.088  0.00  0.00    +0.251 C 
ATOM     12  H   UNL     1      32.120 -22.388 -18.930  0.00  0.00    +0.153 HD
ENDROOT
BRANCH   1  13
ATOM     13  C   UNL     1      33.956 -21.734 -19.456  0.00  0.00    +0.049 C 
ATOM     14  C   UNL     1      35.336 -22.006 -19.393  0.00  0.00    +0.015 C 
ATOM     15  C   UNL     1      33.512 -20.765 -20.378  0.00  0.00    +0.015 C 
ATOM     16  C   UNL     1      36.238 -21.336 -20.219  0.00  0.00    +0.001 C 
ATOM     17  C   UNL     1      34.416 -20.095 -21.204  0.00  0.00    +0.001 C 
ATOM     18  C   UNL     1      35.779 -20.381 -21.124  0.00  0.00    +0.000 C 
ENDBRANCH   1  13
BRANCH   8  20
ATOM     19  O   UNL     1      28.091 -23.537 -18.014  0.00  0.00    -0.270 OA
ATOM     20  N   UNL     1      28.707 -22.557 -15.965  0.00  0.00    -0.281 N 
ATOM     21  C   UNL     1      27.852 -22.831 -17.043  0.00  0.00    +0.250 C 
ATOM     22  H   UNL     1      28.346 -21.963 -15.268  0.00  0.00    +0.155 HD
BRANCH  21  23
ATOM     23  C   UNL     1      26.538 -22.140 -16.891  0.00  0.00    +0.058 C 
ATOM     24  C   UNL     1      26.110 -21.284 -17.825  0.00  0.00    +0.005 C 
ENDBRANCH  21  23
ENDBRANCH   8  20
TORSDOF 3
ENDMDL
MODEL 2
REMARK VINA RESULT:     -10.5      0.965      1.497
REMARK  Name = 10401956
REMARK  3 active torsions:
REMARK  status: ('A' for Active; 'I' for Inactive)
REMARK    1  A    between atoms: N_1  and  C_13
REMARK    2  A    between atoms: C_8  and  N_20
REMARK    3  A    between atoms: C_21  and  C_23
REMARK                            x       y       z     vdW  Elec       q    Type
REMARK                         _______ _______ _______ _____ _____    ______ ____
ROOT
ATOM      1  N   UNL     1      33.610 -22.563 -18.289  0.00  0.00    -0.301 N 
ATOM      2  N   UNL     1      35.094 -24.026 -14.713  0.00  0.00    -0.248 NA
ATOM      3  N   UNL     1      35.435 -23.224 -16.960  0.00  0.00    -0.233 NA
ATOM      4  C   UNL     1      33.205 -23.362 -16.035  0.00  0.00    +0.117 C 
ATOM      5  C   UNL     1      33.766 -23.855 -14.845  0.00  0.00    +0.067 C 
ATOM      6  C   UNL     1      34.101 -23.065 -17.058  0.00  0.00    +0.115 C 
ATOM      7  C   UNL     1      31.817 -23.187 -16.161  0.00  0.00    +0.001 C 
ATOM      8  C   UNL     1      30.976 -23.503 -15.099  0.00  0.00    +0.047 C 
ATOM      9  C   UNL     1      32.901 -24.163 -13.798  0.00  0.00    +0.016 C 
ATOM     10  C   UNL     1      31.519 -23.992 -13.916  0.00  0.00    +0.016 C 
ATOM     11  C   UNL     1      35.855 -23.701 -15.778  0.00  0.00    +0.251 C 
ATOM     12  H   UNL     1      32.669 -22.771 -18.493  0.00  0.00    +0.153 HD
ENDROOT
BRANCH   1  13
ATOM     13  C   UNL     1      34.283 -21.817 -19.239  0.00  0.00    +0.049 C 
ATOM     14  C   UNL     1      33.588 -20.969 -20.123  0.00  0.00    +0.015 C 
ATOM     15  C   UNL     1      35.686 -21.885 -19.351  0.00  0.00    +0.015 C 
ATOM     16  C   UNL     1      34.267 -20.218 -21.081  0.00  0.00    +0.001 C 
ATOM     17  C   UNL     1      36.365 -21.133 -20.311  0.00  0.00    +0.001 C 
ATOM     18  C   UNL     1      35.655 -20.300 -21.176  0.00  0.00    +0.000 C 
ENDBRANCH   1  13
BRANCH   8  20
ATOM     19  O   UNL     1      29.359 -22.220 -17.281  0.00  0.00    -0.270 OA
ATOM     20  N   UNL     1      29.597 -23.331 -15.219  0.00  0.00    -0.281 N 
ATOM     21  C   UNL     1      28.890 -22.721 -16.266  0.00  0.00    +0.250 C 
ATOM     22  H   UNL     1      29.052 -23.681 -14.477  0.00  0.00    +0.155 HD
BRANCH  21  23
ATOM     23  C   UNL     1      27.419 -22.736 -16.018  0.00  0.00    +0.058 C 
ATOM     24  C   UNL     1      26.595 -22.008 -16.779  0.00  0.00    +0.005 C 
ENDBRANCH  21  23
ENDBRANCH   8  20
TORSDOF 3
ENDMDL
MODEL 3
REMARK VINA RESULT:     -10.3      3.315      7.551
REMARK  Name = 10401956
REMARK  3 active torsions:
REMARK  status: ('A' for Active; 'I' for Inactive)
REMARK    1  A    between atoms: N_1  and  C_13
REMARK    2  A    between atoms: C_8  and  N_20
REMARK    3  A    between atoms: C_21  and  C_23
REMARK                            x       y       z     vdW  Elec       q    Type
REMARK                         _______ _______ _______ _____ _____    ______ ____
ROOT
ATOM      1  N   UNL     1      32.774 -23.853 -16.463  0.00  0.00    -0.301 N 
ATOM      2  N   UNL     1      35.000 -21.816 -19.296  0.00  0.00    -0.248 NA
ATOM      3  N   UNL     1      32.915 -22.761 -18.542  0.00  0.00    -0.233 NA
ATOM      4  C   UNL     1      34.899 -22.922 -17.170  0.00  0.00    +0.117 C 
ATOM      5  C   UNL     1      35.603 -22.227 -18.167  0.00  0.00    +0.067 C 
ATOM      6  C   UNL     1      33.551 -23.157 -17.422  0.00  0.00    +0.115 C 
ATOM      7  C   UNL     1      35.540 -23.346 -15.993  0.00  0.00    +0.001 C 
ATOM      8  C   UNL     1      36.892 -23.079 -15.802  0.00  0.00    +0.047 C 
ATOM      9  C   UNL     1      36.956 -21.973 -17.949  0.00  0.00    +0.016 C 
ATOM     10  C   UNL     1      37.601 -22.391 -16.781  0.00  0.00    +0.016 C 
ATOM     11  C   UNL     1      33.689 -22.106 -19.422  0.00  0.00    +0.251 C 
ATOM     12  H   UNL     1      33.275 -24.432 -15.843  0.00  0.00    +0.153 HD
ENDROOT
BRANCH   1  13
ATOM     13  C   UNL     1      31.403 -23.821 -16.286  0.00  0.00    +0.049 C 
ATOM     14  C   UNL     1      30.646 -22.701 -16.682  0.00  0.00    +0.015 C 
ATOM     15  C   UNL     1      30.723 -24.909 -15.703  0.00  0.00    +0.015 C 
ATOM     16  C   UNL     1      29.264 -22.669 -16.502  0.00  0.00    +0.001 C 
ATOM     17  C   UNL     1      29.339 -24.876 -15.524  0.00  0.00    +0.001 C 
ATOM     18  C   UNL     1      28.610 -23.756 -15.923  0.00  0.00    +0.000 C 
ENDBRANCH   1  13
BRANCH   8  20
ATOM     19  O   UNL     1      38.055 -25.750 -15.074  0.00  0.00    -0.270 OA
ATOM     20  N   UNL     1      37.534 -23.497 -14.636  0.00  0.00    -0.281 N 
ATOM     21  C   UNL     1      38.061 -24.764 -14.347  0.00  0.00    +0.250 C 
ATOM     22  H   UNL     1      37.628 -22.818 -13.929  0.00  0.00    +0.155 HD
BRANCH  21  23
ATOM     23  C   UNL     1      38.669 -24.809 -12.985  0.00  0.00    +0.058 C 
ATOM     24  C   UNL     1      38.246 -23.980 -12.025  0.00  0.00    +0.005 C 
ENDBRANCH  21  23
ENDBRANCH   8  20
TORSDOF 3
ENDMDL
MODEL 4
REMARK VINA RESULT:     -10.2      2.725      3.835
REMARK  Name = 10401956
REMARK  3 active torsions:
REMARK  status: ('A' for Active; 'I' for Inactive)
REMARK    1  A    between atoms: N_1  and  C_13
REMARK    2  A    between atoms: C_8  and  N_20
REMARK    3  A    between atoms: C_21  and  C_23
REMARK                            x       y       z     vdW  Elec       q    Type
REMARK                         _______ _______ _______ _____ _____    ______ ____
ROOT
ATOM      1  N   UNL     1      34.914 -22.548 -18.319  0.00  0.00    -0.301 N 
ATOM      2  N   UNL     1      37.791 -22.702 -15.348  0.00  0.00    -0.248 NA
ATOM      3  N   UNL     1      37.090 -22.068 -17.564  0.00  0.00    -0.233 NA
ATOM      4  C   UNL     1      35.564 -23.211 -16.078  0.00  0.00    +0.117 C 
ATOM      5  C   UNL     1      36.580 -23.234 -15.109  0.00  0.00    +0.067 C 
ATOM      6  C   UNL     1      35.887 -22.609 -17.291  0.00  0.00    +0.115 C 
ATOM      7  C   UNL     1      34.301 -23.770 -15.816  0.00  0.00    +0.001 C 
ATOM      8  C   UNL     1      34.043 -24.357 -14.582  0.00  0.00    +0.047 C 
ATOM      9  C   UNL     1      36.293 -23.828 -13.882  0.00  0.00    +0.016 C 
ATOM     10  C   UNL     1      35.040 -24.386 -13.613  0.00  0.00    +0.016 C 
ATOM     11  C   UNL     1      37.980 -22.148 -16.563  0.00  0.00    +0.251 C 
ATOM     12  H   UNL     1      34.194 -23.220 -18.270  0.00  0.00    +0.153 HD
ENDROOT
BRANCH   1  13
ATOM     13  C   UNL     1      34.845 -21.665 -19.381  0.00  0.00    +0.049 C 
ATOM     14  C   UNL     1      33.603 -21.262 -19.910  0.00  0.00    +0.015 C 
ATOM     15  C   UNL     1      36.015 -21.143 -19.965  0.00  0.00    +0.015 C 
ATOM     16  C   UNL     1      33.534 -20.372 -20.981  0.00  0.00    +0.001 C 
ATOM     17  C   UNL     1      35.945 -20.253 -21.038  0.00  0.00    +0.001 C 
ATOM     18  C   UNL     1      34.704 -19.868 -21.545  0.00  0.00    +0.000 C 
ENDBRANCH   1  13
BRANCH   8  20
ATOM     19  O   UNL     1      31.326 -23.081 -14.503  0.00  0.00    -0.270 OA
ATOM     20  N   UNL     1      32.791 -24.913 -14.316  0.00  0.00    -0.281 N 
ATOM     21  C   UNL     1      31.547 -24.267 -14.293  0.00  0.00    +0.250 C 
ATOM     22  H   UNL     1      32.781 -25.878 -14.121  0.00  0.00    +0.155 HD
BRANCH  21  23
ATOM     23  C   UNL     1      30.442 -25.215 -13.966  0.00  0.00    +0.058 C 
ATOM     24  C   UNL     1      29.529 -25.539 -14.888  0.00  0.00    +0.005 C 
ENDBRANCH  21  23
ENDBRANCH   8  20
TORSDOF 3
ENDMDL
MODEL 5
REMARK VINA RESULT:     -10.1     10.523     13.502
REMARK  Name = 10401956
REMARK  3 active torsions:
REMARK  status: ('A' for Active; 'I' for Inactive)
REMARK    1  A    between atoms: N_1  and  C_13
REMARK    2  A    between atoms: C_8  and  N_20
REMARK    3  A    between atoms: C_21  and  C_23
REMARK                            x       y       z     vdW  Elec       q    Type
REMARK                         _______ _______ _______ _____ _____    ______ ____
ROOT
ATOM      1  N   UNL     1      33.114 -13.067 -23.727  0.00  0.00    -0.301 N 
ATOM      2  N   UNL     1      31.922 -12.221 -19.855  0.00  0.00    -0.248 NA
ATOM      3  N   UNL     1      32.535 -13.801 -21.569  0.00  0.00    -0.233 NA
ATOM      4  C   UNL     1      32.506 -11.430 -22.043  0.00  0.00    +0.117 C 
ATOM      5  C   UNL     1      32.102 -11.205 -20.717  0.00  0.00    +0.067 C 
ATOM      6  C   UNL     1      32.706 -12.760 -22.406  0.00  0.00    +0.115 C 
ATOM      7  C   UNL     1      32.692 -10.360 -22.935  0.00  0.00    +0.001 C 
ATOM      8  C   UNL     1      32.475  -9.054 -22.509  0.00  0.00    +0.047 C 
ATOM      9  C   UNL     1      31.892  -9.887 -20.318  0.00  0.00    +0.016 C 
ATOM     10  C   UNL     1      32.075  -8.817 -21.199  0.00  0.00    +0.016 C 
ATOM     11  C   UNL     1      32.148 -13.464 -20.328  0.00  0.00    +0.251 C 
ATOM     12  H   UNL     1      32.904 -12.389 -24.411  0.00  0.00    +0.153 HD
ENDROOT
BRANCH   1  13
ATOM     13  C   UNL     1      33.771 -14.197 -24.179  0.00  0.00    +0.049 C 
ATOM     14  C   UNL     1      33.454 -14.770 -25.427  0.00  0.00    +0.015 C 
ATOM     15  C   UNL     1      34.775 -14.810 -23.404  0.00  0.00    +0.015 C 
ATOM     16  C   UNL     1      34.115 -15.910 -25.882  0.00  0.00    +0.001 C 
ATOM     17  C   UNL     1      35.436 -15.951 -23.860  0.00  0.00    +0.001 C 
ATOM     18  C   UNL     1      35.106 -16.501 -25.099  0.00  0.00    +0.000 C 
ENDBRANCH   1  13
BRANCH   8  20
ATOM     19  O   UNL     1      34.826  -7.225 -22.887  0.00  0.00    -0.270 OA
ATOM     20  N   UNL     1      32.657  -7.988 -23.390  0.00  0.00    -0.281 N 
ATOM     21  C   UNL     1      33.783  -7.162 -23.525  0.00  0.00    +0.250 C 
ATOM     22  H   UNL     1      31.903  -7.790 -23.991  0.00  0.00    +0.155 HD
BRANCH  21  23
ATOM     23  C   UNL     1      33.584  -6.131 -24.585  0.00  0.00    +0.058 C 
ATOM     24  C   UNL     1      34.635  -5.578 -25.201  0.00  0.00    +0.005 C 
ENDBRANCH  21  23
ENDBRANCH   8  20
TORSDOF 3
ENDMDL
MODEL 6
REMARK VINA RESULT:     -10.0      6.942     10.195
REMARK  Name = 10401956
REMARK  3 active torsions:
REMARK  status: ('A' for Active; 'I' for Inactive)
REMARK    1  A    between atoms: N_1  and  C_13
REMARK    2  A    between atoms: C_8  and  N_20
REMARK    3  A    between atoms: C_21  and  C_23
REMARK                            x       y       z     vdW  Elec       q    Type
REMARK                         _______ _______ _______ _____ _____    ______ ____
ROOT
ATOM      1  N   UNL     1      35.497 -17.107 -22.111  0.00  0.00    -0.301 N 
ATOM      2  N   UNL     1      34.535 -16.164 -26.024  0.00  0.00    -0.248 NA
ATOM      3  N   UNL     1      35.493 -17.661 -24.397  0.00  0.00    -0.233 NA
ATOM      4  C   UNL     1      34.519 -15.560 -23.702  0.00  0.00    +0.117 C 
ATOM      5  C   UNL     1      34.218 -15.294 -25.048  0.00  0.00    +0.067 C 
ATOM      6  C   UNL     1      35.161 -16.769 -23.445  0.00  0.00    +0.115 C 
ATOM      7  C   UNL     1      34.183 -14.644 -22.690  0.00  0.00    +0.001 C 
ATOM      8  C   UNL     1      33.542 -13.453 -23.015  0.00  0.00    +0.047 C 
ATOM      9  C   UNL     1      33.576 -14.094 -25.344  0.00  0.00    +0.016 C 
ATOM     10  C   UNL     1      33.238 -13.178 -24.344  0.00  0.00    +0.016 C 
ATOM     11  C   UNL     1      35.155 -17.300 -25.645  0.00  0.00    +0.251 C 
ATOM     12  H   UNL     1      35.585 -16.352 -21.484  0.00  0.00    +0.153 HD
ENDROOT
BRANCH   1  13
ATOM     13  C   UNL     1      35.718 -18.364 -21.576  0.00  0.00    +0.049 C 
ATOM     14  C   UNL     1      34.653 -19.265 -21.378  0.00  0.00    +0.015 C 
ATOM     15  C   UNL     1      37.015 -18.779 -21.214  0.00  0.00    +0.015 C 
ATOM     16  C   UNL     1      34.876 -20.531 -20.838  0.00  0.00    +0.001 C 
ATOM     17  C   UNL     1      37.236 -20.047 -20.674  0.00  0.00    +0.001 C 
ATOM     18  C   UNL     1      36.167 -20.922 -20.486  0.00  0.00    +0.000 C 
ENDBRANCH   1  13
BRANCH   8  20
ATOM     19  O   UNL     1      32.074 -13.859 -20.427  0.00  0.00    -0.270 OA
ATOM     20  N   UNL     1      33.206 -12.541 -22.015  0.00  0.00    -0.281 N 
ATOM     21  C   UNL     1      32.515 -12.785 -20.819  0.00  0.00    +0.250 C 
ATOM     22  H   UNL     1      33.488 -11.610 -22.168  0.00  0.00    +0.155 HD
BRANCH  21  23
ATOM     23  C   UNL     1      32.353 -11.540 -20.014  0.00  0.00    +0.058 C 
ATOM     24  C   UNL     1      31.627 -11.547 -18.891  0.00  0.00    +0.005 C 
ENDBRANCH  21  23
ENDBRANCH   8  20
TORSDOF 3
ENDMDL
MODEL 7
REMARK VINA RESULT:      -9.8      1.830      2.770
REMARK  Name = 10401956
REMARK  3 active torsions:
REMARK  status: ('A' for Active; 'I' for Inactive)
REMARK    1  A    between atoms: N_1  and  C_13
REMARK    2  A    between atoms: C_8  and  N_20
REMARK    3  A    between atoms: C_21  and  C_23
REMARK                            x       y       z     vdW  Elec       q    Type
REMARK                         _______ _______ _______ _____ _____    ______ ____
ROOT
ATOM      1  N   UNL     1      34.934 -21.616 -19.751  0.00  0.00    -0.301 N 
ATOM      2  N   UNL     1      36.693 -22.888 -16.228  0.00  0.00    -0.248 NA
ATOM      3  N   UNL     1      36.845 -21.859 -18.401  0.00  0.00    -0.233 NA
ATOM      4  C   UNL     1      34.720 -22.660 -17.573  0.00  0.00    +0.117 C 
ATOM      5  C   UNL     1      35.372 -23.071 -16.399  0.00  0.00    +0.067 C 
ATOM      6  C   UNL     1      35.520 -22.057 -18.539  0.00  0.00    +0.115 C 
ATOM      7  C   UNL     1      33.338 -22.856 -17.740  0.00  0.00    +0.001 C 
ATOM      8  C   UNL     1      32.596 -23.466 -16.734  0.00  0.00    +0.047 C 
ATOM      9  C   UNL     1      34.604 -23.679 -15.408  0.00  0.00    +0.016 C 
ATOM     10  C   UNL     1      33.229 -23.877 -15.566  0.00  0.00    +0.016 C 
ATOM     11  C   UNL     1      37.357 -22.292 -17.239  0.00  0.00    +0.251 C 
ATOM     12  H   UNL     1      34.089 -22.054 -20.005  0.00  0.00    +0.153 HD
ENDROOT
BRANCH   1  13
ATOM     13  C   UNL     1      35.397 -20.647 -20.623  0.00  0.00    +0.049 C 
ATOM     14  C   UNL     1      36.712 -20.153 -20.525  0.00  0.00    +0.015 C 
ATOM     15  C   UNL     1      34.566 -20.126 -21.634  0.00  0.00    +0.015 C 
ATOM     16  C   UNL     1      37.179 -19.175 -21.404  0.00  0.00    +0.001 C 
ATOM     17  C   UNL     1      35.033 -19.147 -22.512  0.00  0.00    +0.001 C 
ATOM     18  C   UNL     1      36.340 -18.672 -22.397  0.00  0.00    +0.000 C 
ENDBRANCH   1  13
BRANCH   8  20
ATOM     19  O   UNL     1      30.293 -22.608 -15.007  0.00  0.00    -0.270 OA
ATOM     20  N   UNL     1      31.224 -23.663 -16.894  0.00  0.00    -0.281 N 
ATOM     21  C   UNL     1      30.186 -23.238 -16.052  0.00  0.00    +0.250 C 
ATOM     22  H   UNL     1      30.951 -24.162 -17.697  0.00  0.00    +0.155 HD
BRANCH  21  23
ATOM     23  C   UNL     1      28.851 -23.649 -16.575  0.00  0.00    +0.058 C 
ATOM     24  C   UNL     1      27.831 -22.785 -16.589  0.00  0.00    +0.005 C 
ENDBRANCH  21  23
ENDBRANCH   8  20
TORSDOF 3
ENDMDL
MODEL 8
REMARK VINA RESULT:      -9.6     11.324     14.166
REMARK  Name = 10401956
REMARK  3 active torsions:
REMARK  status: ('A' for Active; 'I' for Inactive)
REMARK    1  A    between atoms: N_1  and  C_13
REMARK    2  A    between atoms: C_8  and  N_20
REMARK    3  A    between atoms: C_21  and  C_23
REMARK                            x       y       z     vdW  Elec       q    Type
REMARK                         _______ _______ _______ _____ _____    ______ ____
ROOT
ATOM      1  N   UNL     1      33.079  -8.785 -23.104  0.00  0.00    -0.301 N 
ATOM      2  N   UNL     1      31.834 -10.472 -19.536  0.00  0.00    -0.248 NA
ATOM      3  N   UNL     1      32.374  -8.541 -20.873  0.00  0.00    -0.233 NA
ATOM      4  C   UNL     1      32.550 -10.764 -21.806  0.00  0.00    +0.117 C 
ATOM      5  C   UNL     1      32.123 -11.279 -20.571  0.00  0.00    +0.067 C 
ATOM      6  C   UNL     1      32.654  -9.378 -21.890  0.00  0.00    +0.115 C 
ATOM      7  C   UNL     1      32.848 -11.618 -22.882  0.00  0.00    +0.001 C 
ATOM      8  C   UNL     1      32.723 -12.995 -22.733  0.00  0.00    +0.047 C 
ATOM      9  C   UNL     1      32.005 -12.662 -20.450  0.00  0.00    +0.016 C 
ATOM     10  C   UNL     1      32.301 -13.518 -21.515  0.00  0.00    +0.016 C 
ATOM     11  C   UNL     1      31.975  -9.147 -19.743  0.00  0.00    +0.251 C 
ATOM     12  H   UNL     1      33.605  -9.362 -23.704  0.00  0.00    +0.153 HD
ENDROOT
BRANCH   1  13
ATOM     13  C   UNL     1      32.849  -7.497 -23.553  0.00  0.00    +0.049 C 
ATOM     14  C   UNL     1      31.555  -6.940 -23.527  0.00  0.00    +0.015 C 
ATOM     15  C   UNL     1      33.902  -6.705 -24.051  0.00  0.00    +0.015 C 
ATOM     16  C   UNL     1      31.323  -5.642 -23.982  0.00  0.00    +0.001 C 
ATOM     17  C   UNL     1      33.668  -5.406 -24.506  0.00  0.00    +0.001 C 
ATOM     18  C   UNL     1      32.379  -4.875 -24.471  0.00  0.00    +0.000 C 
ENDBRANCH   1  13
BRANCH   8  20
ATOM     19  O   UNL     1      35.231 -14.520 -23.366  0.00  0.00    -0.270 OA
ATOM     20  N   UNL     1      33.017 -13.847 -23.797  0.00  0.00    -0.281 N 
ATOM     21  C   UNL     1      34.213 -14.538 -24.045  0.00  0.00    +0.250 C 
ATOM     22  H   UNL     1      32.297 -13.980 -24.456  0.00  0.00    +0.155 HD
BRANCH  21  23
ATOM     23  C   UNL     1      34.129 -15.349 -25.295  0.00  0.00    +0.058 C 
ATOM     24  C   UNL     1      34.849 -16.468 -25.427  0.00  0.00    +0.005 C 
ENDBRANCH  21  23
ENDBRANCH   8  20
TORSDOF 3
ENDMDL
MODEL 9
REMARK VINA RESULT:      -9.6      2.854      6.089
REMARK  Name = 10401956
REMARK  3 active torsions:
REMARK  status: ('A' for Active; 'I' for Inactive)
REMARK    1  A    between atoms: N_1  and  C_13
REMARK    2  A    between atoms: C_8  and  N_20
REMARK    3  A    between atoms: C_21  and  C_23
REMARK                            x       y       z     vdW  Elec       q    Type
REMARK                         _______ _______ _______ _____ _____    ______ ____
ROOT
ATOM      1  N   UNL     1      35.002 -24.456 -14.737  0.00  0.00    -0.301 N 
ATOM      2  N   UNL     1      30.937 -24.591 -13.971  0.00  0.00    -0.248 NA
ATOM      3  N   UNL     1      33.210 -25.099 -13.355  0.00  0.00    -0.233 NA
ATOM      4  C   UNL     1      32.735 -23.917 -15.409  0.00  0.00    +0.117 C 
ATOM      5  C   UNL     1      31.367 -23.994 -15.096  0.00  0.00    +0.067 C 
ATOM      6  C   UNL     1      33.607 -24.493 -14.490  0.00  0.00    +0.115 C 
ATOM      7  C   UNL     1      33.173 -23.290 -16.588  0.00  0.00    +0.001 C 
ATOM      8  C   UNL     1      32.248 -22.734 -17.466  0.00  0.00    +0.047 C 
ATOM      9  C   UNL     1      30.463 -23.428 -15.992  0.00  0.00    +0.016 C 
ATOM     10  C   UNL     1      30.891 -22.803 -17.167  0.00  0.00    +0.016 C 
ATOM     11  C   UNL     1      31.882 -25.111 -13.162  0.00  0.00    +0.251 C 
ATOM     12  H   UNL     1      35.269 -24.346 -15.679  0.00  0.00    +0.153 HD
ENDROOT
BRANCH   1  13
ATOM     13  C   UNL     1      36.035 -24.552 -13.823  0.00  0.00    +0.049 C 
ATOM     14  C   UNL     1      36.330 -23.490 -12.946  0.00  0.00    +0.015 C 
ATOM     15  C   UNL     1      36.826 -25.716 -13.744  0.00  0.00    +0.015 C 
ATOM     16  C   UNL     1      37.373 -23.587 -12.026  0.00  0.00    +0.001 C 
ATOM     17  C   UNL     1      37.869 -25.812 -12.822  0.00  0.00    +0.001 C 
ATOM     18  C   UNL     1      38.143 -24.747 -11.964  0.00  0.00    +0.000 C 
ENDBRANCH   1  13
BRANCH   8  20
ATOM     19  O   UNL     1      34.936 -22.749 -18.803  0.00  0.00    -0.270 OA
ATOM     20  N   UNL     1      32.677 -22.110 -18.637  0.00  0.00    -0.281 N 
ATOM     21  C   UNL     1      33.952 -22.151 -19.220  0.00  0.00    +0.250 C 
ATOM     22  H   UNL     1      32.002 -21.574 -19.113  0.00  0.00    +0.155 HD
BRANCH  21  23
ATOM     23  C   UNL     1      34.008 -21.347 -20.476  0.00  0.00    +0.058 C 
ATOM     24  C   UNL     1      33.066 -20.436 -20.742  0.00  0.00    +0.005 C 
ENDBRANCH  21  23
ENDBRANCH   8  20
TORSDOF 3
ENDMDL
