MODEL 1
REMARK VINA RESULT:     -11.6      0.000      0.000
REMARK  Name = 11626560
REMARK  5 active torsions:
REMARK  status: ('A' for Active; 'I' for Inactive)
REMARK    1  A    between atoms: C_2  and  C_10
REMARK    2  A    between atoms: C_5  and  O_23
REMARK    3  A    between atoms: N_7  and  C_13
REMARK    4  A    between atoms: O_23  and  C_24
REMARK    5  A    between atoms: C_24  and  C_29
REMARK                            x       y       z     vdW  Elec       q    Type
REMARK                         _______ _______ _______ _____ _____    ______ ____
ROOT
ATOM      1  N   UNL     1      33.097 -21.868 -19.879  0.00  0.00    -0.226 NA
ATOM      2  C   UNL     1      35.074 -20.630 -20.525  0.00  0.00    +0.025 C 
ATOM      3  C   UNL     1      35.823 -21.327 -19.580  0.00  0.00    +0.041 C 
ATOM      4  C   UNL     1      33.726 -20.937 -20.632  0.00  0.00    +0.101 C 
ATOM      5  C   UNL     1      35.212 -22.291 -18.787  0.00  0.00    +0.170 C 
ATOM      6  C   UNL     1      33.858 -22.522 -18.973  0.00  0.00    +0.160 C 
ATOM      7  N   UNL     1      33.234 -23.506 -18.167  0.00  0.00    -0.340 N 
ATOM      8  H   UNL     1      32.274 -23.694 -18.274  0.00  0.00    +0.144 HD
ATOM      9  H   UNL     1      33.761 -24.001 -17.498  0.00  0.00    +0.144 HD
ENDROOT
BRANCH   2  13
ATOM     10  N   UNL     1      35.904 -17.966 -22.743  0.00  0.00    -0.212 N 
ATOM     11  N   UNL     1      37.170 -18.305 -22.459  0.00  0.00    -0.176 NA
ATOM     12  C   UNL     1      34.969 -18.727 -22.109  0.00  0.00    +0.086 C 
ATOM     13  C   UNL     1      35.674 -19.633 -21.356  0.00  0.00    +0.039 C 
ATOM     14  C   UNL     1      37.025 -19.326 -21.610  0.00  0.00    +0.119 C 
BRANCH  10  16
ATOM     15  N   UNL     1      33.893 -14.982 -25.071  0.00  0.00    +0.384 N 
ATOM     16  C   UNL     1      35.639 -16.857 -23.664  0.00  0.00    +0.092 C 
ATOM     17  C   UNL     1      35.011 -15.641 -22.964  0.00  0.00    -0.002 C 
ATOM     18  C   UNL     1      34.790 -17.279 -24.874  0.00  0.00    -0.002 C 
ATOM     19  C   UNL     1      34.732 -14.520 -23.965  0.00  0.00    -0.080 C 
ATOM     20  C   UNL     1      34.521 -16.088 -25.794  0.00  0.00    -0.080 C 
ATOM     21  H   UNL     1      33.740 -14.208 -25.717  0.00  0.00    -0.085 HD
ATOM     22  H   UNL     1      33.009 -15.313 -24.685  0.00  0.00    -0.085 HD
ENDBRANCH  10  16
ENDBRANCH   2  13
BRANCH   5  23
ATOM     23  O   UNL     1      35.942 -22.972 -17.865  0.00  0.00    -0.472 OA
BRANCH  23  24
ATOM     24  C   UNL     1      36.203 -22.315 -16.624  0.00  0.00    +0.190 C 
ATOM     25  C   UNL     1      37.463 -21.467 -16.755  0.00  0.00    +0.052 C 
BRANCH  24  29
ATOM     26 CL   UNL     1      38.956 -23.552 -16.214  0.00  0.00    -0.080 Cl
ATOM     27 CL   UNL     1      33.667 -22.952 -15.049  0.00  0.00    -0.082 Cl
ATOM     28  F   UNL     1      38.838 -25.505 -14.026  0.00  0.00    -0.203 F 
ATOM     29  C   UNL     1      36.325 -23.349 -15.529  0.00  0.00    +0.041 C 
ATOM     30  C   UNL     1      37.553 -23.952 -15.290  0.00  0.00    +0.085 C 
ATOM     31  C   UNL     1      35.207 -23.683 -14.775  0.00  0.00    +0.058 C 
ATOM     32  C   UNL     1      37.665 -24.906 -14.279  0.00  0.00    +0.150 C 
ATOM     33  C   UNL     1      35.320 -24.637 -13.765  0.00  0.00    +0.014 C 
ATOM     34  C   UNL     1      36.548 -25.249 -13.517  0.00  0.00    +0.031 C 
ENDBRANCH  24  29
ENDBRANCH  23  24
ENDBRANCH   5  23
TORSDOF 5
ENDMDL
MODEL 2
REMARK VINA RESULT:     -11.0      8.068     11.977
REMARK  Name = 11626560
REMARK  5 active torsions:
REMARK  status: ('A' for Active; 'I' for Inactive)
REMARK    1  A    between atoms: C_2  and  C_10
REMARK    2  A    between atoms: C_5  and  O_23
REMARK    3  A    between atoms: N_7  and  C_13
REMARK    4  A    between atoms: O_23  and  C_24
REMARK    5  A    between atoms: C_24  and  C_29
REMARK                            x       y       z     vdW  Elec       q    Type
REMARK                         _______ _______ _______ _____ _____    ______ ____
ROOT
ATOM      1  N   UNL     1      31.954 -11.904 -19.901  0.00  0.00    -0.226 NA
ATOM      2  C   UNL     1      32.141 -10.053 -21.450  0.00  0.00    +0.025 C 
ATOM      3  C   UNL     1      32.402 -10.944 -22.488  0.00  0.00    +0.041 C 
ATOM      4  C   UNL     1      31.927 -10.582 -20.186  0.00  0.00    +0.101 C 
ATOM      5  C   UNL     1      32.439 -12.310 -22.235  0.00  0.00    +0.170 C 
ATOM      6  C   UNL     1      32.210 -12.736 -20.936  0.00  0.00    +0.160 C 
ATOM      7  N   UNL     1      32.244 -14.128 -20.677  0.00  0.00    -0.340 N 
ATOM      8  H   UNL     1      32.087 -14.464 -19.765  0.00  0.00    +0.144 HD
ATOM      9  H   UNL     1      32.428 -14.761 -21.409  0.00  0.00    +0.144 HD
ENDROOT
BRANCH   2  13
ATOM     10  N   UNL     1      31.954  -6.720 -22.699  0.00  0.00    -0.212 N 
ATOM     11  N   UNL     1      32.101  -6.374 -21.411  0.00  0.00    -0.176 NA
ATOM     12  C   UNL     1      31.944  -8.064 -22.916  0.00  0.00    +0.086 C 
ATOM     13  C   UNL     1      32.098  -8.642 -21.679  0.00  0.00    +0.039 C 
ATOM     14  C   UNL     1      32.189  -7.553 -20.791  0.00  0.00    +0.119 C 
BRANCH  10  16
ATOM     15  N   UNL     1      32.446  -3.080 -24.907  0.00  0.00    +0.384 N 
ATOM     16  C   UNL     1      31.820  -5.676 -23.720  0.00  0.00    +0.092 C 
ATOM     17  C   UNL     1      33.130  -5.419 -24.481  0.00  0.00    -0.002 C 
ATOM     18  C   UNL     1      31.259  -4.361 -23.155  0.00  0.00    -0.002 C 
ATOM     19  C   UNL     1      32.950  -4.310 -25.518  0.00  0.00    -0.080 C 
ATOM     20  C   UNL     1      31.158  -3.297 -24.248  0.00  0.00    -0.080 C 
ATOM     21  H   UNL     1      32.331  -2.372 -25.632  0.00  0.00    -0.085 HD
ATOM     22  H   UNL     1      33.117  -2.773 -24.203  0.00  0.00    -0.085 HD
ENDBRANCH  10  16
ENDBRANCH   2  13
BRANCH   5  23
ATOM     23  O   UNL     1      32.692 -13.180 -23.248  0.00  0.00    -0.472 OA
BRANCH  23  24
ATOM     24  C   UNL     1      34.033 -13.240 -23.736  0.00  0.00    +0.190 C 
ATOM     25  C   UNL     1      34.170 -12.329 -24.951  0.00  0.00    +0.052 C 
BRANCH  24  29
ATOM     26 CL   UNL     1      35.215 -14.903 -21.474  0.00  0.00    -0.080 Cl
ATOM     27 CL   UNL     1      33.482 -14.176 -26.589  0.00  0.00    -0.082 Cl
ATOM     28  F   UNL     1      35.770 -17.619 -22.440  0.00  0.00    -0.203 F 
ATOM     29  C   UNL     1      34.381 -14.674 -24.060  0.00  0.00    +0.041 C 
ATOM     30  C   UNL     1      34.924 -15.487 -23.073  0.00  0.00    +0.085 C 
ATOM     31  C   UNL     1      34.154 -15.162 -25.341  0.00  0.00    +0.058 C 
ATOM     32  C   UNL     1      35.245 -16.811 -23.373  0.00  0.00    +0.150 C 
ATOM     33  C   UNL     1      34.476 -16.485 -25.640  0.00  0.00    +0.014 C 
ATOM     34  C   UNL     1      35.021 -17.310 -24.656  0.00  0.00    +0.031 C 
ENDBRANCH  24  29
ENDBRANCH  23  24
ENDBRANCH   5  23
TORSDOF 5
ENDMDL
MODEL 3
REMARK VINA RESULT:     -10.9      5.772     11.007
REMARK  Name = 11626560
REMARK  5 active torsions:
REMARK  status: ('A' for Active; 'I' for Inactive)
REMARK    1  A    between atoms: C_2  and  C_10
REMARK    2  A    between atoms: C_5  and  O_23
REMARK    3  A    between atoms: N_7  and  C_13
REMARK    4  A    between atoms: O_23  and  C_24
REMARK    5  A    between atoms: C_24  and  C_29
REMARK                            x       y       z     vdW  Elec       q    Type
REMARK                         _______ _______ _______ _____ _____    ______ ____
ROOT
ATOM      1  N   UNL     1      34.715 -16.827 -26.130  0.00  0.00    -0.226 NA
ATOM      2  C   UNL     1      35.260 -17.347 -23.830  0.00  0.00    +0.025 C 
ATOM      3  C   UNL     1      34.625 -16.180 -23.412  0.00  0.00    +0.041 C 
ATOM      4  C   UNL     1      35.276 -17.620 -25.189  0.00  0.00    +0.101 C 
ATOM      5  C   UNL     1      34.037 -15.339 -24.348  0.00  0.00    +0.170 C 
ATOM      6  C   UNL     1      34.108 -15.703 -25.683  0.00  0.00    +0.160 C 
ATOM      7  N   UNL     1      33.506 -14.848 -26.640  0.00  0.00    -0.340 N 
ATOM      8  H   UNL     1      33.540 -15.078 -27.596  0.00  0.00    +0.144 HD
ATOM      9  H   UNL     1      33.056 -14.023 -26.347  0.00  0.00    +0.144 HD
ENDROOT
BRANCH   2  13
ATOM     10  N   UNL     1      36.151 -19.845 -21.448  0.00  0.00    -0.212 N 
ATOM     11  N   UNL     1      37.369 -19.289 -21.524  0.00  0.00    -0.176 NA
ATOM     12  C   UNL     1      35.219 -19.252 -22.245  0.00  0.00    +0.086 C 
ATOM     13  C   UNL     1      35.875 -18.232 -22.889  0.00  0.00    +0.039 C 
ATOM     14  C   UNL     1      37.196 -18.302 -22.406  0.00  0.00    +0.119 C 
BRANCH  10  16
ATOM     15  N   UNL     1      35.097 -22.234 -18.050  0.00  0.00    +0.384 N 
ATOM     16  C   UNL     1      35.930 -20.990 -20.560  0.00  0.00    +0.092 C 
ATOM     17  C   UNL     1      34.450 -21.179 -20.192  0.00  0.00    -0.002 C 
ATOM     18  C   UNL     1      36.797 -20.935 -19.292  0.00  0.00    -0.002 C 
ATOM     19  C   UNL     1      34.269 -22.368 -19.249  0.00  0.00    -0.080 C 
ATOM     20  C   UNL     1      36.518 -22.135 -18.387  0.00  0.00    -0.080 C 
ATOM     21  H   UNL     1      34.954 -23.050 -17.455  0.00  0.00    -0.085 HD
ATOM     22  H   UNL     1      34.823 -21.379 -17.565  0.00  0.00    -0.085 HD
ENDBRANCH  10  16
ENDBRANCH   2  13
BRANCH   5  23
ATOM     23  O   UNL     1      33.416 -14.201 -23.941  0.00  0.00    -0.472 OA
BRANCH  23  24
ATOM     24  C   UNL     1      34.232 -13.188 -23.352  0.00  0.00    +0.190 C 
ATOM     25  C   UNL     1      34.845 -13.718 -22.061  0.00  0.00    +0.052 C 
BRANCH  24  29
ATOM     26 CL   UNL     1      32.092 -13.371 -21.191  0.00  0.00    -0.080 Cl
ATOM     27 CL   UNL     1      34.859 -10.759 -25.091  0.00  0.00    -0.082 Cl
ATOM     28  F   UNL     1      30.669 -10.811 -20.999  0.00  0.00    -0.203 F 
ATOM     29  C   UNL     1      33.397 -11.950 -23.118  0.00  0.00    +0.041 C 
ATOM     30  C   UNL     1      32.404 -11.967 -22.147  0.00  0.00    +0.085 C 
ATOM     31  C   UNL     1      33.634 -10.810 -23.876  0.00  0.00    +0.058 C 
ATOM     32  C   UNL     1      31.634 -10.824 -21.930  0.00  0.00    +0.150 C 
ATOM     33  C   UNL     1      32.863  -9.668 -23.660  0.00  0.00    +0.014 C 
ATOM     34  C   UNL     1      31.864  -9.675 -22.688  0.00  0.00    +0.031 C 
ENDBRANCH  24  29
ENDBRANCH  23  24
ENDBRANCH   5  23
TORSDOF 5
ENDMDL
MODEL 4
REMARK VINA RESULT:     -10.8      8.919     13.667
REMARK  Name = 11626560
REMARK  5 active torsions:
REMARK  status: ('A' for Active; 'I' for Inactive)
REMARK    1  A    between atoms: C_2  and  C_10
REMARK    2  A    between atoms: C_5  and  O_23
REMARK    3  A    between atoms: N_7  and  C_13
REMARK    4  A    between atoms: O_23  and  C_24
REMARK    5  A    between atoms: C_24  and  C_29
REMARK                            x       y       z     vdW  Elec       q    Type
REMARK                         _______ _______ _______ _____ _____    ______ ____
ROOT
ATOM      1  N   UNL     1      31.732 -12.031 -20.234  0.00  0.00    -0.226 NA
ATOM      2  C   UNL     1      32.806 -12.385 -22.373  0.00  0.00    +0.025 C 
ATOM      3  C   UNL     1      32.707 -11.024 -22.652  0.00  0.00    +0.041 C 
ATOM      4  C   UNL     1      32.306 -12.831 -21.159  0.00  0.00    +0.101 C 
ATOM      5  C   UNL     1      32.123 -10.168 -21.726  0.00  0.00    +0.170 C 
ATOM      6  C   UNL     1      31.655 -10.716 -20.542  0.00  0.00    +0.160 C 
ATOM      7  N   UNL     1      31.061  -9.845 -19.595  0.00  0.00    -0.340 N 
ATOM      8  H   UNL     1      30.718 -10.202 -18.744  0.00  0.00    +0.144 HD
ATOM      9  H   UNL     1      30.990  -8.882 -19.789  0.00  0.00    +0.144 HD
ENDROOT
BRANCH   2  13
ATOM     10  N   UNL     1      34.401 -15.044 -24.131  0.00  0.00    -0.212 N 
ATOM     11  N   UNL     1      34.188 -14.276 -25.211  0.00  0.00    -0.176 NA
ATOM     12  C   UNL     1      33.949 -14.503 -22.966  0.00  0.00    +0.086 C 
ATOM     13  C   UNL     1      33.402 -13.290 -23.307  0.00  0.00    +0.039 C 
ATOM     14  C   UNL     1      33.577 -13.203 -24.702  0.00  0.00    +0.119 C 
BRANCH  10  16
ATOM     15  N   UNL     1      35.315 -19.222 -23.858  0.00  0.00    +0.384 N 
ATOM     16  C   UNL     1      35.067 -16.341 -24.284  0.00  0.00    +0.092 C 
ATOM     17  C   UNL     1      34.213 -17.359 -25.056  0.00  0.00    -0.002 C 
ATOM     18  C   UNL     1      35.529 -16.933 -22.943  0.00  0.00    -0.002 C 
ATOM     19  C   UNL     1      34.935 -18.701 -25.171  0.00  0.00    -0.080 C 
ATOM     20  C   UNL     1      36.196 -18.294 -23.148  0.00  0.00    -0.080 C 
ATOM     21  H   UNL     1      35.801 -20.110 -23.981  0.00  0.00    -0.085 HD
ATOM     22  H   UNL     1      34.468 -19.345 -23.304  0.00  0.00    -0.085 HD
ENDBRANCH  10  16
ENDBRANCH   2  13
BRANCH   5  23
ATOM     23  O   UNL     1      32.027  -8.840 -21.996  0.00  0.00    -0.472 OA
BRANCH  23  24
ATOM     24  C   UNL     1      33.211  -8.057 -21.845  0.00  0.00    +0.190 C 
ATOM     25  C   UNL     1      33.238  -7.443 -20.450  0.00  0.00    +0.052 C 
BRANCH  24  29
ATOM     26 CL   UNL     1      35.296  -8.435 -24.035  0.00  0.00    -0.080 Cl
ATOM     27 CL   UNL     1      31.202  -5.770 -21.618  0.00  0.00    -0.082 Cl
ATOM     28  F   UNL     1      35.104  -6.229 -25.962  0.00  0.00    -0.203 F 
ATOM     29  C   UNL     1      33.254  -7.005 -22.929  0.00  0.00    +0.041 C 
ATOM     30  C   UNL     1      34.181  -7.117 -23.957  0.00  0.00    +0.085 C 
ATOM     31  C   UNL     1      32.365  -5.938 -22.883  0.00  0.00    +0.058 C 
ATOM     32  C   UNL     1      34.220  -6.146 -24.958  0.00  0.00    +0.150 C 
ATOM     33  C   UNL     1      32.405  -4.967 -23.883  0.00  0.00    +0.014 C 
ATOM     34  C   UNL     1      33.332  -5.071 -24.920  0.00  0.00    +0.031 C 
ENDBRANCH  24  29
ENDBRANCH  23  24
ENDBRANCH   5  23
TORSDOF 5
ENDMDL
MODEL 5
REMARK VINA RESULT:     -10.7      9.067     13.860
REMARK  Name = 11626560
REMARK  5 active torsions:
REMARK  status: ('A' for Active; 'I' for Inactive)
REMARK    1  A    between atoms: C_2  and  C_10
REMARK    2  A    between atoms: C_5  and  O_23
REMARK    3  A    between atoms: N_7  and  C_13
REMARK    4  A    between atoms: O_23  and  C_24
REMARK    5  A    between atoms: C_24  and  C_29
REMARK                            x       y       z     vdW  Elec       q    Type
REMARK                         _______ _______ _______ _____ _____    ______ ____
ROOT
ATOM      1  N   UNL     1      31.717 -12.029 -20.215  0.00  0.00    -0.226 NA
ATOM      2  C   UNL     1      32.801 -12.381 -22.350  0.00  0.00    +0.025 C 
ATOM      3  C   UNL     1      32.699 -11.021 -22.629  0.00  0.00    +0.041 C 
ATOM      4  C   UNL     1      32.298 -12.829 -21.138  0.00  0.00    +0.101 C 
ATOM      5  C   UNL     1      32.109 -10.166 -21.706  0.00  0.00    +0.170 C 
ATOM      6  C   UNL     1      31.638 -10.715 -20.523  0.00  0.00    +0.160 C 
ATOM      7  N   UNL     1      31.038  -9.846 -19.579  0.00  0.00    -0.340 N 
ATOM      8  H   UNL     1      30.692 -10.203 -18.730  0.00  0.00    +0.144 HD
ATOM      9  H   UNL     1      30.965  -8.883 -19.773  0.00  0.00    +0.144 HD
ENDROOT
BRANCH   2  13
ATOM     10  N   UNL     1      34.407 -15.037 -24.102  0.00  0.00    -0.212 N 
ATOM     11  N   UNL     1      34.203 -14.267 -25.181  0.00  0.00    -0.176 NA
ATOM     12  C   UNL     1      33.947 -14.498 -22.939  0.00  0.00    +0.086 C 
ATOM     13  C   UNL     1      33.403 -13.284 -23.281  0.00  0.00    +0.039 C 
ATOM     14  C   UNL     1      33.589 -13.195 -24.674  0.00  0.00    +0.119 C 
BRANCH  10  16
ATOM     15  N   UNL     1      35.313 -19.217 -23.835  0.00  0.00    +0.384 N 
ATOM     16  C   UNL     1      35.073 -16.335 -24.252  0.00  0.00    +0.092 C 
ATOM     17  C   UNL     1      34.226 -17.349 -25.037  0.00  0.00    -0.002 C 
ATOM     18  C   UNL     1      35.520 -16.933 -22.909  0.00  0.00    -0.002 C 
ATOM     19  C   UNL     1      34.948 -18.691 -25.150  0.00  0.00    -0.080 C 
ATOM     20  C   UNL     1      36.187 -18.293 -23.112  0.00  0.00    -0.080 C 
ATOM     21  H   UNL     1      35.800 -20.106 -23.956  0.00  0.00    -0.085 HD
ATOM     22  H   UNL     1      34.460 -19.342 -23.291  0.00  0.00    -0.085 HD
ENDBRANCH  10  16
ENDBRANCH   2  13
BRANCH   5  23
ATOM     23  O   UNL     1      32.010  -8.839 -21.977  0.00  0.00    -0.472 OA
BRANCH  23  24
ATOM     24  C   UNL     1      33.196  -8.055 -21.841  0.00  0.00    +0.190 C 
ATOM     25  C   UNL     1      33.232  -7.427 -20.452  0.00  0.00    +0.052 C 
BRANCH  24  29
ATOM     26 CL   UNL     1      31.215  -5.752 -21.605  0.00  0.00    -0.080 Cl
ATOM     27 CL   UNL     1      35.248  -8.472 -24.062  0.00  0.00    -0.082 Cl
ATOM     28  F   UNL     1      31.557  -3.927 -23.879  0.00  0.00    -0.203 F 
ATOM     29  C   UNL     1      33.234  -7.014 -22.935  0.00  0.00    +0.041 C 
ATOM     30  C   UNL     1      32.356  -5.938 -22.888  0.00  0.00    +0.085 C 
ATOM     31  C   UNL     1      34.145  -7.146 -23.975  0.00  0.00    +0.058 C 
ATOM     32  C   UNL     1      32.392  -4.977 -23.899  0.00  0.00    +0.150 C 
ATOM     33  C   UNL     1      34.180  -6.185 -24.985  0.00  0.00    +0.014 C 
ATOM     34  C   UNL     1      33.303  -5.101 -24.947  0.00  0.00    +0.031 C 
ENDBRANCH  24  29
ENDBRANCH  23  24
ENDBRANCH   5  23
TORSDOF 5
ENDMDL
MODEL 6
REMARK VINA RESULT:     -10.6      4.872     10.353
REMARK  Name = 11626560
REMARK  5 active torsions:
REMARK  status: ('A' for Active; 'I' for Inactive)
REMARK    1  A    between atoms: C_2  and  C_10
REMARK    2  A    between atoms: C_5  and  O_23
REMARK    3  A    between atoms: N_7  and  C_13
REMARK    4  A    between atoms: O_23  and  C_24
REMARK    5  A    between atoms: C_24  and  C_29
REMARK                            x       y       z     vdW  Elec       q    Type
REMARK                         _______ _______ _______ _____ _____    ______ ____
ROOT
ATOM      1  N   UNL     1      37.654 -19.916 -20.996  0.00  0.00    -0.226 NA
ATOM      2  C   UNL     1      35.393 -20.562 -20.426  0.00  0.00    +0.025 C 
ATOM      3  C   UNL     1      34.896 -19.673 -21.376  0.00  0.00    +0.041 C 
ATOM      4  C   UNL     1      36.769 -20.643 -20.278  0.00  0.00    +0.101 C 
ATOM      5  C   UNL     1      35.774 -18.908 -22.134  0.00  0.00    +0.170 C 
ATOM      6  C   UNL     1      37.132 -19.065 -21.908  0.00  0.00    +0.160 C 
ATOM      7  N   UNL     1      38.029 -18.287 -22.682  0.00  0.00    -0.340 N 
ATOM      8  H   UNL     1      39.000 -18.374 -22.546  0.00  0.00    +0.144 HD
ATOM      9  H   UNL     1      37.681 -17.659 -23.355  0.00  0.00    +0.144 HD
ENDROOT
BRANCH   2  13
ATOM     10  N   UNL     1      33.791 -22.736 -18.099  0.00  0.00    -0.212 N 
ATOM     11  N   UNL     1      32.673 -22.392 -18.755  0.00  0.00    -0.176 NA
ATOM     12  C   UNL     1      34.921 -22.148 -18.581  0.00  0.00    +0.086 C 
ATOM     13  C   UNL     1      34.514 -21.362 -19.631  0.00  0.00    +0.039 C 
ATOM     14  C   UNL     1      33.119 -21.552 -19.692  0.00  0.00    +0.119 C 
BRANCH  10  16
ATOM     15  N   UNL     1      33.646 -24.334 -14.126  0.00  0.00    +0.384 N 
ATOM     16  C   UNL     1      33.712 -23.668 -16.970  0.00  0.00    +0.092 C 
ATOM     17  C   UNL     1      32.459 -23.451 -16.108  0.00  0.00    -0.002 C 
ATOM     18  C   UNL     1      34.976 -23.651 -16.096  0.00  0.00    -0.002 C 
ATOM     19  C   UNL     1      32.429 -24.427 -14.933  0.00  0.00    -0.080 C 
ATOM     20  C   UNL     1      34.841 -24.619 -14.921  0.00  0.00    -0.080 C 
ATOM     21  H   UNL     1      33.590 -25.007 -13.361  0.00  0.00    -0.085 HD
ATOM     22  H   UNL     1      33.721 -23.382 -13.767  0.00  0.00    -0.085 HD
ENDBRANCH  10  16
ENDBRANCH   2  13
BRANCH   5  23
ATOM     23  O   UNL     1      35.290 -18.042 -23.063  0.00  0.00    -0.472 OA
BRANCH  23  24
ATOM     24  C   UNL     1      35.495 -16.649 -22.824  0.00  0.00    +0.190 C 
ATOM     25  C   UNL     1      34.979 -16.291 -21.435  0.00  0.00    +0.052 C 
BRANCH  24  29
ATOM     26 CL   UNL     1      34.988 -13.702 -22.240  0.00  0.00    -0.080 Cl
ATOM     27 CL   UNL     1      34.756 -18.153 -25.375  0.00  0.00    -0.082 Cl
ATOM     28  F   UNL     1      33.648 -12.463 -24.540  0.00  0.00    -0.203 F 
ATOM     29  C   UNL     1      34.808 -15.852 -23.908  0.00  0.00    +0.041 C 
ATOM     30  C   UNL     1      34.546 -14.502 -23.706  0.00  0.00    +0.085 C 
ATOM     31  C   UNL     1      34.446 -16.478 -25.094  0.00  0.00    +0.058 C 
ATOM     32  C   UNL     1      33.913 -13.767 -24.707  0.00  0.00    +0.150 C 
ATOM     33  C   UNL     1      33.812 -15.742 -26.095  0.00  0.00    +0.014 C 
ATOM     34  C   UNL     1      33.545 -14.387 -25.901  0.00  0.00    +0.031 C 
ENDBRANCH  24  29
ENDBRANCH  23  24
ENDBRANCH   5  23
TORSDOF 5
ENDMDL
MODEL 7
REMARK VINA RESULT:     -10.5      3.696      5.660
REMARK  Name = 11626560
REMARK  5 active torsions:
REMARK  status: ('A' for Active; 'I' for Inactive)
REMARK    1  A    between atoms: C_2  and  C_10
REMARK    2  A    between atoms: C_5  and  O_23
REMARK    3  A    between atoms: N_7  and  C_13
REMARK    4  A    between atoms: O_23  and  C_24
REMARK    5  A    between atoms: C_24  and  C_29
REMARK                            x       y       z     vdW  Elec       q    Type
REMARK                         _______ _______ _______ _____ _____    ______ ____
ROOT
ATOM      1  N   UNL     1      37.382 -24.260 -14.850  0.00  0.00    -0.226 NA
ATOM      2  C   UNL     1      36.574 -22.751 -16.561  0.00  0.00    +0.025 C 
ATOM      3  C   UNL     1      35.265 -23.144 -16.294  0.00  0.00    +0.041 C 
ATOM      4  C   UNL     1      37.586 -23.336 -15.816  0.00  0.00    +0.101 C 
ATOM      5  C   UNL     1      35.014 -24.092 -15.309  0.00  0.00    +0.170 C 
ATOM      6  C   UNL     1      36.098 -24.615 -14.621  0.00  0.00    +0.160 C 
ATOM      7  N   UNL     1      35.845 -25.579 -13.614  0.00  0.00    -0.340 N 
ATOM      8  H   UNL     1      36.592 -25.971 -13.107  0.00  0.00    +0.144 HD
ATOM      9  H   UNL     1      34.920 -25.859 -13.422  0.00  0.00    +0.144 HD
ENDROOT
BRANCH   2  13
ATOM     10  N   UNL     1      36.836 -20.698 -19.463  0.00  0.00    -0.212 N 
ATOM     11  N   UNL     1      37.703 -19.994 -18.720  0.00  0.00    -0.176 NA
ATOM     12  C   UNL     1      36.302 -21.775 -18.823  0.00  0.00    +0.086 C 
ATOM     13  C   UNL     1      36.863 -21.779 -17.569  0.00  0.00    +0.039 C 
ATOM     14  C   UNL     1      37.718 -20.659 -17.562  0.00  0.00    +0.119 C 
BRANCH  10  16
ATOM     15  N   UNL     1      35.514 -18.403 -22.832  0.00  0.00    +0.384 N 
ATOM     16  C   UNL     1      36.544 -20.272 -20.835  0.00  0.00    +0.092 C 
ATOM     17  C   UNL     1      37.308 -19.001 -21.237  0.00  0.00    -0.002 C 
ATOM     18  C   UNL     1      35.039 -20.100 -21.096  0.00  0.00    -0.002 C 
ATOM     19  C   UNL     1      36.956 -18.581 -22.664  0.00  0.00    -0.080 C 
ATOM     20  C   UNL     1      34.782 -19.634 -22.529  0.00  0.00    -0.080 C 
ATOM     21  H   UNL     1      35.323 -18.134 -23.797  0.00  0.00    -0.085 HD
ATOM     22  H   UNL     1      35.203 -17.679 -22.185  0.00  0.00    -0.085 HD
ENDBRANCH  10  16
ENDBRANCH   2  13
BRANCH   5  23
ATOM     23  O   UNL     1      33.737 -24.476 -15.047  0.00  0.00    -0.472 OA
BRANCH  23  24
ATOM     24  C   UNL     1      32.782 -23.442 -14.806  0.00  0.00    +0.190 C 
ATOM     25  C   UNL     1      32.714 -23.153 -13.311  0.00  0.00    +0.052 C 
BRANCH  24  29
ATOM     26 CL   UNL     1      31.089 -25.277 -13.060  0.00  0.00    -0.080 Cl
ATOM     27 CL   UNL     1      32.047 -22.368 -17.567  0.00  0.00    -0.082 Cl
ATOM     28  F   UNL     1      28.571 -25.893 -14.437  0.00  0.00    -0.203 F 
ATOM     29  C   UNL     1      31.442 -23.862 -15.364  0.00  0.00    +0.041 C 
ATOM     30  C   UNL     1      30.621 -24.699 -14.619  0.00  0.00    +0.085 C 
ATOM     31  C   UNL     1      31.048 -23.407 -16.616  0.00  0.00    +0.058 C 
ATOM     32  C   UNL     1      29.384 -25.086 -15.134  0.00  0.00    +0.150 C 
ATOM     33  C   UNL     1      29.812 -23.795 -17.131  0.00  0.00    +0.014 C 
ATOM     34  C   UNL     1      28.980 -24.635 -16.391  0.00  0.00    +0.031 C 
ENDBRANCH  24  29
ENDBRANCH  23  24
ENDBRANCH   5  23
TORSDOF 5
ENDMDL
MODEL 8
REMARK VINA RESULT:     -10.2      8.392     12.341
REMARK  Name = 11626560
REMARK  5 active torsions:
REMARK  status: ('A' for Active; 'I' for Inactive)
REMARK    1  A    between atoms: C_2  and  C_10
REMARK    2  A    between atoms: C_5  and  O_23
REMARK    3  A    between atoms: N_7  and  C_13
REMARK    4  A    between atoms: O_23  and  C_24
REMARK    5  A    between atoms: C_24  and  C_29
REMARK                            x       y       z     vdW  Elec       q    Type
REMARK                         _______ _______ _______ _____ _____    ______ ____
ROOT
ATOM      1  N   UNL     1      31.743 -10.825 -20.138  0.00  0.00    -0.226 NA
ATOM      2  C   UNL     1      32.133  -9.332 -22.002  0.00  0.00    +0.025 C 
ATOM      3  C   UNL     1      32.451 -10.420 -22.811  0.00  0.00    +0.041 C 
ATOM      4  C   UNL     1      31.789  -9.588 -20.684  0.00  0.00    +0.101 C 
ATOM      5  C   UNL     1      32.415 -11.706 -22.287  0.00  0.00    +0.170 C 
ATOM      6  C   UNL     1      32.058 -11.854 -20.956  0.00  0.00    +0.160 C 
ATOM      7  N   UNL     1      32.019 -13.165 -20.420  0.00  0.00    -0.340 N 
ATOM      8  H   UNL     1      31.769 -13.305 -19.478  0.00  0.00    +0.144 HD
ATOM      9  H   UNL     1      32.242 -13.937 -20.990  0.00  0.00    +0.144 HD
ENDROOT
BRANCH   2  13
ATOM     10  N   UNL     1      32.443  -6.310 -23.867  0.00  0.00    -0.212 N 
ATOM     11  N   UNL     1      31.986  -5.731 -22.746  0.00  0.00    -0.176 NA
ATOM     12  C   UNL     1      32.566  -7.663 -23.784  0.00  0.00    +0.086 C 
ATOM     13  C   UNL     1      32.162  -7.996 -22.514  0.00  0.00    +0.039 C 
ATOM     14  C   UNL     1      31.816  -6.767 -21.920  0.00  0.00    +0.119 C 
BRANCH  10  16
ATOM     15  N   UNL     1      34.231  -3.384 -26.438  0.00  0.00    +0.384 N 
ATOM     16  C   UNL     1      32.756  -5.481 -25.035  0.00  0.00    +0.092 C 
ATOM     17  C   UNL     1      34.190  -5.690 -25.544  0.00  0.00    -0.002 C 
ATOM     18  C   UNL     1      32.483  -3.987 -24.795  0.00  0.00    -0.002 C 
ATOM     19  C   UNL     1      34.479  -4.792 -26.747  0.00  0.00    -0.080 C 
ATOM     20  C   UNL     1      32.844  -3.161 -26.029  0.00  0.00    -0.080 C 
ATOM     21  H   UNL     1      34.426  -2.823 -27.267  0.00  0.00    -0.085 HD
ATOM     22  H   UNL     1      34.839  -3.113 -25.665  0.00  0.00    -0.085 HD
ENDBRANCH  10  16
ENDBRANCH   2  13
BRANCH   5  23
ATOM     23  O   UNL     1      32.724 -12.768 -23.076  0.00  0.00    -0.472 OA
BRANCH  23  24
ATOM     24  C   UNL     1      34.075 -12.876 -23.525  0.00  0.00    +0.190 C 
ATOM     25  C   UNL     1      34.247 -12.077 -24.812  0.00  0.00    +0.052 C 
BRANCH  24  29
ATOM     26 CL   UNL     1      33.622 -14.045 -26.302  0.00  0.00    -0.080 Cl
ATOM     27 CL   UNL     1      35.159 -14.352 -21.083  0.00  0.00    -0.082 Cl
ATOM     28  F   UNL     1      34.395 -16.877 -26.312  0.00  0.00    -0.203 F 
ATOM     29  C   UNL     1      34.423 -14.335 -23.711  0.00  0.00    +0.041 C 
ATOM     30  C   UNL     1      34.239 -14.930 -24.953  0.00  0.00    +0.085 C 
ATOM     31  C   UNL     1      34.921 -15.063 -22.638  0.00  0.00    +0.058 C 
ATOM     32  C   UNL     1      34.561 -16.276 -25.125  0.00  0.00    +0.150 C 
ATOM     33  C   UNL     1      35.242 -16.409 -22.810  0.00  0.00    +0.014 C 
ATOM     34  C   UNL     1      35.061 -17.016 -24.053  0.00  0.00    +0.031 C 
ENDBRANCH  24  29
ENDBRANCH  23  24
ENDBRANCH   5  23
TORSDOF 5
ENDMDL
MODEL 9
REMARK VINA RESULT:     -10.0      3.594      4.830
REMARK  Name = 11626560
REMARK  5 active torsions:
REMARK  status: ('A' for Active; 'I' for Inactive)
REMARK    1  A    between atoms: C_2  and  C_10
REMARK    2  A    between atoms: C_5  and  O_23
REMARK    3  A    between atoms: N_7  and  C_13
REMARK    4  A    between atoms: O_23  and  C_24
REMARK    5  A    between atoms: C_24  and  C_29
REMARK                            x       y       z     vdW  Elec       q    Type
REMARK                         _______ _______ _______ _____ _____    ______ ____
ROOT
ATOM      1  N   UNL     1      36.959 -22.726 -17.040  0.00  0.00    -0.226 NA
ATOM      2  C   UNL     1      35.183 -22.042 -18.535  0.00  0.00    +0.025 C 
ATOM      3  C   UNL     1      34.264 -22.768 -17.782  0.00  0.00    +0.041 C 
ATOM      4  C   UNL     1      36.507 -22.055 -18.124  0.00  0.00    +0.101 C 
ATOM      5  C   UNL     1      34.690 -23.471 -16.661  0.00  0.00    +0.170 C 
ATOM      6  C   UNL     1      36.036 -23.418 -16.335  0.00  0.00    +0.160 C 
ATOM      7  N   UNL     1      36.472 -24.132 -15.191  0.00  0.00    -0.340 N 
ATOM      8  H   UNL     1      37.421 -24.116 -14.932  0.00  0.00    +0.144 HD
ATOM      9  H   UNL     1      35.824 -24.646 -14.656  0.00  0.00    +0.144 HD
ENDROOT
BRANCH   2  13
ATOM     10  N   UNL     1      34.853 -20.063 -21.481  0.00  0.00    -0.212 N 
ATOM     11  N   UNL     1      33.549 -20.357 -21.370  0.00  0.00    -0.176 NA
ATOM     12  C   UNL     1      35.632 -20.607 -20.506  0.00  0.00    +0.086 C 
ATOM     13  C   UNL     1      34.775 -21.309 -19.694  0.00  0.00    +0.039 C 
ATOM     14  C   UNL     1      33.506 -21.120 -20.274  0.00  0.00    +0.119 C 
BRANCH  10  16
ATOM     15  N   UNL     1      35.011 -17.070 -24.545  0.00  0.00    +0.384 N 
ATOM     16  C   UNL     1      35.314 -19.222 -22.591  0.00  0.00    +0.092 C 
ATOM     17  C   UNL     1      35.434 -17.740 -22.201  0.00  0.00    -0.002 C 
ATOM     18  C   UNL     1      34.451 -19.378 -23.853  0.00  0.00    -0.002 C 
ATOM     19  C   UNL     1      35.895 -16.899 -23.392  0.00  0.00    -0.080 C 
ATOM     20  C   UNL     1      34.953 -18.468 -24.974  0.00  0.00    -0.080 C 
ATOM     21  H   UNL     1      35.359 -16.501 -25.317  0.00  0.00    -0.085 HD
ATOM     22  H   UNL     1      34.071 -16.780 -24.275  0.00  0.00    -0.085 HD
ENDBRANCH  10  16
ENDBRANCH   2  13
BRANCH   5  23
ATOM     23  O   UNL     1      33.794 -24.179 -15.925  0.00  0.00    -0.472 OA
BRANCH  23  24
ATOM     24  C   UNL     1      32.863 -23.435 -15.138  0.00  0.00    +0.190 C 
ATOM     25  C   UNL     1      33.250 -23.533 -13.667  0.00  0.00    +0.052 C 
BRANCH  24  29
ATOM     26 CL   UNL     1      31.355 -22.208 -17.485  0.00  0.00    -0.080 Cl
ATOM     27 CL   UNL     1      31.841 -25.606 -13.252  0.00  0.00    -0.082 Cl
ATOM     28  F   UNL     1      28.698 -23.438 -17.694  0.00  0.00    -0.203 F 
ATOM     29  C   UNL     1      31.468 -23.955 -15.394  0.00  0.00    +0.041 C 
ATOM     30  C   UNL     1      30.725 -23.437 -16.448  0.00  0.00    +0.085 C 
ATOM     31  C   UNL     1      30.944 -24.944 -14.571  0.00  0.00    +0.058 C 
ATOM     32  C   UNL     1      29.437 -23.918 -16.684  0.00  0.00    +0.150 C 
ATOM     33  C   UNL     1      29.656 -25.424 -14.807  0.00  0.00    +0.014 C 
ATOM     34  C   UNL     1      28.903 -24.911 -15.862  0.00  0.00    +0.031 C 
ENDBRANCH  24  29
ENDBRANCH  23  24
ENDBRANCH   5  23
TORSDOF 5
ENDMDL
