MODEL 1
REMARK VINA RESULT:     -11.7      0.000      0.000
REMARK  Name = 91617630
REMARK  6 active torsions:
REMARK  status: ('A' for Active; 'I' for Inactive)
REMARK    1  A    between atoms: N_4  and  C_10
REMARK    2  A    between atoms: N_5  and  C_16
REMARK    3  A    between atoms: C_7  and  C_24
REMARK    4  A    between atoms: N_23  and  C_26
REMARK    5  A    between atoms: C_26  and  C_28
REMARK    6  A    between atoms: C_28  and  O_29
REMARK                            x       y       z     vdW  Elec       q    Type
REMARK                         _______ _______ _______ _____ _____    ______ ____
ROOT
ATOM      1  O   UNL     1      36.266 -23.294 -16.685  0.00  0.00    -0.252 OA
ATOM      2  O   UNL     1      31.840 -22.971 -18.063  0.00  0.00    -0.273 OA
ATOM      3  O   UNL     1      32.809 -24.821 -13.977  0.00  0.00    -0.273 OA
ATOM      4  N   UNL     1      34.067 -23.020 -17.379  0.00  0.00    -0.215 N 
ATOM      5  N   UNL     1      34.571 -23.991 -15.258  0.00  0.00    -0.215 N 
ATOM      6  C   UNL     1      35.058 -23.409 -16.450  0.00  0.00    +0.319 C 
ATOM      7  C   UNL     1      32.282 -23.285 -15.734  0.00  0.00    +0.229 C 
ATOM      8  C   UNL     1      32.684 -23.097 -17.176  0.00  0.00    +0.250 C 
ATOM      9  C   UNL     1      33.223 -24.128 -14.908  0.00  0.00    +0.250 C 
ENDROOT
BRANCH   4  10
ATOM     10  C   UNL     1      34.533 -22.594 -18.677  0.00  0.00    +0.084 C 
ATOM     11  C   UNL     1      35.930 -21.979 -18.570  0.00  0.00    +0.020 C 
ATOM     12  C   UNL     1      33.541 -21.618 -19.314  0.00  0.00    +0.020 C 
ATOM     13  C   UNL     1      34.041 -21.113 -20.666  0.00  0.00    +0.002 C 
ATOM     14  C   UNL     1      36.427 -21.472 -19.921  0.00  0.00    +0.002 C 
ATOM     15  C   UNL     1      35.435 -20.502 -20.558  0.00  0.00    +0.000 C 
ENDBRANCH   4  10
BRANCH   5  16
ATOM     16  C   UNL     1      35.558 -24.565 -14.374  0.00  0.00    +0.084 C 
ATOM     17  C   UNL     1      36.368 -25.646 -15.096  0.00  0.00    +0.020 C 
ATOM     18  C   UNL     1      36.467 -23.474 -13.806  0.00  0.00    +0.020 C 
ATOM     19  C   UNL     1      37.555 -24.059 -12.909  0.00  0.00    +0.002 C 
ATOM     20  C   UNL     1      37.454 -26.229 -14.196  0.00  0.00    +0.002 C 
ATOM     21  C   UNL     1      38.358 -25.139 -13.628  0.00  0.00    +0.000 C 
ENDBRANCH   5  16
BRANCH   7  24
ATOM     22  O   UNL     1      30.578 -24.928 -15.403  0.00  0.00    -0.274 OA
ATOM     23  N   UNL     1      29.953 -22.717 -15.777  0.00  0.00    -0.294 N 
ATOM     24  C   UNL     1      30.859 -23.750 -15.610  0.00  0.00    +0.240 C 
ATOM     25  H   UNL     1      30.301 -21.810 -15.938  0.00  0.00    +0.150 HD
BRANCH  23  26
ATOM     26  C   UNL     1      28.521 -22.904 -15.727  0.00  0.00    +0.200 C 
BRANCH  26  28
ATOM     27  O   UNL     1      27.373 -21.655 -17.435  0.00  0.00    -0.248 OA
ATOM     28  C   UNL     1      27.858 -22.719 -17.068  0.00  0.00    +0.334 C 
BRANCH  28  29
ATOM     29  O   UNL     1      27.848 -23.839 -17.827  0.00  0.00    -0.479 OA
ATOM     30  H   UNL     1      28.637 -24.331 -17.945  0.00  0.00    +0.295 HD
ENDBRANCH  28  29
ENDBRANCH  26  28
ENDBRANCH  23  26
ENDBRANCH   7  24
TORSDOF 6
ENDMDL
MODEL 2
REMARK VINA RESULT:     -11.5      0.606      1.124
REMARK  Name = 91617630
REMARK  6 active torsions:
REMARK  status: ('A' for Active; 'I' for Inactive)
REMARK    1  A    between atoms: N_4  and  C_10
REMARK    2  A    between atoms: N_5  and  C_16
REMARK    3  A    between atoms: C_7  and  C_24
REMARK    4  A    between atoms: N_23  and  C_26
REMARK    5  A    between atoms: C_26  and  C_28
REMARK    6  A    between atoms: C_28  and  O_29
REMARK                            x       y       z     vdW  Elec       q    Type
REMARK                         _______ _______ _______ _____ _____    ______ ____
ROOT
ATOM      1  O   UNL     1      36.551 -22.851 -17.241  0.00  0.00    -0.252 OA
ATOM      2  O   UNL     1      32.000 -22.931 -18.174  0.00  0.00    -0.273 OA
ATOM      3  O   UNL     1      33.535 -24.721 -14.238  0.00  0.00    -0.273 OA
ATOM      4  N   UNL     1      34.278 -22.777 -17.711  0.00  0.00    -0.215 N 
ATOM      5  N   UNL     1      35.077 -23.718 -15.668  0.00  0.00    -0.215 N 
ATOM      6  C   UNL     1      35.388 -23.081 -16.891  0.00  0.00    +0.319 C 
ATOM      7  C   UNL     1      32.697 -23.225 -15.905  0.00  0.00    +0.229 C 
ATOM      8  C   UNL     1      32.936 -22.986 -17.375  0.00  0.00    +0.250 C 
ATOM      9  C   UNL     1      33.789 -23.984 -15.191  0.00  0.00    +0.250 C 
ENDROOT
BRANCH   4  10
ATOM     10  C   UNL     1      34.572 -22.298 -19.040  0.00  0.00    +0.084 C 
ATOM     11  C   UNL     1      35.947 -21.627 -19.076  0.00  0.00    +0.020 C 
ATOM     12  C   UNL     1      33.476 -21.347 -19.527  0.00  0.00    +0.020 C 
ATOM     13  C   UNL     1      33.794 -20.785 -20.911  0.00  0.00    +0.002 C 
ATOM     14  C   UNL     1      36.262 -21.062 -20.460  0.00  0.00    +0.002 C 
ATOM     15  C   UNL     1      35.165 -20.119 -20.945  0.00  0.00    +0.000 C 
ENDBRANCH   4  10
BRANCH   5  16
ATOM     16  C   UNL     1      36.196 -24.205 -14.896  0.00  0.00    +0.084 C 
ATOM     17  C   UNL     1      36.081 -23.759 -13.435  0.00  0.00    +0.020 C 
ATOM     18  C   UNL     1      36.300 -25.727 -15.007  0.00  0.00    +0.020 C 
ATOM     19  C   UNL     1      37.443 -26.276 -14.156  0.00  0.00    +0.002 C 
ATOM     20  C   UNL     1      37.225 -24.310 -12.588  0.00  0.00    +0.002 C 
ATOM     21  C   UNL     1      37.330 -25.827 -12.702  0.00  0.00    +0.000 C 
ENDBRANCH   5  16
BRANCH   7  24
ATOM     22  O   UNL     1      31.208 -24.981 -15.264  0.00  0.00    -0.274 OA
ATOM     23  N   UNL     1      30.318 -22.934 -15.925  0.00  0.00    -0.294 N 
ATOM     24  C   UNL     1      31.343 -23.823 -15.652  0.00  0.00    +0.240 C 
ATOM     25  H   UNL     1      30.552 -22.028 -16.231  0.00  0.00    +0.150 HD
BRANCH  23  26
ATOM     26  C   UNL     1      28.919 -23.271 -15.784  0.00  0.00    +0.200 C 
BRANCH  26  28
ATOM     27  O   UNL     1      27.719 -21.848 -17.310  0.00  0.00    -0.248 OA
ATOM     28  C   UNL     1      28.116 -22.971 -17.023  0.00  0.00    +0.334 C 
BRANCH  28  29
ATOM     29  O   UNL     1      27.874 -24.061 -17.789  0.00  0.00    -0.479 OA
ATOM     30  H   UNL     1      26.993 -24.293 -18.008  0.00  0.00    +0.295 HD
ENDBRANCH  28  29
ENDBRANCH  26  28
ENDBRANCH  23  26
ENDBRANCH   7  24
TORSDOF 6
ENDMDL
MODEL 3
REMARK VINA RESULT:     -11.4      1.694      6.910
REMARK  Name = 91617630
REMARK  6 active torsions:
REMARK  status: ('A' for Active; 'I' for Inactive)
REMARK    1  A    between atoms: N_4  and  C_10
REMARK    2  A    between atoms: N_5  and  C_16
REMARK    3  A    between atoms: C_7  and  C_24
REMARK    4  A    between atoms: N_23  and  C_26
REMARK    5  A    between atoms: C_26  and  C_28
REMARK    6  A    between atoms: C_28  and  O_29
REMARK                            x       y       z     vdW  Elec       q    Type
REMARK                         _______ _______ _______ _____ _____    ______ ____
ROOT
ATOM      1  O   UNL     1      31.898 -22.579 -17.664  0.00  0.00    -0.252 OA
ATOM      2  O   UNL     1      33.157 -24.478 -13.614  0.00  0.00    -0.273 OA
ATOM      3  O   UNL     1      36.369 -23.434 -16.720  0.00  0.00    -0.273 OA
ATOM      4  N   UNL     1      32.482 -23.438 -15.587  0.00  0.00    -0.215 N 
ATOM      5  N   UNL     1      34.152 -22.905 -17.206  0.00  0.00    -0.215 N 
ATOM      6  C   UNL     1      32.779 -22.929 -16.872  0.00  0.00    +0.319 C 
ATOM      7  C   UNL     1      34.822 -23.339 -14.898  0.00  0.00    +0.229 C 
ATOM      8  C   UNL     1      33.422 -23.833 -14.629  0.00  0.00    +0.250 C 
ATOM      9  C   UNL     1      35.206 -23.257 -16.355  0.00  0.00    +0.250 C 
ENDROOT
BRANCH   4  10
ATOM     10  C   UNL     1      31.086 -23.649 -15.286  0.00  0.00    +0.084 C 
ATOM     11  C   UNL     1      30.546 -24.851 -16.064  0.00  0.00    +0.020 C 
ATOM     12  C   UNL     1      30.273 -22.386 -15.575  0.00  0.00    +0.020 C 
ATOM     13  C   UNL     1      28.784 -22.604 -15.314  0.00  0.00    +0.002 C 
ATOM     14  C   UNL     1      29.056 -25.065 -15.805  0.00  0.00    +0.002 C 
ATOM     15  C   UNL     1      28.247 -23.803 -16.090  0.00  0.00    +0.000 C 
ENDBRANCH   4  10
BRANCH   5  16
ATOM     16  C   UNL     1      34.473 -22.566 -18.572  0.00  0.00    +0.084 C 
ATOM     17  C   UNL     1      33.411 -21.635 -19.164  0.00  0.00    +0.020 C 
ATOM     18  C   UNL     1      35.868 -21.944 -18.656  0.00  0.00    +0.020 C 
ATOM     19  C   UNL     1      36.213 -21.526 -20.084  0.00  0.00    +0.002 C 
ATOM     20  C   UNL     1      33.759 -21.220 -20.591  0.00  0.00    +0.002 C 
ATOM     21  C   UNL     1      35.152 -20.602 -20.673  0.00  0.00    +0.000 C 
ENDBRANCH   5  16
BRANCH   7  24
ATOM     22  O   UNL     1      36.415 -23.582 -13.133  0.00  0.00    -0.274 OA
ATOM     23  N   UNL     1      36.050 -25.372 -14.575  0.00  0.00    -0.294 N 
ATOM     24  C   UNL     1      35.842 -24.092 -14.093  0.00  0.00    +0.240 C 
ATOM     25  H   UNL     1      35.528 -25.670 -15.355  0.00  0.00    +0.150 HD
BRANCH  23  26
ATOM     26  C   UNL     1      36.998 -26.294 -13.992  0.00  0.00    +0.200 C 
BRANCH  26  28
ATOM     27  O   UNL     1      39.162 -27.016 -14.760  0.00  0.00    -0.248 OA
ATOM     28  C   UNL     1      37.972 -26.849 -14.998  0.00  0.00    +0.334 C 
BRANCH  28  29
ATOM     29  O   UNL     1      37.407 -27.147 -16.192  0.00  0.00    -0.479 OA
ATOM     30  H   UNL     1      36.474 -27.195 -16.270  0.00  0.00    +0.295 HD
ENDBRANCH  28  29
ENDBRANCH  26  28
ENDBRANCH  23  26
ENDBRANCH   7  24
TORSDOF 6
ENDMDL
MODEL 4
REMARK VINA RESULT:     -11.3      1.810      6.776
REMARK  Name = 91617630
REMARK  6 active torsions:
REMARK  status: ('A' for Active; 'I' for Inactive)
REMARK    1  A    between atoms: N_4  and  C_10
REMARK    2  A    between atoms: N_5  and  C_16
REMARK    3  A    between atoms: C_7  and  C_24
REMARK    4  A    between atoms: N_23  and  C_26
REMARK    5  A    between atoms: C_26  and  C_28
REMARK    6  A    between atoms: C_28  and  O_29
REMARK                            x       y       z     vdW  Elec       q    Type
REMARK                         _______ _______ _______ _____ _____    ______ ____
ROOT
ATOM      1  O   UNL     1      33.060 -24.265 -13.279  0.00  0.00    -0.252 OA
ATOM      2  O   UNL     1      36.528 -23.884 -16.349  0.00  0.00    -0.273 OA
ATOM      3  O   UNL     1      32.218 -23.055 -17.688  0.00  0.00    -0.273 OA
ATOM      4  N   UNL     1      34.838 -23.993 -14.747  0.00  0.00    -0.215 N 
ATOM      5  N   UNL     1      32.596 -23.572 -15.447  0.00  0.00    -0.215 N 
ATOM      6  C   UNL     1      33.469 -23.948 -14.401  0.00  0.00    +0.319 C 
ATOM      7  C   UNL     1      34.446 -22.819 -16.852  0.00  0.00    +0.229 C 
ATOM      8  C   UNL     1      35.378 -23.630 -15.986  0.00  0.00    +0.250 C 
ATOM      9  C   UNL     1      32.985 -23.174 -16.731  0.00  0.00    +0.250 C 
ENDROOT
BRANCH   4  10
ATOM     10  C   UNL     1      35.734 -24.549 -13.761  0.00  0.00    +0.084 C 
ATOM     11  C   UNL     1      36.674 -23.469 -13.222  0.00  0.00    +0.020 C 
ATOM     12  C   UNL     1      36.515 -25.729 -14.344  0.00  0.00    +0.020 C 
ATOM     13  C   UNL     1      37.509 -26.299 -13.333  0.00  0.00    +0.002 C 
ATOM     14  C   UNL     1      37.669 -24.041 -12.215  0.00  0.00    +0.002 C 
ATOM     15  C   UNL     1      38.444 -25.220 -12.796  0.00  0.00    +0.000 C 
ENDBRANCH   4  10
BRANCH   5  16
ATOM     16  C   UNL     1      31.183 -23.695 -15.179  0.00  0.00    +0.084 C 
ATOM     17  C   UNL     1      30.423 -22.473 -15.704  0.00  0.00    +0.020 C 
ATOM     18  C   UNL     1      30.635 -24.991 -15.778  0.00  0.00    +0.020 C 
ATOM     19  C   UNL     1      29.130 -25.122 -15.556  0.00  0.00    +0.002 C 
ATOM     20  C   UNL     1      28.919 -22.608 -15.479  0.00  0.00    +0.002 C 
ATOM     21  C   UNL     1      28.375 -23.902 -16.075  0.00  0.00    +0.000 C 
ENDBRANCH   5  16
BRANCH   7  24
ATOM     22  O   UNL     1      34.435 -23.559 -19.124  0.00  0.00    -0.274 OA
ATOM     23  N   UNL     1      35.882 -21.843 -18.505  0.00  0.00    -0.294 N 
ATOM     24  C   UNL     1      34.899 -22.792 -18.284  0.00  0.00    +0.240 C 
ATOM     25  H   UNL     1      36.174 -21.285 -17.749  0.00  0.00    +0.150 HD
BRANCH  23  26
ATOM     26  C   UNL     1      36.502 -21.632 -19.793  0.00  0.00    +0.200 C 
BRANCH  26  28
ATOM     27  O   UNL     1      34.741 -20.468 -20.949  0.00  0.00    -0.248 OA
ATOM     28  C   UNL     1      35.900 -20.479 -20.553  0.00  0.00    +0.334 C 
BRANCH  28  29
ATOM     29  O   UNL     1      36.763 -19.456 -20.759  0.00  0.00    -0.479 OA
ATOM     30  H   UNL     1      37.613 -19.625 -21.115  0.00  0.00    +0.295 HD
ENDBRANCH  28  29
ENDBRANCH  26  28
ENDBRANCH  23  26
ENDBRANCH   7  24
TORSDOF 6
ENDMDL
MODEL 5
REMARK VINA RESULT:     -11.2      1.780      5.977
REMARK  Name = 91617630
REMARK  6 active torsions:
REMARK  status: ('A' for Active; 'I' for Inactive)
REMARK    1  A    between atoms: N_4  and  C_10
REMARK    2  A    between atoms: N_5  and  C_16
REMARK    3  A    between atoms: C_7  and  C_24
REMARK    4  A    between atoms: N_23  and  C_26
REMARK    5  A    between atoms: C_26  and  C_28
REMARK    6  A    between atoms: C_28  and  O_29
REMARK                            x       y       z     vdW  Elec       q    Type
REMARK                         _______ _______ _______ _____ _____    ______ ____
ROOT
ATOM      1  O   UNL     1      32.023 -23.128 -17.867  0.00  0.00    -0.252 OA
ATOM      2  O   UNL     1      36.475 -23.518 -16.593  0.00  0.00    -0.273 OA
ATOM      3  O   UNL     1      33.162 -24.449 -13.557  0.00  0.00    -0.273 OA
ATOM      4  N   UNL     1      34.261 -23.402 -17.311  0.00  0.00    -0.215 N 
ATOM      5  N   UNL     1      32.539 -23.876 -15.729  0.00  0.00    -0.215 N 
ATOM      6  C   UNL     1      32.876 -23.462 -17.037  0.00  0.00    +0.319 C 
ATOM      7  C   UNL     1      34.817 -24.629 -15.275  0.00  0.00    +0.229 C 
ATOM      8  C   UNL     1      35.283 -23.784 -16.434  0.00  0.00    +0.250 C 
ATOM      9  C   UNL     1      33.443 -24.296 -14.747  0.00  0.00    +0.250 C 
ENDROOT
BRANCH   4  10
ATOM     10  C   UNL     1      34.643 -22.810 -18.570  0.00  0.00    +0.084 C 
ATOM     11  C   UNL     1      35.954 -22.034 -18.422  0.00  0.00    +0.020 C 
ATOM     12  C   UNL     1      33.524 -21.915 -19.109  0.00  0.00    +0.020 C 
ATOM     13  C   UNL     1      33.929 -21.234 -20.415  0.00  0.00    +0.002 C 
ATOM     14  C   UNL     1      36.355 -21.352 -19.728  0.00  0.00    +0.002 C 
ATOM     15  C   UNL     1      35.237 -20.463 -20.265  0.00  0.00    +0.000 C 
ENDBRANCH   4  10
BRANCH   5  16
ATOM     16  C   UNL     1      31.146 -23.771 -15.361  0.00  0.00    +0.084 C 
ATOM     17  C   UNL     1      30.514 -22.524 -15.988  0.00  0.00    +0.020 C 
ATOM     18  C   UNL     1      30.389 -25.039 -15.760  0.00  0.00    +0.020 C 
ATOM     19  C   UNL     1      28.902 -24.933 -15.432  0.00  0.00    +0.002 C 
ATOM     20  C   UNL     1      29.027 -22.422 -15.657  0.00  0.00    +0.002 C 
ATOM     21  C   UNL     1      28.275 -23.689 -16.052  0.00  0.00    +0.000 C 
ENDBRANCH   5  16
BRANCH   7  24
ATOM     22  O   UNL     1      36.627 -25.617 -14.067  0.00  0.00    -0.274 OA
ATOM     23  N   UNL     1      35.762 -23.584 -13.335  0.00  0.00    -0.294 N 
ATOM     24  C   UNL     1      35.841 -24.680 -14.177  0.00  0.00    +0.240 C 
ATOM     25  H   UNL     1      35.087 -22.893 -13.527  0.00  0.00    +0.150 HD
BRANCH  23  26
ATOM     26  C   UNL     1      36.621 -23.405 -12.187  0.00  0.00    +0.200 C 
BRANCH  26  28
ATOM     27  O   UNL     1      36.645 -24.056  -9.870  0.00  0.00    -0.248 OA
ATOM     28  C   UNL     1      36.180 -24.211 -10.993  0.00  0.00    +0.334 C 
BRANCH  28  29
ATOM     29  O   UNL     1      35.222 -25.124 -11.279  0.00  0.00    -0.479 OA
ATOM     30  H   UNL     1      34.578 -24.937 -11.934  0.00  0.00    +0.295 HD
ENDBRANCH  28  29
ENDBRANCH  26  28
ENDBRANCH  23  26
ENDBRANCH   7  24
TORSDOF 6
ENDMDL
MODEL 6
REMARK VINA RESULT:     -11.1      1.785      6.457
REMARK  Name = 91617630
REMARK  6 active torsions:
REMARK  status: ('A' for Active; 'I' for Inactive)
REMARK    1  A    between atoms: N_4  and  C_10
REMARK    2  A    between atoms: N_5  and  C_16
REMARK    3  A    between atoms: C_7  and  C_24
REMARK    4  A    between atoms: N_23  and  C_26
REMARK    5  A    between atoms: C_26  and  C_28
REMARK    6  A    between atoms: C_28  and  O_29
REMARK                            x       y       z     vdW  Elec       q    Type
REMARK                         _______ _______ _______ _____ _____    ______ ____
ROOT
ATOM      1  O   UNL     1      32.046 -23.097 -18.002  0.00  0.00    -0.252 OA
ATOM      2  O   UNL     1      36.610 -22.833 -17.169  0.00  0.00    -0.273 OA
ATOM      3  O   UNL     1      33.755 -24.018 -13.778  0.00  0.00    -0.273 OA
ATOM      4  N   UNL     1      34.343 -23.046 -17.664  0.00  0.00    -0.215 N 
ATOM      5  N   UNL     1      32.858 -23.653 -15.898  0.00  0.00    -0.215 N 
ATOM      6  C   UNL     1      33.011 -23.271 -17.250  0.00  0.00    +0.319 C 
ATOM      7  C   UNL     1      35.250 -24.076 -15.644  0.00  0.00    +0.229 C 
ATOM      8  C   UNL     1      35.485 -23.242 -16.879  0.00  0.00    +0.250 C 
ATOM      9  C   UNL     1      33.899 -23.897 -14.995  0.00  0.00    +0.250 C 
ENDROOT
BRANCH   4  10
ATOM     10  C   UNL     1      34.521 -22.479 -18.980  0.00  0.00    +0.084 C 
ATOM     11  C   UNL     1      35.885 -21.793 -19.087  0.00  0.00    +0.020 C 
ATOM     12  C   UNL     1      33.383 -21.511 -19.310  0.00  0.00    +0.020 C 
ATOM     13  C   UNL     1      33.580 -20.858 -20.677  0.00  0.00    +0.002 C 
ATOM     14  C   UNL     1      36.079 -21.137 -20.452  0.00  0.00    +0.002 C 
ATOM     15  C   UNL     1      34.941 -20.176 -20.782  0.00  0.00    +0.000 C 
ENDBRANCH   4  10
BRANCH   5  16
ATOM     16  C   UNL     1      31.505 -23.709 -15.397  0.00  0.00    +0.084 C 
ATOM     17  C   UNL     1      30.672 -22.552 -15.955  0.00  0.00    +0.020 C 
ATOM     18  C   UNL     1      30.869 -25.061 -15.723  0.00  0.00    +0.020 C 
ATOM     19  C   UNL     1      29.418 -25.130 -15.252  0.00  0.00    +0.002 C 
ATOM     20  C   UNL     1      29.222 -22.623 -15.481  0.00  0.00    +0.002 C 
ATOM     21  C   UNL     1      28.591 -23.974 -15.806  0.00  0.00    +0.000 C 
ENDBRANCH   5  16
BRANCH   7  24
ATOM     22  O   UNL     1      36.408 -23.005 -13.850  0.00  0.00    -0.274 OA
ATOM     23  N   UNL     1      37.318 -24.932 -14.787  0.00  0.00    -0.294 N 
ATOM     24  C   UNL     1      36.370 -23.932 -14.655  0.00  0.00    +0.240 C 
ATOM     25  H   UNL     1      37.176 -25.625 -15.472  0.00  0.00    +0.150 HD
BRANCH  23  26
ATOM     26  C   UNL     1      38.507 -25.008 -13.969  0.00  0.00    +0.200 C 
BRANCH  26  28
ATOM     27  O   UNL     1      40.866 -25.036 -14.447  0.00  0.00    -0.248 OA
ATOM     28  C   UNL     1      39.735 -25.394 -14.753  0.00  0.00    +0.334 C 
BRANCH  28  29
ATOM     29  O   UNL     1      39.469 -26.173 -15.828  0.00  0.00    -0.479 OA
ATOM     30  H   UNL     1      39.863 -25.978 -16.656  0.00  0.00    +0.295 HD
ENDBRANCH  28  29
ENDBRANCH  26  28
ENDBRANCH  23  26
ENDBRANCH   7  24
TORSDOF 6
ENDMDL
MODEL 7
REMARK VINA RESULT:     -10.9      1.876      6.961
REMARK  Name = 91617630
REMARK  6 active torsions:
REMARK  status: ('A' for Active; 'I' for Inactive)
REMARK    1  A    between atoms: N_4  and  C_10
REMARK    2  A    between atoms: N_5  and  C_16
REMARK    3  A    between atoms: C_7  and  C_24
REMARK    4  A    between atoms: N_23  and  C_26
REMARK    5  A    between atoms: C_26  and  C_28
REMARK    6  A    between atoms: C_28  and  O_29
REMARK                            x       y       z     vdW  Elec       q    Type
REMARK                         _______ _______ _______ _____ _____    ______ ____
ROOT
ATOM      1  O   UNL     1      31.959 -22.624 -17.623  0.00  0.00    -0.252 OA
ATOM      2  O   UNL     1      32.976 -24.558 -13.522  0.00  0.00    -0.273 OA
ATOM      3  O   UNL     1      36.356 -23.611 -16.478  0.00  0.00    -0.273 OA
ATOM      4  N   UNL     1      32.422 -23.499 -15.523  0.00  0.00    -0.215 N 
ATOM      5  N   UNL     1      34.180 -23.016 -17.064  0.00  0.00    -0.215 N 
ATOM      6  C   UNL     1      32.793 -23.000 -16.792  0.00  0.00    +0.319 C 
ATOM      7  C   UNL     1      34.731 -23.469 -14.728  0.00  0.00    +0.229 C 
ATOM      8  C   UNL     1      33.306 -23.921 -14.523  0.00  0.00    +0.250 C 
ATOM      9  C   UNL     1      35.183 -23.399 -16.166  0.00  0.00    +0.250 C 
ENDROOT
BRANCH   4  10
ATOM     10  C   UNL     1      31.009 -23.668 -15.285  0.00  0.00    +0.084 C 
ATOM     11  C   UNL     1      30.462 -24.831 -16.116  0.00  0.00    +0.020 C 
ATOM     12  C   UNL     1      30.252 -22.371 -15.576  0.00  0.00    +0.020 C 
ATOM     13  C   UNL     1      28.747 -22.543 -15.383  0.00  0.00    +0.002 C 
ATOM     14  C   UNL     1      28.956 -25.000 -15.925  0.00  0.00    +0.002 C 
ATOM     15  C   UNL     1      28.203 -23.704 -16.211  0.00  0.00    +0.000 C 
ENDBRANCH   4  10
BRANCH   5  16
ATOM     16  C   UNL     1      34.573 -22.688 -18.414  0.00  0.00    +0.084 C 
ATOM     17  C   UNL     1      33.505 -21.827 -19.094  0.00  0.00    +0.020 C 
ATOM     18  C   UNL     1      35.936 -21.994 -18.421  0.00  0.00    +0.020 C 
ATOM     19  C   UNL     1      36.352 -21.586 -19.832  0.00  0.00    +0.002 C 
ATOM     20  C   UNL     1      33.925 -21.422 -20.505  0.00  0.00    +0.002 C 
ATOM     21  C   UNL     1      35.285 -20.732 -20.511  0.00  0.00    +0.000 C 
ENDBRANCH   5  16
BRANCH   7  24
ATOM     22  O   UNL     1      36.131 -25.342 -14.234  0.00  0.00    -0.274 OA
ATOM     23  N   UNL     1      35.976 -23.612 -12.684  0.00  0.00    -0.294 N 
ATOM     24  C   UNL     1      35.690 -24.252 -13.878  0.00  0.00    +0.240 C 
ATOM     25  H   UNL     1      35.560 -22.737 -12.511  0.00  0.00    +0.150 HD
BRANCH  23  26
ATOM     26  C   UNL     1      36.854 -24.166 -11.679  0.00  0.00    +0.200 C 
BRANCH  26  28
ATOM     27  O   UNL     1      39.002 -23.082 -11.732  0.00  0.00    -0.248 OA
ATOM     28  C   UNL     1      38.311 -24.045 -12.041  0.00  0.00    +0.334 C 
BRANCH  28  29
ATOM     29  O   UNL     1      38.785 -25.102 -12.742  0.00  0.00    -0.479 OA
ATOM     30  H   UNL     1      38.195 -25.764 -13.047  0.00  0.00    +0.295 HD
ENDBRANCH  28  29
ENDBRANCH  26  28
ENDBRANCH  23  26
ENDBRANCH   7  24
TORSDOF 6
ENDMDL
MODEL 8
REMARK VINA RESULT:     -10.9      2.110      7.366
REMARK  Name = 91617630
REMARK  6 active torsions:
REMARK  status: ('A' for Active; 'I' for Inactive)
REMARK    1  A    between atoms: N_4  and  C_10
REMARK    2  A    between atoms: N_5  and  C_16
REMARK    3  A    between atoms: C_7  and  C_24
REMARK    4  A    between atoms: N_23  and  C_26
REMARK    5  A    between atoms: C_26  and  C_28
REMARK    6  A    between atoms: C_28  and  O_29
REMARK                            x       y       z     vdW  Elec       q    Type
REMARK                         _______ _______ _______ _____ _____    ______ ____
ROOT
ATOM      1  O   UNL     1      32.748 -22.882 -17.178  0.00  0.00    -0.252 OA
ATOM      2  O   UNL     1      34.665 -24.437 -13.241  0.00  0.00    -0.273 OA
ATOM      3  O   UNL     1      37.367 -23.154 -16.721  0.00  0.00    -0.273 OA
ATOM      4  N   UNL     1      33.656 -23.572 -15.155  0.00  0.00    -0.215 N 
ATOM      5  N   UNL     1      35.062 -22.915 -16.968  0.00  0.00    -0.215 N 
ATOM      6  C   UNL     1      33.747 -23.089 -16.480  0.00  0.00    +0.319 C 
ATOM      7  C   UNL     1      36.028 -23.165 -14.739  0.00  0.00    +0.229 C 
ATOM      8  C   UNL     1      34.737 -23.810 -14.298  0.00  0.00    +0.250 C 
ATOM      9  C   UNL     1      36.237 -23.101 -16.232  0.00  0.00    +0.250 C 
ENDROOT
BRANCH   4  10
ATOM     10  C   UNL     1      32.339 -23.935 -14.691  0.00  0.00    +0.084 C 
ATOM     11  C   UNL     1      31.913 -25.280 -15.285  0.00  0.00    +0.020 C 
ATOM     12  C   UNL     1      31.327 -22.835 -15.020  0.00  0.00    +0.020 C 
ATOM     13  C   UNL     1      29.915 -23.223 -14.586  0.00  0.00    +0.002 C 
ATOM     14  C   UNL     1      30.499 -25.664 -14.853  0.00  0.00    +0.002 C 
ATOM     15  C   UNL     1      29.493 -24.564 -15.178  0.00  0.00    +0.000 C 
ENDBRANCH   4  10
BRANCH   5  16
ATOM     16  C   UNL     1      35.188 -22.601 -18.372  0.00  0.00    +0.084 C 
ATOM     17  C   UNL     1      33.877 -22.029 -18.919  0.00  0.00    +0.020 C 
ATOM     18  C   UNL     1      36.354 -21.639 -18.603  0.00  0.00    +0.020 C 
ATOM     19  C   UNL     1      36.479 -21.247 -20.073  0.00  0.00    +0.002 C 
ATOM     20  C   UNL     1      34.005 -21.638 -20.389  0.00  0.00    +0.002 C 
ATOM     21  C   UNL     1      35.170 -20.681 -20.618  0.00  0.00    +0.000 C 
ENDBRANCH   5  16
BRANCH   7  24
ATOM     22  O   UNL     1      37.827 -23.134 -13.167  0.00  0.00    -0.274 OA
ATOM     23  N   UNL     1      37.516 -25.026 -14.487  0.00  0.00    -0.294 N 
ATOM     24  C   UNL     1      37.214 -23.755 -14.032  0.00  0.00    +0.240 C 
ATOM     25  H   UNL     1      36.948 -25.421 -15.188  0.00  0.00    +0.150 HD
BRANCH  23  26
ATOM     26  C   UNL     1      38.627 -25.803 -13.985  0.00  0.00    +0.200 C 
BRANCH  26  28
ATOM     27  O   UNL     1      40.879 -24.984 -14.209  0.00  0.00    -0.248 OA
ATOM     28  C   UNL     1      39.913 -25.533 -14.723  0.00  0.00    +0.334 C 
BRANCH  28  29
ATOM     29  O   UNL     1      39.898 -25.955 -16.010  0.00  0.00    -0.479 OA
ATOM     30  H   UNL     1      40.653 -25.833 -16.551  0.00  0.00    +0.295 HD
ENDBRANCH  28  29
ENDBRANCH  26  28
ENDBRANCH  23  26
ENDBRANCH   7  24
TORSDOF 6
ENDMDL
MODEL 9
REMARK VINA RESULT:     -10.9      1.910      6.205
REMARK  Name = 91617630
REMARK  6 active torsions:
REMARK  status: ('A' for Active; 'I' for Inactive)
REMARK    1  A    between atoms: N_4  and  C_10
REMARK    2  A    between atoms: N_5  and  C_16
REMARK    3  A    between atoms: C_7  and  C_24
REMARK    4  A    between atoms: N_23  and  C_26
REMARK    5  A    between atoms: C_26  and  C_28
REMARK    6  A    between atoms: C_28  and  O_29
REMARK                            x       y       z     vdW  Elec       q    Type
REMARK                         _______ _______ _______ _____ _____    ______ ____
ROOT
ATOM      1  O   UNL     1      32.218 -23.114 -17.935  0.00  0.00    -0.252 OA
ATOM      2  O   UNL     1      36.797 -22.574 -17.357  0.00  0.00    -0.273 OA
ATOM      3  O   UNL     1      34.202 -23.851 -13.796  0.00  0.00    -0.273 OA
ATOM      4  N   UNL     1      34.523 -22.925 -17.724  0.00  0.00    -0.215 N 
ATOM      5  N   UNL     1      33.172 -23.580 -15.869  0.00  0.00    -0.215 N 
ATOM      6  C   UNL     1      33.231 -23.217 -17.234  0.00  0.00    +0.319 C 
ATOM      7  C   UNL     1      35.595 -23.861 -15.740  0.00  0.00    +0.229 C 
ATOM      8  C   UNL     1      35.715 -23.040 -17.000  0.00  0.00    +0.250 C 
ATOM      9  C   UNL     1      34.273 -23.746 -15.021  0.00  0.00    +0.250 C 
ENDROOT
BRANCH   4  10
ATOM     10  C   UNL     1      34.597 -22.376 -19.057  0.00  0.00    +0.084 C 
ATOM     11  C   UNL     1      35.917 -21.625 -19.254  0.00  0.00    +0.020 C 
ATOM     12  C   UNL     1      33.395 -21.472 -19.337  0.00  0.00    +0.020 C 
ATOM     13  C   UNL     1      33.481 -20.836 -20.723  0.00  0.00    +0.002 C 
ATOM     14  C   UNL     1      35.999 -20.987 -20.639  0.00  0.00    +0.002 C 
ATOM     15  C   UNL     1      34.797 -20.090 -20.918  0.00  0.00    +0.000 C 
ENDBRANCH   4  10
BRANCH   5  16
ATOM     16  C   UNL     1      31.854 -23.704 -15.294  0.00  0.00    +0.084 C 
ATOM     17  C   UNL     1      30.907 -22.651 -15.879  0.00  0.00    +0.020 C 
ATOM     18  C   UNL     1      31.310 -25.118 -15.500  0.00  0.00    +0.020 C 
ATOM     19  C   UNL     1      29.894 -25.263 -14.949  0.00  0.00    +0.002 C 
ATOM     20  C   UNL     1      29.493 -22.799 -15.325  0.00  0.00    +0.002 C 
ATOM     21  C   UNL     1      28.953 -24.211 -15.529  0.00  0.00    +0.000 C 
ENDBRANCH   5  16
BRANCH   7  24
ATOM     22  O   UNL     1      37.275 -22.528 -14.686  0.00  0.00    -0.274 OA
ATOM     23  N   UNL     1      37.154 -24.796 -14.178  0.00  0.00    -0.294 N 
ATOM     24  C   UNL     1      36.757 -23.634 -14.815  0.00  0.00    +0.240 C 
ATOM     25  H   UNL     1      36.658 -25.626 -14.363  0.00  0.00    +0.150 HD
BRANCH  23  26
ATOM     26  C   UNL     1      38.264 -24.852 -13.254  0.00  0.00    +0.200 C 
BRANCH  26  28
ATOM     27  O   UNL     1      37.291 -24.735 -11.056  0.00  0.00    -0.248 OA
ATOM     28  C   UNL     1      37.960 -24.199 -11.931  0.00  0.00    +0.334 C 
BRANCH  28  29
ATOM     29  O   UNL     1      38.496 -22.962 -11.801  0.00  0.00    -0.479 OA
ATOM     30  H   UNL     1      39.327 -22.854 -11.381  0.00  0.00    +0.295 HD
ENDBRANCH  28  29
ENDBRANCH  26  28
ENDBRANCH  23  26
ENDBRANCH   7  24
TORSDOF 6
ENDMDL
