MODEL 1
REMARK VINA RESULT:     -12.1      0.000      0.000
REMARK  Name = 51039095
REMARK  7 active torsions:
REMARK  status: ('A' for Active; 'I' for Inactive)
REMARK    1  A    between atoms: C_5  and  C_16
REMARK    2  A    between atoms: C_6  and  C_27
REMARK    3  A    between atoms: C_11  and  N_17
REMARK    4  A    between atoms: C_27  and  C_28
REMARK    5  A    between atoms: C_28  and  C_29
REMARK    6  A    between atoms: C_32  and  O_35
REMARK    7  A    between atoms: C_33  and  O_37
REMARK                            x       y       z     vdW  Elec       q    Type
REMARK                         _______ _______ _______ _____ _____    ______ ____
ROOT
ATOM      1  O   UNL     1      34.241 -21.481 -20.078  0.00  0.00    -0.270 OA
ATOM      2  N   UNL     1      36.333 -20.438 -20.291  0.00  0.00    -0.265 N 
ATOM      3  N   UNL     1      36.636 -18.467 -23.133  0.00  0.00    -0.239 N 
ATOM      4  N   UNL     1      37.181 -18.960 -22.007  0.00  0.00    -0.166 NA
ATOM      5  C   UNL     1      35.388 -21.257 -19.657  0.00  0.00    +0.251 C 
ATOM      6  C   UNL     1      35.354 -18.880 -23.352  0.00  0.00    +0.046 C 
ATOM      7  C   UNL     1      36.201 -19.712 -21.500  0.00  0.00    +0.153 C 
ATOM      8  C   UNL     1      35.039 -19.700 -22.296  0.00  0.00    +0.048 C 
ATOM      9  H   UNL     1      37.202 -20.357 -19.836  0.00  0.00    +0.157 HD
ATOM     10  H   UNL     1      37.118 -17.863 -23.743  0.00  0.00    +0.174 HD
ENDROOT
BRANCH   5  16
ATOM     11  C   UNL     1      36.667 -23.127 -16.068  0.00  0.00    +0.048 C 
ATOM     12  C   UNL     1      35.356 -23.294 -16.513  0.00  0.00    +0.015 C 
ATOM     13  C   UNL     1      37.560 -22.346 -16.804  0.00  0.00    +0.015 C 
ATOM     14  C   UNL     1      34.935 -22.680 -17.692  0.00  0.00    +0.006 C 
ATOM     15  C   UNL     1      37.138 -21.732 -17.984  0.00  0.00    +0.006 C 
ATOM     16  C   UNL     1      35.827 -21.899 -18.428  0.00  0.00    +0.054 C 
BRANCH  11  17
ATOM     17  N   UNL     1      37.091 -23.743 -14.885  0.00  0.00    -0.312 N 
ATOM     18  N   UNL     1      37.870 -25.198 -12.562  0.00  0.00    +0.389 N 
ATOM     19  C   UNL     1      36.915 -24.090 -12.450  0.00  0.00    -0.042 C 
ATOM     20  C   UNL     1      38.845 -24.934 -13.625  0.00  0.00    -0.042 C 
ATOM     21  C   UNL     1      36.151 -23.894 -13.768  0.00  0.00    +0.069 C 
ATOM     22  C   UNL     1      38.140 -24.767 -14.979  0.00  0.00    +0.069 C 
ATOM     23  C   UNL     1      39.848 -26.085 -13.680  0.00  0.00    -0.022 C 
ATOM     24  C   UNL     1      35.945 -24.380 -11.306  0.00  0.00    -0.022 C 
ATOM     25  H   UNL     1      37.363 -26.057 -12.778  0.00  0.00    -0.084 HD
ATOM     26  H   UNL     1      38.367 -25.294 -11.677  0.00  0.00    -0.084 HD
ENDBRANCH  11  17
ENDBRANCH   5  16
BRANCH   6  27
ATOM     27  C   UNL     1      34.582 -18.451 -24.529  0.00  0.00    +0.047 C 
BRANCH  27  28
ATOM     28  C   UNL     1      35.216 -17.287 -25.331  0.00  0.00    +0.033 C 
BRANCH  28  29
ATOM     29  C   UNL     1      34.773 -15.928 -24.845  0.00  0.00    -0.016 C 
ATOM     30  C   UNL     1      34.905 -15.591 -23.498  0.00  0.00    +0.033 C 
ATOM     31  C   UNL     1      34.235 -15.008 -25.744  0.00  0.00    +0.033 C 
ATOM     32  C   UNL     1      33.826 -13.752 -25.297  0.00  0.00    +0.141 C 
ATOM     33  C   UNL     1      34.497 -14.335 -23.050  0.00  0.00    +0.141 C 
ATOM     34  C   UNL     1      33.957 -13.415 -23.949  0.00  0.00    +0.074 C 
BRANCH  32  35
ATOM     35  O   UNL     1      33.300 -12.853 -26.174  0.00  0.00    -0.471 OA
ATOM     36  C   UNL     1      33.308 -13.215 -27.554  0.00  0.00    +0.252 C 
ENDBRANCH  32  35
BRANCH  33  37
ATOM     37  O   UNL     1      34.626 -14.006 -21.736  0.00  0.00    -0.471 OA
ATOM     38  C   UNL     1      34.546 -15.070 -20.789  0.00  0.00    +0.252 C 
ENDBRANCH  33  37
ENDBRANCH  28  29
ENDBRANCH  27  28
ENDBRANCH   6  27
TORSDOF 7
ENDMDL
MODEL 2
REMARK VINA RESULT:     -12.0      0.048      2.236
REMARK  Name = 51039095
REMARK  7 active torsions:
REMARK  status: ('A' for Active; 'I' for Inactive)
REMARK    1  A    between atoms: C_5  and  C_16
REMARK    2  A    between atoms: C_6  and  C_27
REMARK    3  A    between atoms: C_11  and  N_17
REMARK    4  A    between atoms: C_27  and  C_28
REMARK    5  A    between atoms: C_28  and  C_29
REMARK    6  A    between atoms: C_32  and  O_35
REMARK    7  A    between atoms: C_33  and  O_37
REMARK                            x       y       z     vdW  Elec       q    Type
REMARK                         _______ _______ _______ _____ _____    ______ ____
ROOT
ATOM      1  O   UNL     1      34.263 -21.467 -20.066  0.00  0.00    -0.270 OA
ATOM      2  N   UNL     1      36.356 -20.432 -20.293  0.00  0.00    -0.265 N 
ATOM      3  N   UNL     1      36.652 -18.473 -23.144  0.00  0.00    -0.239 N 
ATOM      4  N   UNL     1      37.201 -18.963 -22.020  0.00  0.00    -0.166 NA
ATOM      5  C   UNL     1      35.412 -21.245 -19.652  0.00  0.00    +0.251 C 
ATOM      6  C   UNL     1      35.367 -18.882 -23.355  0.00  0.00    +0.046 C 
ATOM      7  C   UNL     1      36.221 -19.710 -21.505  0.00  0.00    +0.153 C 
ATOM      8  C   UNL     1      35.055 -19.697 -22.294  0.00  0.00    +0.048 C 
ATOM      9  H   UNL     1      37.228 -20.352 -19.844  0.00  0.00    +0.157 HD
ATOM     10  H   UNL     1      37.133 -17.873 -23.759  0.00  0.00    +0.174 HD
ENDROOT
BRANCH   5  16
ATOM     11  C   UNL     1      36.703 -23.106 -16.062  0.00  0.00    +0.048 C 
ATOM     12  C   UNL     1      35.387 -23.267 -16.497  0.00  0.00    +0.015 C 
ATOM     13  C   UNL     1      37.595 -22.334 -16.807  0.00  0.00    +0.015 C 
ATOM     14  C   UNL     1      34.963 -22.656 -17.677  0.00  0.00    +0.006 C 
ATOM     15  C   UNL     1      37.170 -21.723 -17.987  0.00  0.00    +0.006 C 
ATOM     16  C   UNL     1      35.855 -21.884 -18.422  0.00  0.00    +0.054 C 
BRANCH  11  17
ATOM     17  N   UNL     1      37.130 -23.719 -14.879  0.00  0.00    -0.312 N 
ATOM     18  N   UNL     1      37.913 -25.167 -12.552  0.00  0.00    +0.389 N 
ATOM     19  C   UNL     1      36.980 -24.041 -12.439  0.00  0.00    -0.042 C 
ATOM     20  C   UNL     1      38.879 -24.931 -13.631  0.00  0.00    -0.042 C 
ATOM     21  C   UNL     1      36.203 -23.843 -13.749  0.00  0.00    +0.069 C 
ATOM     22  C   UNL     1      38.159 -24.763 -14.976  0.00  0.00    +0.069 C 
ATOM     23  C   UNL     1      39.859 -26.101 -13.688  0.00  0.00    -0.022 C 
ATOM     24  C   UNL     1      36.019 -24.302 -11.280  0.00  0.00    -0.022 C 
ATOM     25  H   UNL     1      37.387 -26.018 -12.754  0.00  0.00    -0.084 HD
ATOM     26  H   UNL     1      38.419 -25.265 -11.673  0.00  0.00    -0.084 HD
ENDBRANCH  11  17
ENDBRANCH   5  16
BRANCH   6  27
ATOM     27  C   UNL     1      34.591 -18.456 -24.530  0.00  0.00    +0.047 C 
BRANCH  27  28
ATOM     28  C   UNL     1      35.222 -17.292 -25.336  0.00  0.00    +0.033 C 
BRANCH  28  29
ATOM     29  C   UNL     1      34.789 -15.932 -24.842  0.00  0.00    -0.016 C 
ATOM     30  C   UNL     1      34.224 -15.015 -25.728  0.00  0.00    +0.033 C 
ATOM     31  C   UNL     1      34.952 -15.594 -23.499  0.00  0.00    +0.033 C 
ATOM     32  C   UNL     1      34.553 -14.339 -23.042  0.00  0.00    +0.141 C 
ATOM     33  C   UNL     1      33.824 -13.760 -25.271  0.00  0.00    +0.141 C 
ATOM     34  C   UNL     1      33.988 -13.421 -23.928  0.00  0.00    +0.074 C 
BRANCH  32  35
ATOM     35  O   UNL     1      34.712 -14.008 -21.731  0.00  0.00    -0.471 OA
ATOM     36  C   UNL     1      34.440 -15.026 -20.769  0.00  0.00    +0.252 C 
ENDBRANCH  32  35
BRANCH  33  37
ATOM     37  O   UNL     1      33.272 -12.865 -26.135  0.00  0.00    -0.471 OA
ATOM     38  C   UNL     1      33.343 -13.176 -27.526  0.00  0.00    +0.252 C 
ENDBRANCH  33  37
ENDBRANCH  28  29
ENDBRANCH  27  28
ENDBRANCH   6  27
TORSDOF 7
ENDMDL
MODEL 3
REMARK VINA RESULT:     -11.7      5.017     13.503
REMARK  Name = 51039095
REMARK  7 active torsions:
REMARK  status: ('A' for Active; 'I' for Inactive)
REMARK    1  A    between atoms: C_5  and  C_16
REMARK    2  A    between atoms: C_6  and  C_27
REMARK    3  A    between atoms: C_11  and  N_17
REMARK    4  A    between atoms: C_27  and  C_28
REMARK    5  A    between atoms: C_28  and  C_29
REMARK    6  A    between atoms: C_32  and  O_35
REMARK    7  A    between atoms: C_33  and  O_37
REMARK                            x       y       z     vdW  Elec       q    Type
REMARK                         _______ _______ _______ _____ _____    ______ ____
ROOT
ATOM      1  O   UNL     1      34.389 -13.907 -24.690  0.00  0.00    -0.270 OA
ATOM      2  N   UNL     1      34.482 -13.869 -22.346  0.00  0.00    -0.265 N 
ATOM      3  N   UNL     1      35.359 -16.914 -20.926  0.00  0.00    -0.239 N 
ATOM      4  N   UNL     1      35.021 -15.623 -20.769  0.00  0.00    -0.166 NA
ATOM      5  C   UNL     1      34.275 -13.303 -23.611  0.00  0.00    +0.251 C 
ATOM      6  C   UNL     1      35.410 -17.316 -22.230  0.00  0.00    +0.046 C 
ATOM      7  C   UNL     1      34.852 -15.199 -22.024  0.00  0.00    +0.153 C 
ATOM      8  C   UNL     1      35.081 -16.210 -22.976  0.00  0.00    +0.048 C 
ATOM      9  H   UNL     1      34.354 -13.264 -21.580  0.00  0.00    +0.157 HD
ATOM     10  H   UNL     1      35.553 -17.514 -20.171  0.00  0.00    +0.174 HD
ENDROOT
BRANCH   5  16
ATOM     11  C   UNL     1      33.101  -9.224 -23.641  0.00  0.00    +0.048 C 
ATOM     12  C   UNL     1      34.206  -9.637 -24.385  0.00  0.00    +0.015 C 
ATOM     13  C   UNL     1      32.380 -10.151 -22.888  0.00  0.00    +0.015 C 
ATOM     14  C   UNL     1      34.592 -10.977 -24.375  0.00  0.00    +0.006 C 
ATOM     15  C   UNL     1      32.767 -11.492 -22.879  0.00  0.00    +0.006 C 
ATOM     16  C   UNL     1      33.871 -11.905 -23.622  0.00  0.00    +0.054 C 
BRANCH  11  17
ATOM     17  N   UNL     1      32.713  -7.880 -23.650  0.00  0.00    -0.312 N 
ATOM     18  N   UNL     1      32.118  -5.094 -23.553  0.00  0.00    +0.389 N 
ATOM     19  C   UNL     1      31.211  -6.062 -22.929  0.00  0.00    -0.042 C 
ATOM     20  C   UNL     1      32.746  -5.671 -24.747  0.00  0.00    -0.042 C 
ATOM     21  C   UNL     1      31.969  -7.330 -22.511  0.00  0.00    +0.069 C 
ATOM     22  C   UNL     1      33.554  -6.924 -24.383  0.00  0.00    +0.069 C 
ATOM     23  C   UNL     1      33.647  -4.620 -25.394  0.00  0.00    -0.022 C 
ATOM     24  C   UNL     1      30.543  -5.413 -21.717  0.00  0.00    -0.022 C 
ATOM     25  H   UNL     1      32.844  -4.836 -22.884  0.00  0.00    -0.084 HD
ATOM     26  H   UNL     1      31.583  -4.271 -23.828  0.00  0.00    -0.084 HD
ENDBRANCH  11  17
ENDBRANCH   5  16
BRANCH   6  27
ATOM     27  C   UNL     1      35.761 -18.692 -22.613  0.00  0.00    +0.047 C 
BRANCH  27  28
ATOM     28  C   UNL     1      34.619 -19.725 -22.442  0.00  0.00    +0.033 C 
BRANCH  28  29
ATOM     29  C   UNL     1      34.741 -20.533 -21.172  0.00  0.00    -0.016 C 
ATOM     30  C   UNL     1      35.994 -20.739 -20.594  0.00  0.00    +0.033 C 
ATOM     31  C   UNL     1      33.601 -21.072 -20.577  0.00  0.00    +0.033 C 
ATOM     32  C   UNL     1      33.713 -21.818 -19.403  0.00  0.00    +0.141 C 
ATOM     33  C   UNL     1      36.106 -21.484 -19.420  0.00  0.00    +0.141 C 
ATOM     34  C   UNL     1      34.966 -22.025 -18.825  0.00  0.00    +0.074 C 
BRANCH  32  35
ATOM     35  O   UNL     1      32.600 -22.344 -18.821  0.00  0.00    -0.471 OA
ATOM     36  C   UNL     1      32.785 -23.056 -17.599  0.00  0.00    +0.252 C 
ENDBRANCH  32  35
BRANCH  33  37
ATOM     37  O   UNL     1      37.328 -21.685 -18.855  0.00  0.00    -0.471 OA
ATOM     38  C   UNL     1      37.360 -21.928 -17.449  0.00  0.00    +0.252 C 
ENDBRANCH  33  37
ENDBRANCH  28  29
ENDBRANCH  27  28
ENDBRANCH   6  27
TORSDOF 7
ENDMDL
MODEL 4
REMARK VINA RESULT:     -11.7      5.012     13.500
REMARK  Name = 51039095
REMARK  7 active torsions:
REMARK  status: ('A' for Active; 'I' for Inactive)
REMARK    1  A    between atoms: C_5  and  C_16
REMARK    2  A    between atoms: C_6  and  C_27
REMARK    3  A    between atoms: C_11  and  N_17
REMARK    4  A    between atoms: C_27  and  C_28
REMARK    5  A    between atoms: C_28  and  C_29
REMARK    6  A    between atoms: C_32  and  O_35
REMARK    7  A    between atoms: C_33  and  O_37
REMARK                            x       y       z     vdW  Elec       q    Type
REMARK                         _______ _______ _______ _____ _____    ______ ____
ROOT
ATOM      1  O   UNL     1      34.366 -13.914 -24.701  0.00  0.00    -0.270 OA
ATOM      2  N   UNL     1      34.488 -13.879 -22.359  0.00  0.00    -0.265 N 
ATOM      3  N   UNL     1      35.372 -16.929 -20.954  0.00  0.00    -0.239 N 
ATOM      4  N   UNL     1      35.040 -15.637 -20.791  0.00  0.00    -0.166 NA
ATOM      5  C   UNL     1      34.267 -13.311 -23.621  0.00  0.00    +0.251 C 
ATOM      6  C   UNL     1      35.405 -17.329 -22.258  0.00  0.00    +0.046 C 
ATOM      7  C   UNL     1      34.857 -15.210 -22.043  0.00  0.00    +0.153 C 
ATOM      8  C   UNL     1      35.071 -16.222 -22.999  0.00  0.00    +0.048 C 
ATOM      9  H   UNL     1      34.371 -13.275 -21.590  0.00  0.00    +0.157 HD
ATOM     10  H   UNL     1      35.574 -17.530 -20.201  0.00  0.00    +0.174 HD
ENDROOT
BRANCH   5  16
ATOM     11  C   UNL     1      33.098  -9.231 -23.636  0.00  0.00    +0.048 C 
ATOM     12  C   UNL     1      32.380 -10.160 -22.882  0.00  0.00    +0.015 C 
ATOM     13  C   UNL     1      34.201  -9.642 -24.384  0.00  0.00    +0.015 C 
ATOM     14  C   UNL     1      32.764 -11.500 -22.877  0.00  0.00    +0.006 C 
ATOM     15  C   UNL     1      34.585 -10.984 -24.379  0.00  0.00    +0.006 C 
ATOM     16  C   UNL     1      33.868 -11.912 -23.625  0.00  0.00    +0.054 C 
BRANCH  11  17
ATOM     17  N   UNL     1      32.713  -7.886 -23.642  0.00  0.00    -0.312 N 
ATOM     18  N   UNL     1      32.128  -5.098 -23.539  0.00  0.00    +0.389 N 
ATOM     19  C   UNL     1      31.222  -6.063 -22.908  0.00  0.00    -0.042 C 
ATOM     20  C   UNL     1      32.745  -5.676 -24.738  0.00  0.00    -0.042 C 
ATOM     21  C   UNL     1      31.981  -7.334 -22.496  0.00  0.00    +0.069 C 
ATOM     22  C   UNL     1      33.552  -6.932 -24.380  0.00  0.00    +0.069 C 
ATOM     23  C   UNL     1      33.644  -4.628 -25.391  0.00  0.00    -0.022 C 
ATOM     24  C   UNL     1      30.567  -5.412 -21.691  0.00  0.00    -0.022 C 
ATOM     25  H   UNL     1      32.860  -4.842 -22.876  0.00  0.00    -0.084 HD
ATOM     26  H   UNL     1      31.593  -4.273 -23.810  0.00  0.00    -0.084 HD
ENDBRANCH  11  17
ENDBRANCH   5  16
BRANCH   6  27
ATOM     27  C   UNL     1      35.748 -18.706 -22.647  0.00  0.00    +0.047 C 
BRANCH  27  28
ATOM     28  C   UNL     1      34.604 -19.735 -22.462  0.00  0.00    +0.033 C 
BRANCH  28  29
ATOM     29  C   UNL     1      34.729 -20.531 -21.184  0.00  0.00    -0.016 C 
ATOM     30  C   UNL     1      33.593 -21.081 -20.590  0.00  0.00    +0.033 C 
ATOM     31  C   UNL     1      35.981 -20.717 -20.600  0.00  0.00    +0.033 C 
ATOM     32  C   UNL     1      36.099 -21.452 -19.420  0.00  0.00    +0.141 C 
ATOM     33  C   UNL     1      33.710 -21.816 -19.411  0.00  0.00    +0.141 C 
ATOM     34  C   UNL     1      34.962 -22.002 -18.825  0.00  0.00    +0.074 C 
BRANCH  32  35
ATOM     35  O   UNL     1      37.321 -21.635 -18.849  0.00  0.00    -0.471 OA
ATOM     36  C   UNL     1      37.347 -21.898 -17.447  0.00  0.00    +0.252 C 
ENDBRANCH  32  35
BRANCH  33  37
ATOM     37  O   UNL     1      32.602 -22.354 -18.831  0.00  0.00    -0.471 OA
ATOM     38  C   UNL     1      32.788 -23.052 -17.601  0.00  0.00    +0.252 C 
ENDBRANCH  33  37
ENDBRANCH  28  29
ENDBRANCH  27  28
ENDBRANCH   6  27
TORSDOF 7
ENDMDL
MODEL 5
REMARK VINA RESULT:     -11.5      5.091     13.587
REMARK  Name = 51039095
REMARK  7 active torsions:
REMARK  status: ('A' for Active; 'I' for Inactive)
REMARK    1  A    between atoms: C_5  and  C_16
REMARK    2  A    between atoms: C_6  and  C_27
REMARK    3  A    between atoms: C_11  and  N_17
REMARK    4  A    between atoms: C_27  and  C_28
REMARK    5  A    between atoms: C_28  and  C_29
REMARK    6  A    between atoms: C_32  and  O_35
REMARK    7  A    between atoms: C_33  and  O_37
REMARK                            x       y       z     vdW  Elec       q    Type
REMARK                         _______ _______ _______ _____ _____    ______ ____
ROOT
ATOM      1  O   UNL     1      34.390 -13.732 -24.716  0.00  0.00    -0.270 OA
ATOM      2  N   UNL     1      34.496 -13.739 -22.372  0.00  0.00    -0.265 N 
ATOM      3  N   UNL     1      35.318 -16.827 -21.013  0.00  0.00    -0.239 N 
ATOM      4  N   UNL     1      35.007 -15.532 -20.830  0.00  0.00    -0.166 NA
ATOM      5  C   UNL     1      34.294 -13.146 -23.626  0.00  0.00    +0.251 C 
ATOM      6  C   UNL     1      35.354 -17.205 -22.324  0.00  0.00    +0.046 C 
ATOM      7  C   UNL     1      34.841 -15.081 -22.076  0.00  0.00    +0.153 C 
ATOM      8  C   UNL     1      35.044 -16.080 -23.048  0.00  0.00    +0.048 C 
ATOM      9  H   UNL     1      34.384 -13.146 -21.594  0.00  0.00    +0.157 HD
ATOM     10  H   UNL     1      35.504 -17.444 -20.270  0.00  0.00    +0.174 HD
ENDROOT
BRANCH   5  16
ATOM     11  C   UNL     1      33.194  -9.047 -23.580  0.00  0.00    +0.048 C 
ATOM     12  C   UNL     1      32.444  -9.978 -22.862  0.00  0.00    +0.015 C 
ATOM     13  C   UNL     1      34.307  -9.461 -24.312  0.00  0.00    +0.015 C 
ATOM     14  C   UNL     1      32.806 -11.325 -22.877  0.00  0.00    +0.006 C 
ATOM     15  C   UNL     1      34.668 -10.809 -24.327  0.00  0.00    +0.006 C 
ATOM     16  C   UNL     1      33.919 -11.741 -23.609  0.00  0.00    +0.054 C 
BRANCH  11  17
ATOM     17  N   UNL     1      32.833  -7.695 -23.565  0.00  0.00    -0.312 N 
ATOM     18  N   UNL     1      31.898  -5.004 -23.641  0.00  0.00    +0.389 N 
ATOM     19  C   UNL     1      33.144  -5.369 -24.323  0.00  0.00    -0.042 C 
ATOM     20  C   UNL     1      31.716  -5.811 -22.430  0.00  0.00    -0.042 C 
ATOM     21  C   UNL     1      33.130  -6.851 -24.728  0.00  0.00    +0.069 C 
ATOM     22  C   UNL     1      31.655  -7.305 -22.779  0.00  0.00    +0.069 C 
ATOM     23  C   UNL     1      30.434  -5.371 -21.725  0.00  0.00    -0.022 C 
ATOM     24  C   UNL     1      33.321  -4.479 -25.553  0.00  0.00    -0.022 C 
ATOM     25  H   UNL     1      31.112  -5.164 -24.272  0.00  0.00    -0.084 HD
ATOM     26  H   UNL     1      31.944  -4.020 -23.377  0.00  0.00    -0.084 HD
ENDBRANCH  11  17
ENDBRANCH   5  16
BRANCH   6  27
ATOM     27  C   UNL     1      35.676 -18.581 -22.733  0.00  0.00    +0.047 C 
BRANCH  27  28
ATOM     28  C   UNL     1      34.530 -19.604 -22.529  0.00  0.00    +0.033 C 
BRANCH  28  29
ATOM     29  C   UNL     1      34.682 -20.413 -21.263  0.00  0.00    -0.016 C 
ATOM     30  C   UNL     1      35.942 -20.583 -20.690  0.00  0.00    +0.033 C 
ATOM     31  C   UNL     1      33.561 -20.987 -20.665  0.00  0.00    +0.033 C 
ATOM     32  C   UNL     1      33.699 -21.734 -19.495  0.00  0.00    +0.141 C 
ATOM     33  C   UNL     1      36.081 -21.329 -19.520  0.00  0.00    +0.141 C 
ATOM     34  C   UNL     1      34.961 -21.905 -18.923  0.00  0.00    +0.074 C 
BRANCH  32  35
ATOM     35  O   UNL     1      32.606 -22.296 -18.911  0.00  0.00    -0.471 OA
ATOM     36  C   UNL     1      32.820 -23.028 -17.705  0.00  0.00    +0.252 C 
ENDBRANCH  32  35
BRANCH  33  37
ATOM     37  O   UNL     1      37.311 -21.495 -18.961  0.00  0.00    -0.471 OA
ATOM     38  C   UNL     1      37.380 -21.503 -17.535  0.00  0.00    +0.252 C 
ENDBRANCH  33  37
ENDBRANCH  28  29
ENDBRANCH  27  28
ENDBRANCH   6  27
TORSDOF 7
ENDMDL
MODEL 6
REMARK VINA RESULT:     -10.9      1.665      2.700
REMARK  Name = 51039095
REMARK  7 active torsions:
REMARK  status: ('A' for Active; 'I' for Inactive)
REMARK    1  A    between atoms: C_5  and  C_16
REMARK    2  A    between atoms: C_6  and  C_27
REMARK    3  A    between atoms: C_11  and  N_17
REMARK    4  A    between atoms: C_27  and  C_28
REMARK    5  A    between atoms: C_28  and  C_29
REMARK    6  A    between atoms: C_32  and  O_35
REMARK    7  A    between atoms: C_33  and  O_37
REMARK                            x       y       z     vdW  Elec       q    Type
REMARK                         _______ _______ _______ _____ _____    ______ ____
ROOT
ATOM      1  O   UNL     1      36.859 -18.921 -21.074  0.00  0.00    -0.270 OA
ATOM      2  N   UNL     1      35.017 -20.058 -21.979  0.00  0.00    -0.265 N 
ATOM      3  N   UNL     1      33.892 -18.739 -24.987  0.00  0.00    -0.239 N 
ATOM      4  N   UNL     1      33.772 -19.659 -24.014  0.00  0.00    -0.166 NA
ATOM      5  C   UNL     1      36.014 -19.828 -21.020  0.00  0.00    +0.251 C 
ATOM      6  C   UNL     1      34.915 -17.858 -24.790  0.00  0.00    +0.046 C 
ATOM      7  C   UNL     1      34.760 -19.341 -23.174  0.00  0.00    +0.153 C 
ATOM      8  C   UNL     1      35.505 -18.227 -23.606  0.00  0.00    +0.048 C 
ATOM      9  H   UNL     1      34.417 -20.817 -21.799  0.00  0.00    +0.157 HD
ATOM     10  H   UNL     1      33.296 -18.706 -25.770  0.00  0.00    +0.174 HD
ENDROOT
BRANCH   5  16
ATOM     11  C   UNL     1      36.001 -22.440 -17.675  0.00  0.00    +0.048 C 
ATOM     12  C   UNL     1      34.910 -22.416 -18.545  0.00  0.00    +0.015 C 
ATOM     13  C   UNL     1      37.096 -21.607 -17.904  0.00  0.00    +0.015 C 
ATOM     14  C   UNL     1      34.915 -21.557 -19.644  0.00  0.00    +0.006 C 
ATOM     15  C   UNL     1      37.100 -20.749 -19.004  0.00  0.00    +0.006 C 
ATOM     16  C   UNL     1      36.011 -20.724 -19.875  0.00  0.00    +0.054 C 
BRANCH  11  17
ATOM     17  N   UNL     1      35.997 -23.301 -16.572  0.00  0.00    -0.312 N 
ATOM     18  N   UNL     1      35.968 -24.866 -14.190  0.00  0.00    +0.389 N 
ATOM     19  C   UNL     1      37.136 -24.896 -15.075  0.00  0.00    -0.042 C 
ATOM     20  C   UNL     1      34.736 -24.685 -14.966  0.00  0.00    -0.042 C 
ATOM     21  C   UNL     1      37.253 -23.586 -15.869  0.00  0.00    +0.069 C 
ATOM     22  C   UNL     1      34.779 -23.367 -15.753  0.00  0.00    +0.069 C 
ATOM     23  C   UNL     1      33.540 -24.704 -14.016  0.00  0.00    -0.022 C 
ATOM     24  C   UNL     1      38.393 -25.129 -14.238  0.00  0.00    -0.022 C 
ATOM     25  H   UNL     1      36.066 -24.092 -13.532  0.00  0.00    -0.084 HD
ATOM     26  H   UNL     1      35.913 -25.751 -13.687  0.00  0.00    -0.084 HD
ENDBRANCH  11  17
ENDBRANCH   5  16
BRANCH   6  27
ATOM     27  C   UNL     1      35.211 -16.776 -25.742  0.00  0.00    +0.047 C 
BRANCH  27  28
ATOM     28  C   UNL     1      34.068 -15.748 -25.931  0.00  0.00    +0.033 C 
BRANCH  28  29
ATOM     29  C   UNL     1      34.100 -14.637 -24.909  0.00  0.00    -0.016 C 
ATOM     30  C   UNL     1      34.271 -14.936 -23.557  0.00  0.00    +0.033 C 
ATOM     31  C   UNL     1      33.960 -13.311 -25.317  0.00  0.00    +0.033 C 
ATOM     32  C   UNL     1      33.991 -12.283 -24.375  0.00  0.00    +0.141 C 
ATOM     33  C   UNL     1      34.302 -13.909 -22.615  0.00  0.00    +0.141 C 
ATOM     34  C   UNL     1      34.161 -12.583 -23.022  0.00  0.00    +0.074 C 
BRANCH  32  35
ATOM     35  O   UNL     1      33.855 -10.988 -24.772  0.00  0.00    -0.471 OA
ATOM     36  C   UNL     1      33.377 -10.059 -23.800  0.00  0.00    +0.252 C 
ENDBRANCH  32  35
BRANCH  33  37
ATOM     37  O   UNL     1      34.470 -14.200 -21.295  0.00  0.00    -0.471 OA
ATOM     38  C   UNL     1      34.835 -15.540 -20.968  0.00  0.00    +0.252 C 
ENDBRANCH  33  37
ENDBRANCH  28  29
ENDBRANCH  27  28
ENDBRANCH   6  27
TORSDOF 7
ENDMDL
MODEL 7
REMARK VINA RESULT:     -10.8      1.698      3.380
REMARK  Name = 51039095
REMARK  7 active torsions:
REMARK  status: ('A' for Active; 'I' for Inactive)
REMARK    1  A    between atoms: C_5  and  C_16
REMARK    2  A    between atoms: C_6  and  C_27
REMARK    3  A    between atoms: C_11  and  N_17
REMARK    4  A    between atoms: C_27  and  C_28
REMARK    5  A    between atoms: C_28  and  C_29
REMARK    6  A    between atoms: C_32  and  O_35
REMARK    7  A    between atoms: C_33  and  O_37
REMARK                            x       y       z     vdW  Elec       q    Type
REMARK                         _______ _______ _______ _____ _____    ______ ____
ROOT
ATOM      1  O   UNL     1      36.925 -18.900 -21.024  0.00  0.00    -0.270 OA
ATOM      2  N   UNL     1      35.072 -20.018 -21.931  0.00  0.00    -0.265 N 
ATOM      3  N   UNL     1      33.947 -18.669 -24.926  0.00  0.00    -0.239 N 
ATOM      4  N   UNL     1      33.824 -19.595 -23.960  0.00  0.00    -0.166 NA
ATOM      5  C   UNL     1      36.073 -19.802 -20.974  0.00  0.00    +0.251 C 
ATOM      6  C   UNL     1      34.977 -17.796 -24.726  0.00  0.00    +0.046 C 
ATOM      7  C   UNL     1      34.816 -19.290 -23.120  0.00  0.00    +0.153 C 
ATOM      8  C   UNL     1      35.567 -18.179 -23.546  0.00  0.00    +0.048 C 
ATOM      9  H   UNL     1      34.467 -20.774 -21.755  0.00  0.00    +0.157 HD
ATOM     10  H   UNL     1      33.349 -18.625 -25.707  0.00  0.00    +0.174 HD
ENDROOT
BRANCH   5  16
ATOM     11  C   UNL     1      36.058 -22.444 -17.652  0.00  0.00    +0.048 C 
ATOM     12  C   UNL     1      37.144 -21.593 -17.862  0.00  0.00    +0.015 C 
ATOM     13  C   UNL     1      34.977 -22.426 -18.533  0.00  0.00    +0.015 C 
ATOM     14  C   UNL     1      37.148 -20.725 -18.953  0.00  0.00    +0.006 C 
ATOM     15  C   UNL     1      34.982 -21.557 -19.624  0.00  0.00    +0.006 C 
ATOM     16  C   UNL     1      36.067 -20.707 -19.835  0.00  0.00    +0.054 C 
BRANCH  11  17
ATOM     17  N   UNL     1      36.052 -23.315 -16.557  0.00  0.00    -0.312 N 
ATOM     18  N   UNL     1      36.020 -24.902 -14.189  0.00  0.00    +0.389 N 
ATOM     19  C   UNL     1      37.179 -24.944 -15.088  0.00  0.00    -0.042 C 
ATOM     20  C   UNL     1      34.784 -24.692 -14.950  0.00  0.00    -0.042 C 
ATOM     21  C   UNL     1      37.310 -23.629 -15.871  0.00  0.00    +0.069 C 
ATOM     22  C   UNL     1      34.842 -23.368 -15.725  0.00  0.00    +0.069 C 
ATOM     23  C   UNL     1      33.598 -24.699 -13.987  0.00  0.00    -0.022 C 
ATOM     24  C   UNL     1      38.440 -25.207 -14.266  0.00  0.00    -0.022 C 
ATOM     25  H   UNL     1      36.140 -24.136 -13.526  0.00  0.00    -0.084 HD
ATOM     26  H   UNL     1      35.956 -25.791 -13.695  0.00  0.00    -0.084 HD
ENDBRANCH  11  17
ENDBRANCH   5  16
BRANCH   6  27
ATOM     27  C   UNL     1      35.278 -16.709 -25.670  0.00  0.00    +0.047 C 
BRANCH  27  28
ATOM     28  C   UNL     1      34.110 -15.721 -25.915  0.00  0.00    +0.033 C 
BRANCH  28  29
ATOM     29  C   UNL     1      34.052 -14.612 -24.892  0.00  0.00    -0.016 C 
ATOM     30  C   UNL     1      33.971 -13.283 -25.306  0.00  0.00    +0.033 C 
ATOM     31  C   UNL     1      34.077 -14.918 -23.532  0.00  0.00    +0.033 C 
ATOM     32  C   UNL     1      34.023 -13.896 -22.585  0.00  0.00    +0.141 C 
ATOM     33  C   UNL     1      33.916 -12.260 -24.360  0.00  0.00    +0.141 C 
ATOM     34  C   UNL     1      33.943 -12.566 -23.000  0.00  0.00    +0.074 C 
BRANCH  32  35
ATOM     35  O   UNL     1      34.048 -14.193 -21.257  0.00  0.00    -0.471 OA
ATOM     36  C   UNL     1      32.805 -14.139 -20.558  0.00  0.00    +0.252 C 
ENDBRANCH  32  35
BRANCH  33  37
ATOM     37  O   UNL     1      33.836 -10.963 -24.764  0.00  0.00    -0.471 OA
ATOM     38  C   UNL     1      33.379 -10.011 -23.804  0.00  0.00    +0.252 C 
ENDBRANCH  33  37
ENDBRANCH  28  29
ENDBRANCH  27  28
ENDBRANCH   6  27
TORSDOF 7
ENDMDL
MODEL 8
REMARK VINA RESULT:     -10.7      5.085     13.507
REMARK  Name = 51039095
REMARK  7 active torsions:
REMARK  status: ('A' for Active; 'I' for Inactive)
REMARK    1  A    between atoms: C_5  and  C_16
REMARK    2  A    between atoms: C_6  and  C_27
REMARK    3  A    between atoms: C_11  and  N_17
REMARK    4  A    between atoms: C_27  and  C_28
REMARK    5  A    between atoms: C_28  and  C_29
REMARK    6  A    between atoms: C_32  and  O_35
REMARK    7  A    between atoms: C_33  and  O_37
REMARK                            x       y       z     vdW  Elec       q    Type
REMARK                         _______ _______ _______ _____ _____    ______ ____
ROOT
ATOM      1  O   UNL     1      34.492 -13.670 -22.261  0.00  0.00    -0.270 OA
ATOM      2  N   UNL     1      34.084 -13.877 -24.562  0.00  0.00    -0.265 N 
ATOM      3  N   UNL     1      34.683 -17.060 -25.813  0.00  0.00    -0.239 N 
ATOM      4  N   UNL     1      34.301 -15.790 -26.027  0.00  0.00    -0.166 NA
ATOM      5  C   UNL     1      34.143 -13.181 -23.347  0.00  0.00    +0.251 C 
ATOM      6  C   UNL     1      35.015 -17.325 -24.516  0.00  0.00    +0.046 C 
ATOM      7  C   UNL     1      34.396 -15.236 -24.816  0.00  0.00    +0.153 C 
ATOM      8  C   UNL     1      34.837 -16.145 -23.836  0.00  0.00    +0.048 C 
ATOM      9  H   UNL     1      33.788 -13.354 -25.342  0.00  0.00    +0.157 HD
ATOM     10  H   UNL     1      34.720 -17.737 -26.526  0.00  0.00    +0.174 HD
ENDROOT
BRANCH   5  16
ATOM     11  C   UNL     1      33.094  -9.072 -23.520  0.00  0.00    +0.048 C 
ATOM     12  C   UNL     1      32.349  -9.949 -22.732  0.00  0.00    +0.015 C 
ATOM     13  C   UNL     1      34.184  -9.544 -24.251  0.00  0.00    +0.015 C 
ATOM     14  C   UNL     1      32.694 -11.299 -22.675  0.00  0.00    +0.006 C 
ATOM     15  C   UNL     1      34.529 -10.894 -24.193  0.00  0.00    +0.006 C 
ATOM     16  C   UNL     1      33.785 -11.772 -23.406  0.00  0.00    +0.054 C 
BRANCH  11  17
ATOM     17  N   UNL     1      32.749  -7.717 -23.578  0.00  0.00    -0.312 N 
ATOM     18  N   UNL     1      31.846  -5.022 -23.792  0.00  0.00    +0.389 N 
ATOM     19  C   UNL     1      33.070  -5.444 -24.481  0.00  0.00    -0.042 C 
ATOM     20  C   UNL     1      31.684  -5.753 -22.531  0.00  0.00    -0.042 C 
ATOM     21  C   UNL     1      33.027  -6.947 -24.796  0.00  0.00    +0.069 C 
ATOM     22  C   UNL     1      31.596  -7.264 -22.788  0.00  0.00    +0.069 C 
ATOM     23  C   UNL     1      30.426  -5.254 -21.823  0.00  0.00    -0.022 C 
ATOM     24  C   UNL     1      33.226  -4.632 -25.766  0.00  0.00    -0.022 C 
ATOM     25  H   UNL     1      31.042  -5.209 -24.393  0.00  0.00    -0.084 HD
ATOM     26  H   UNL     1      31.910  -4.025 -23.589  0.00  0.00    -0.084 HD
ENDBRANCH  11  17
ENDBRANCH   5  16
BRANCH   6  27
ATOM     27  C   UNL     1      35.459 -18.656 -24.076  0.00  0.00    +0.047 C 
BRANCH  27  28
ATOM     28  C   UNL     1      36.411 -18.652 -22.854  0.00  0.00    +0.033 C 
BRANCH  28  29
ATOM     29  C   UNL     1      35.951 -19.570 -21.746  0.00  0.00    -0.016 C 
ATOM     30  C   UNL     1      34.592 -19.826 -21.571  0.00  0.00    +0.033 C 
ATOM     31  C   UNL     1      36.888 -20.163 -20.901  0.00  0.00    +0.033 C 
ATOM     32  C   UNL     1      36.465 -21.012 -19.877  0.00  0.00    +0.141 C 
ATOM     33  C   UNL     1      34.169 -20.675 -20.549  0.00  0.00    +0.141 C 
ATOM     34  C   UNL     1      35.105 -21.268 -19.701  0.00  0.00    +0.074 C 
BRANCH  32  35
ATOM     35  O   UNL     1      37.379 -21.592 -19.051  0.00  0.00    -0.471 OA
ATOM     36  C   UNL     1      36.924 -21.984 -17.757  0.00  0.00    +0.252 C 
ENDBRANCH  32  35
BRANCH  33  37
ATOM     37  O   UNL     1      32.842 -20.926 -20.377  0.00  0.00    -0.471 OA
ATOM     38  C   UNL     1      32.461 -21.621 -19.190  0.00  0.00    +0.252 C 
ENDBRANCH  33  37
ENDBRANCH  28  29
ENDBRANCH  27  28
ENDBRANCH   6  27
TORSDOF 7
ENDMDL
MODEL 9
REMARK VINA RESULT:      -9.8      3.158     12.629
REMARK  Name = 51039095
REMARK  7 active torsions:
REMARK  status: ('A' for Active; 'I' for Inactive)
REMARK    1  A    between atoms: C_5  and  C_16
REMARK    2  A    between atoms: C_6  and  C_27
REMARK    3  A    between atoms: C_11  and  N_17
REMARK    4  A    between atoms: C_27  and  C_28
REMARK    5  A    between atoms: C_28  and  C_29
REMARK    6  A    between atoms: C_32  and  O_35
REMARK    7  A    between atoms: C_33  and  O_37
REMARK                            x       y       z     vdW  Elec       q    Type
REMARK                         _______ _______ _______ _____ _____    ______ ____
ROOT
ATOM      1  O   UNL     1      36.512 -18.814 -20.925  0.00  0.00    -0.270 OA
ATOM      2  N   UNL     1      34.234 -19.360 -21.047  0.00  0.00    -0.265 N 
ATOM      3  N   UNL     1      33.397 -22.279 -19.365  0.00  0.00    -0.239 N 
ATOM      4  N   UNL     1      33.016 -21.228 -20.111  0.00  0.00    -0.166 NA
ATOM      5  C   UNL     1      35.360 -18.570 -21.317  0.00  0.00    +0.251 C 
ATOM      6  C   UNL     1      34.731 -22.297 -19.079  0.00  0.00    +0.046 C 
ATOM      7  C   UNL     1      34.157 -20.561 -20.300  0.00  0.00    +0.153 C 
ATOM      8  C   UNL     1      35.258 -21.180 -19.680  0.00  0.00    +0.048 C 
ATOM      9  H   UNL     1      33.384 -19.038 -21.427  0.00  0.00    +0.157 HD
ATOM     10  H   UNL     1      32.771 -22.972 -19.053  0.00  0.00    +0.174 HD
ENDROOT
BRANCH   5  16
ATOM     11  C   UNL     1      34.679 -15.145 -23.730  0.00  0.00    +0.048 C 
ATOM     12  C   UNL     1      34.657 -15.035 -22.340  0.00  0.00    +0.015 C 
ATOM     13  C   UNL     1      34.927 -16.381 -24.328  0.00  0.00    +0.015 C 
ATOM     14  C   UNL     1      34.881 -16.160 -21.547  0.00  0.00    +0.006 C 
ATOM     15  C   UNL     1      35.151 -17.507 -23.534  0.00  0.00    +0.006 C 
ATOM     16  C   UNL     1      35.128 -17.396 -22.145  0.00  0.00    +0.054 C 
BRANCH  11  17
ATOM     17  N   UNL     1      34.455 -14.017 -24.527  0.00  0.00    -0.312 N 
ATOM     18  N   UNL     1      33.804 -11.683 -26.027  0.00  0.00    +0.389 N 
ATOM     19  C   UNL     1      33.924 -12.980 -26.701  0.00  0.00    -0.042 C 
ATOM     20  C   UNL     1      34.741 -11.596 -24.903  0.00  0.00    -0.042 C 
ATOM     21  C   UNL     1      33.620 -14.130 -25.728  0.00  0.00    +0.069 C 
ATOM     22  C   UNL     1      34.459 -12.701 -23.875  0.00  0.00    +0.069 C 
ATOM     23  C   UNL     1      34.619 -10.217 -24.257  0.00  0.00    -0.022 C 
ATOM     24  C   UNL     1      32.967 -13.017 -27.891  0.00  0.00    -0.022 C 
ATOM     25  H   UNL     1      32.851 -11.574 -25.679  0.00  0.00    -0.084 HD
ATOM     26  H   UNL     1      34.022 -10.944 -26.696  0.00  0.00    -0.084 HD
ENDBRANCH  11  17
ENDBRANCH   5  16
BRANCH   6  27
ATOM     27  C   UNL     1      35.346 -23.364 -18.274  0.00  0.00    +0.047 C 
BRANCH  27  28
ATOM     28  C   UNL     1      35.715 -22.953 -16.826  0.00  0.00    +0.033 C 
BRANCH  28  29
ATOM     29  C   UNL     1      34.754 -23.496 -15.796  0.00  0.00    -0.016 C 
ATOM     30  C   UNL     1      33.403 -23.644 -16.112  0.00  0.00    +0.033 C 
ATOM     31  C   UNL     1      35.217 -23.852 -14.530  0.00  0.00    +0.033 C 
ATOM     32  C   UNL     1      34.330 -24.354 -13.578  0.00  0.00    +0.141 C 
ATOM     33  C   UNL     1      32.516 -24.147 -15.161  0.00  0.00    +0.141 C 
ATOM     34  C   UNL     1      32.978 -24.502 -13.894  0.00  0.00    +0.074 C 
BRANCH  32  35
ATOM     35  O   UNL     1      34.781 -24.702 -12.342  0.00  0.00    -0.471 OA
ATOM     36  C   UNL     1      35.925 -24.005 -11.850  0.00  0.00    +0.252 C 
ENDBRANCH  32  35
BRANCH  33  37
ATOM     37  O   UNL     1      31.198 -24.292 -15.468  0.00  0.00    -0.471 OA
ATOM     38  C   UNL     1      30.484 -25.328 -14.794  0.00  0.00    +0.252 C 
ENDBRANCH  33  37
ENDBRANCH  28  29
ENDBRANCH  27  28
ENDBRANCH   6  27
TORSDOF 7
ENDMDL
