MODEL 1
REMARK VINA RESULT:     -12.2      0.000      0.000
REMARK  Name = 11840906
REMARK  7 active torsions:
REMARK  status: ('A' for Active; 'I' for Inactive)
REMARK    1  A    between atoms: O_1  and  C_3
REMARK    2  A    between atoms: O_1  and  C_18
REMARK    3  A    between atoms: C_5  and  C_9
REMARK    4  A    between atoms: C_18  and  C_19
REMARK    5  A    between atoms: C_19  and  N_20
REMARK    6  A    between atoms: C_19  and  C_24
REMARK    7  A    between atoms: C_24  and  C_26
REMARK                            x       y       z     vdW  Elec       q    Type
REMARK                         _______ _______ _______ _____ _____    ______ ____
ROOT
ATOM      1  O   UNL     1      35.668 -15.148 -23.981  0.00  0.00    -0.476 OA
ENDROOT
BRANCH   1   3
ATOM      2  N   UNL     1      34.437 -18.341 -25.238  0.00  0.00    -0.239 NA
ATOM      3  C   UNL     1      35.342 -16.479 -24.012  0.00  0.00    +0.158 C 
ATOM      4  C   UNL     1      35.572 -17.284 -22.911  0.00  0.00    +0.040 C 
ATOM      5  C   UNL     1      35.231 -18.631 -22.972  0.00  0.00    +0.022 C 
ATOM      6  C   UNL     1      34.782 -17.037 -25.141  0.00  0.00    +0.136 C 
ATOM      7  C   UNL     1      34.672 -19.105 -24.147  0.00  0.00    +0.099 C 
BRANCH   5   9
ATOM      8  N   UNL     1      35.045 -22.788 -18.010  0.00  0.00    -0.242 NA
ATOM      9  C   UNL     1      35.452 -19.507 -21.845  0.00  0.00    +0.002 C 
ATOM     10  C   UNL     1      34.589 -21.089 -20.208  0.00  0.00    +0.003 C 
ATOM     11  C   UNL     1      34.389 -20.235 -21.305  0.00  0.00    +0.000 C 
ATOM     12  C   UNL     1      35.880 -21.205 -19.656  0.00  0.00    +0.019 C 
ATOM     13  C   UNL     1      36.727 -19.625 -21.294  0.00  0.00    +0.000 C 
ATOM     14  C   UNL     1      36.943 -20.469 -20.204  0.00  0.00    +0.002 C 
ATOM     15  C   UNL     1      33.542 -21.831 -19.647  0.00  0.00    +0.021 C 
ATOM     16  C   UNL     1      36.042 -22.064 -18.567  0.00  0.00    +0.099 C 
ATOM     17  C   UNL     1      33.821 -22.652 -18.566  0.00  0.00    +0.099 C 
ENDBRANCH   5   9
ENDBRANCH   1   3
BRANCH   1  18
ATOM     18  C   UNL     1      34.780 -14.288 -23.279  0.00  0.00    +0.184 C 
BRANCH  18  19
ATOM     19  C   UNL     1      34.169 -13.270 -24.247  0.00  0.00    -0.021 C 
BRANCH  19  20
ATOM     20  N   UNL     1      32.855 -13.755 -24.669  0.00  0.00    +0.384 N 
ATOM     21  H   UNL     1      32.579 -13.285 -25.532  0.00  0.00    -0.089 HD
ATOM     22  H   UNL     1      32.169 -13.557 -23.940  0.00  0.00    -0.089 HD
ATOM     23  H   UNL     1      32.899 -14.762 -24.830  0.00  0.00    -0.089 HD
ENDBRANCH  19  20
BRANCH  19  24
ATOM     24  C   UNL     1      34.062 -11.872 -23.602  0.00  0.00    -0.012 C 
BRANCH  24  26
ATOM     25  N   UNL     1      32.128  -9.408 -22.139  0.00  0.00    -0.270 NA
ATOM     26  C   UNL     1      32.651 -11.486 -23.200  0.00  0.00    +0.046 C 
ATOM     27  C   UNL     1      32.353 -11.695 -21.751  0.00  0.00    -0.007 C 
ATOM     28  C   UNL     1      32.460  -9.974 -23.260  0.00  0.00    +0.130 C 
ATOM     29  C   UNL     1      32.052 -10.446 -21.193  0.00  0.00    +0.071 C 
ATOM     30  C   UNL     1      32.333 -12.851 -20.994  0.00  0.00    -0.024 C 
ATOM     31  C   UNL     1      31.729 -10.329 -19.852  0.00  0.00    +0.014 C 
ATOM     32  C   UNL     1      32.008 -12.740 -19.641  0.00  0.00    +0.052 C 
ATOM     33  C   UNL     1      31.709 -11.490 -19.074  0.00  0.00    -0.020 C 
ENDBRANCH  24  26
ENDBRANCH  19  24
ENDBRANCH  18  19
ENDBRANCH   1  18
TORSDOF 7
ENDMDL
MODEL 2
REMARK VINA RESULT:     -12.2      1.705      2.280
REMARK  Name = 11840906
REMARK  7 active torsions:
REMARK  status: ('A' for Active; 'I' for Inactive)
REMARK    1  A    between atoms: O_1  and  C_3
REMARK    2  A    between atoms: O_1  and  C_18
REMARK    3  A    between atoms: C_5  and  C_9
REMARK    4  A    between atoms: C_18  and  C_19
REMARK    5  A    between atoms: C_19  and  N_20
REMARK    6  A    between atoms: C_19  and  C_24
REMARK    7  A    between atoms: C_24  and  C_26
REMARK                            x       y       z     vdW  Elec       q    Type
REMARK                         _______ _______ _______ _____ _____    ______ ____
ROOT
ATOM      1  O   UNL     1      35.611 -15.280 -23.825  0.00  0.00    -0.476 OA
ENDROOT
BRANCH   1   3
ATOM      2  N   UNL     1      34.507 -18.499 -25.131  0.00  0.00    -0.239 NA
ATOM      3  C   UNL     1      35.321 -16.619 -23.870  0.00  0.00    +0.158 C 
ATOM      4  C   UNL     1      35.534 -17.422 -22.764  0.00  0.00    +0.040 C 
ATOM      5  C   UNL     1      35.231 -18.777 -22.841  0.00  0.00    +0.022 C 
ATOM      6  C   UNL     1      34.814 -17.187 -25.019  0.00  0.00    +0.136 C 
ATOM      7  C   UNL     1      34.724 -19.261 -24.036  0.00  0.00    +0.099 C 
BRANCH   5   9
ATOM      8  N   UNL     1      34.969 -22.895 -17.851  0.00  0.00    -0.242 NA
ATOM      9  C   UNL     1      35.437 -19.650 -21.710  0.00  0.00    +0.002 C 
ATOM     10  C   UNL     1      34.543 -21.199 -20.057  0.00  0.00    +0.003 C 
ATOM     11  C   UNL     1      34.358 -20.347 -21.158  0.00  0.00    +0.000 C 
ATOM     12  C   UNL     1      35.835 -21.345 -19.512  0.00  0.00    +0.019 C 
ATOM     13  C   UNL     1      36.712 -19.798 -21.166  0.00  0.00    +0.000 C 
ATOM     14  C   UNL     1      36.913 -20.641 -20.072  0.00  0.00    +0.002 C 
ATOM     15  C   UNL     1      33.481 -21.910 -19.484  0.00  0.00    +0.021 C 
ATOM     16  C   UNL     1      35.981 -22.201 -18.418  0.00  0.00    +0.099 C 
ATOM     17  C   UNL     1      33.746 -22.732 -18.400  0.00  0.00    +0.099 C 
ENDBRANCH   5   9
ENDBRANCH   1   3
BRANCH   1  18
ATOM     18  C   UNL     1      34.636 -14.434 -23.227  0.00  0.00    +0.184 C 
BRANCH  18  19
ATOM     19  C   UNL     1      34.204 -13.354 -24.224  0.00  0.00    -0.021 C 
BRANCH  19  20
ATOM     20  N   UNL     1      33.195 -13.921 -25.119  0.00  0.00    +0.384 N 
ATOM     21  H   UNL     1      32.842 -14.794 -24.725  0.00  0.00    -0.089 HD
ATOM     22  H   UNL     1      33.613 -14.105 -26.031  0.00  0.00    -0.089 HD
ATOM     23  H   UNL     1      32.425 -13.261 -25.226  0.00  0.00    -0.089 HD
ENDBRANCH  19  20
BRANCH  19  24
ATOM     24  C   UNL     1      33.663 -12.103 -23.501  0.00  0.00    -0.012 C 
BRANCH  24  26
ATOM     25  N   UNL     1      35.455  -9.273 -24.355  0.00  0.00    -0.270 NA
ATOM     26  C   UNL     1      33.659 -10.851 -24.358  0.00  0.00    +0.046 C 
ATOM     27  C   UNL     1      33.269  -9.611 -23.622  0.00  0.00    -0.007 C 
ATOM     28  C   UNL     1      35.078 -10.452 -24.748  0.00  0.00    +0.130 C 
ATOM     29  C   UNL     1      34.359  -8.732 -23.661  0.00  0.00    +0.071 C 
ATOM     30  C   UNL     1      32.087  -9.273 -22.991  0.00  0.00    -0.024 C 
ATOM     31  C   UNL     1      34.287  -7.487 -23.058  0.00  0.00    +0.014 C 
ATOM     32  C   UNL     1      32.008  -8.020 -22.380  0.00  0.00    +0.052 C 
ATOM     33  C   UNL     1      33.099  -7.135 -22.413  0.00  0.00    -0.020 C 
ENDBRANCH  24  26
ENDBRANCH  19  24
ENDBRANCH  18  19
ENDBRANCH   1  18
TORSDOF 7
ENDMDL
MODEL 3
REMARK VINA RESULT:     -11.9      1.511      9.448
REMARK  Name = 11840906
REMARK  7 active torsions:
REMARK  status: ('A' for Active; 'I' for Inactive)
REMARK    1  A    between atoms: O_1  and  C_3
REMARK    2  A    between atoms: O_1  and  C_18
REMARK    3  A    between atoms: C_5  and  C_9
REMARK    4  A    between atoms: C_18  and  C_19
REMARK    5  A    between atoms: C_19  and  N_20
REMARK    6  A    between atoms: C_19  and  C_24
REMARK    7  A    between atoms: C_24  and  C_26
REMARK                            x       y       z     vdW  Elec       q    Type
REMARK                         _______ _______ _______ _____ _____    ______ ____
ROOT
ATOM      1  O   UNL     1      35.916 -17.787 -23.302  0.00  0.00    -0.476 OA
ENDROOT
BRANCH   1   3
ATOM      2  N   UNL     1      34.183 -16.480 -26.230  0.00  0.00    -0.239 NA
ATOM      3  C   UNL     1      35.222 -16.920 -24.105  0.00  0.00    +0.158 C 
ATOM      4  C   UNL     1      34.866 -15.667 -23.643  0.00  0.00    +0.040 C 
ATOM      5  C   UNL     1      34.161 -14.810 -24.482  0.00  0.00    +0.022 C 
ATOM      6  C   UNL     1      34.867 -17.285 -25.386  0.00  0.00    +0.136 C 
ATOM      7  C   UNL     1      33.847 -15.260 -25.753  0.00  0.00    +0.099 C 
BRANCH   5   9
ATOM      8  N   UNL     1      31.851  -9.486 -21.607  0.00  0.00    -0.242 NA
ATOM      9  C   UNL     1      33.770 -13.491 -24.040  0.00  0.00    +0.002 C 
ATOM     10  C   UNL     1      32.602 -12.066 -22.448  0.00  0.00    +0.003 C 
ATOM     11  C   UNL     1      32.991 -13.341 -22.889  0.00  0.00    +0.000 C 
ATOM     12  C   UNL     1      33.009 -10.933 -23.181  0.00  0.00    +0.019 C 
ATOM     13  C   UNL     1      34.169 -12.367 -24.761  0.00  0.00    +0.000 C 
ATOM     14  C   UNL     1      33.791 -11.093 -24.337  0.00  0.00    +0.002 C 
ATOM     15  C   UNL     1      31.822 -11.885 -21.299  0.00  0.00    +0.021 C 
ATOM     16  C   UNL     1      32.604  -9.682 -22.713  0.00  0.00    +0.099 C 
ATOM     17  C   UNL     1      31.481 -10.594 -20.929  0.00  0.00    +0.099 C 
ENDBRANCH   5   9
ENDBRANCH   1   3
BRANCH   1  18
ATOM     18  C   UNL     1      35.313 -19.050 -23.050  0.00  0.00    +0.184 C 
BRANCH  18  19
ATOM     19  C   UNL     1      35.880 -19.648 -21.759  0.00  0.00    -0.021 C 
BRANCH  19  20
ATOM     20  N   UNL     1      36.737 -18.651 -21.118  0.00  0.00    +0.384 N 
ATOM     21  H   UNL     1      36.158 -17.909 -20.723  0.00  0.00    -0.089 HD
ATOM     22  H   UNL     1      37.373 -18.254 -21.809  0.00  0.00    -0.089 HD
ATOM     23  H   UNL     1      37.276 -19.093 -20.373  0.00  0.00    -0.089 HD
ENDBRANCH  19  20
BRANCH  19  24
ATOM     24  C   UNL     1      34.753 -20.105 -20.807  0.00  0.00    -0.012 C 
BRANCH  24  26
ATOM     25  N   UNL     1      33.278 -22.602 -18.926  0.00  0.00    -0.270 NA
ATOM     26  C   UNL     1      34.803 -21.581 -20.459  0.00  0.00    +0.046 C 
ATOM     27  C   UNL     1      35.481 -21.877 -19.160  0.00  0.00    -0.007 C 
ATOM     28  C   UNL     1      33.413 -22.109 -20.120  0.00  0.00    +0.130 C 
ATOM     29  C   UNL     1      34.538 -22.475 -18.315  0.00  0.00    +0.071 C 
ATOM     30  C   UNL     1      36.784 -21.661 -18.756  0.00  0.00    -0.024 C 
ATOM     31  C   UNL     1      34.884 -22.865 -17.032  0.00  0.00    +0.014 C 
ATOM     32  C   UNL     1      37.140 -22.052 -17.464  0.00  0.00    +0.052 C 
ATOM     33  C   UNL     1      36.199 -22.649 -16.609  0.00  0.00    -0.020 C 
ENDBRANCH  24  26
ENDBRANCH  19  24
ENDBRANCH  18  19
ENDBRANCH   1  18
TORSDOF 7
ENDMDL
MODEL 4
REMARK VINA RESULT:     -11.8      1.618      2.594
REMARK  Name = 11840906
REMARK  7 active torsions:
REMARK  status: ('A' for Active; 'I' for Inactive)
REMARK    1  A    between atoms: O_1  and  C_3
REMARK    2  A    between atoms: O_1  and  C_18
REMARK    3  A    between atoms: C_5  and  C_9
REMARK    4  A    between atoms: C_18  and  C_19
REMARK    5  A    between atoms: C_19  and  N_20
REMARK    6  A    between atoms: C_19  and  C_24
REMARK    7  A    between atoms: C_24  and  C_26
REMARK                            x       y       z     vdW  Elec       q    Type
REMARK                         _______ _______ _______ _____ _____    ______ ____
ROOT
ATOM      1  O   UNL     1      35.076 -14.114 -23.792  0.00  0.00    -0.476 OA
ENDROOT
BRANCH   1   3
ATOM      2  N   UNL     1      34.670 -17.253 -25.601  0.00  0.00    -0.239 NA
ATOM      3  C   UNL     1      35.045 -15.463 -24.039  0.00  0.00    +0.158 C 
ATOM      4  C   UNL     1      35.340 -16.367 -23.035  0.00  0.00    +0.040 C 
ATOM      5  C   UNL     1      35.300 -17.729 -23.316  0.00  0.00    +0.022 C 
ATOM      6  C   UNL     1      34.719 -15.938 -25.291  0.00  0.00    +0.136 C 
ATOM      7  C   UNL     1      34.962 -18.116 -24.602  0.00  0.00    +0.099 C 
BRANCH   5   9
ATOM      8  N   UNL     1      35.467 -22.357 -18.789  0.00  0.00    -0.242 NA
ATOM      9  C   UNL     1      35.601 -18.707 -22.297  0.00  0.00    +0.002 C 
ATOM     10  C   UNL     1      34.857 -20.457 -20.776  0.00  0.00    +0.003 C 
ATOM     11  C   UNL     1      34.580 -19.502 -21.768  0.00  0.00    +0.000 C 
ATOM     12  C   UNL     1      36.182 -20.606 -20.318  0.00  0.00    +0.019 C 
ATOM     13  C   UNL     1      36.909 -18.859 -21.840  0.00  0.00    +0.000 C 
ATOM     14  C   UNL     1      37.201 -19.803 -20.855  0.00  0.00    +0.002 C 
ATOM     15  C   UNL     1      33.856 -21.268 -20.227  0.00  0.00    +0.021 C 
ATOM     16  C   UNL     1      36.420 -21.565 -19.331  0.00  0.00    +0.099 C 
ATOM     17  C   UNL     1      34.210 -22.187 -19.253  0.00  0.00    +0.099 C 
ENDBRANCH   5   9
ENDBRANCH   1   3
BRANCH   1  18
ATOM     18  C   UNL     1      33.895 -13.382 -24.092  0.00  0.00    +0.184 C 
BRANCH  18  19
ATOM     19  C   UNL     1      34.228 -12.227 -25.043  0.00  0.00    -0.021 C 
BRANCH  19  20
ATOM     20  N   UNL     1      34.030 -12.683 -26.420  0.00  0.00    +0.384 N 
ATOM     21  H   UNL     1      33.277 -13.372 -26.445  0.00  0.00    -0.089 HD
ATOM     22  H   UNL     1      34.891 -13.109 -26.764  0.00  0.00    -0.089 HD
ATOM     23  H   UNL     1      33.784 -11.889 -27.009  0.00  0.00    -0.089 HD
ENDBRANCH  19  20
BRANCH  19  24
ATOM     24  C   UNL     1      33.366 -10.982 -24.743  0.00  0.00    -0.012 C 
BRANCH  24  26
ATOM     25  N   UNL     1      31.713  -9.561 -22.061  0.00  0.00    -0.270 NA
ATOM     26  C   UNL     1      33.533 -10.444 -23.334  0.00  0.00    +0.046 C 
ATOM     27  C   UNL     1      33.618  -8.954 -23.258  0.00  0.00    -0.007 C 
ATOM     28  C   UNL     1      32.260 -10.646 -22.519  0.00  0.00    +0.130 C 
ATOM     29  C   UNL     1      32.530  -8.504 -22.499  0.00  0.00    +0.071 C 
ATOM     30  C   UNL     1      34.548  -8.078 -23.783  0.00  0.00    -0.024 C 
ATOM     31  C   UNL     1      32.348  -7.154 -22.255  0.00  0.00    +0.014 C 
ATOM     32  C   UNL     1      34.371  -6.715 -23.541  0.00  0.00    +0.052 C 
ATOM     33  C   UNL     1      33.280  -6.256 -22.784  0.00  0.00    -0.020 C 
ENDBRANCH  24  26
ENDBRANCH  19  24
ENDBRANCH  18  19
ENDBRANCH   1  18
TORSDOF 7
ENDMDL
MODEL 5
REMARK VINA RESULT:     -11.7      2.051      9.869
REMARK  Name = 11840906
REMARK  7 active torsions:
REMARK  status: ('A' for Active; 'I' for Inactive)
REMARK    1  A    between atoms: O_1  and  C_3
REMARK    2  A    between atoms: O_1  and  C_18
REMARK    3  A    between atoms: C_5  and  C_9
REMARK    4  A    between atoms: C_18  and  C_19
REMARK    5  A    between atoms: C_19  and  N_20
REMARK    6  A    between atoms: C_19  and  C_24
REMARK    7  A    between atoms: C_24  and  C_26
REMARK                            x       y       z     vdW  Elec       q    Type
REMARK                         _______ _______ _______ _____ _____    ______ ____
ROOT
ATOM      1  O   UNL     1      34.604 -15.791 -23.630  0.00  0.00    -0.476 OA
ENDROOT
BRANCH   1   3
ATOM      2  N   UNL     1      33.661 -13.969 -26.642  0.00  0.00    -0.239 NA
ATOM      3  C   UNL     1      34.315 -14.739 -24.459  0.00  0.00    +0.158 C 
ATOM      4  C   UNL     1      34.377 -13.438 -23.992  0.00  0.00    +0.040 C 
ATOM      5  C   UNL     1      34.078 -12.392 -24.858  0.00  0.00    +0.022 C 
ATOM      6  C   UNL     1      33.958 -14.960 -25.772  0.00  0.00    +0.136 C 
ATOM      7  C   UNL     1      33.729 -12.708 -26.161  0.00  0.00    +0.099 C 
BRANCH   5   9
ATOM      8  N   UNL     1      33.262  -6.487 -22.326  0.00  0.00    -0.242 NA
ATOM      9  C   UNL     1      34.131 -11.020 -24.412  0.00  0.00    +0.002 C 
ATOM     10  C   UNL     1      33.138  -9.167 -23.182  0.00  0.00    +0.003 C 
ATOM     11  C   UNL     1      33.101 -10.500 -23.622  0.00  0.00    +0.000 C 
ATOM     12  C   UNL     1      34.231  -8.354 -23.547  0.00  0.00    +0.019 C 
ATOM     13  C   UNL     1      35.208 -10.210 -24.771  0.00  0.00    +0.000 C 
ATOM     14  C   UNL     1      35.261  -8.884 -24.342  0.00  0.00    +0.002 C 
ATOM     15  C   UNL     1      32.122  -8.620 -22.390  0.00  0.00    +0.021 C 
ATOM     16  C   UNL     1      34.234  -7.035 -23.091  0.00  0.00    +0.099 C 
ATOM     17  C   UNL     1      32.232  -7.296 -21.995  0.00  0.00    +0.099 C 
ENDBRANCH   5   9
ENDBRANCH   1   3
BRANCH   1  18
ATOM     18  C   UNL     1      35.368 -16.854 -24.186  0.00  0.00    +0.184 C 
BRANCH  18  19
ATOM     19  C   UNL     1      34.568 -18.159 -24.118  0.00  0.00    -0.021 C 
BRANCH  19  20
ATOM     20  N   UNL     1      34.252 -18.586 -25.481  0.00  0.00    +0.384 N 
ATOM     21  H   UNL     1      33.421 -19.179 -25.468  0.00  0.00    -0.089 HD
ATOM     22  H   UNL     1      35.038 -19.111 -25.864  0.00  0.00    -0.089 HD
ATOM     23  H   UNL     1      34.075 -17.766 -26.062  0.00  0.00    -0.089 HD
ENDBRANCH  19  20
BRANCH  19  24
ATOM     24  C   UNL     1      35.344 -19.257 -23.359  0.00  0.00    -0.012 C 
BRANCH  24  26
ATOM     25  N   UNL     1      37.280 -19.895 -20.568  0.00  0.00    -0.270 NA
ATOM     26  C   UNL     1      35.494 -18.989 -21.874  0.00  0.00    +0.046 C 
ATOM     27  C   UNL     1      35.000 -20.098 -21.002  0.00  0.00    -0.007 C 
ATOM     28  C   UNL     1      36.962 -19.008 -21.462  0.00  0.00    +0.130 C 
ATOM     29  C   UNL     1      36.089 -20.578 -20.265  0.00  0.00    +0.071 C 
ATOM     30  C   UNL     1      33.733 -20.629 -20.855  0.00  0.00    -0.024 C 
ATOM     31  C   UNL     1      35.931 -21.615 -19.362  0.00  0.00    +0.014 C 
ATOM     32  C   UNL     1      33.566 -21.676 -19.945  0.00  0.00    +0.052 C 
ATOM     33  C   UNL     1      34.656 -22.165 -19.206  0.00  0.00    -0.020 C 
ENDBRANCH  24  26
ENDBRANCH  19  24
ENDBRANCH  18  19
ENDBRANCH   1  18
TORSDOF 7
ENDMDL
MODEL 6
REMARK VINA RESULT:     -11.6      3.291     10.361
REMARK  Name = 11840906
REMARK  7 active torsions:
REMARK  status: ('A' for Active; 'I' for Inactive)
REMARK    1  A    between atoms: O_1  and  C_3
REMARK    2  A    between atoms: O_1  and  C_18
REMARK    3  A    between atoms: C_5  and  C_9
REMARK    4  A    between atoms: C_18  and  C_19
REMARK    5  A    between atoms: C_19  and  N_20
REMARK    6  A    between atoms: C_19  and  C_24
REMARK    7  A    between atoms: C_24  and  C_26
REMARK                            x       y       z     vdW  Elec       q    Type
REMARK                         _______ _______ _______ _____ _____    ______ ____
ROOT
ATOM      1  O   UNL     1      35.018 -21.715 -20.409  0.00  0.00    -0.476 OA
ENDROOT
BRANCH   1   3
ATOM      2  N   UNL     1      37.632 -19.187 -20.648  0.00  0.00    -0.239 NA
ATOM      3  C   UNL     1      35.695 -20.600 -20.831  0.00  0.00    +0.158 C 
ATOM      4  C   UNL     1      35.166 -19.789 -21.818  0.00  0.00    +0.040 C 
ATOM      5  C   UNL     1      35.876 -18.665 -22.225  0.00  0.00    +0.022 C 
ATOM      6  C   UNL     1      36.914 -20.270 -20.279  0.00  0.00    +0.136 C 
ATOM      7  C   UNL     1      37.092 -18.410 -21.615  0.00  0.00    +0.099 C 
BRANCH   5   9
ATOM      8  N   UNL     1      33.729 -13.871 -26.014  0.00  0.00    -0.242 NA
ATOM      9  C   UNL     1      35.359 -17.790 -23.252  0.00  0.00    +0.002 C 
ATOM     10  C   UNL     1      34.740 -15.556 -23.998  0.00  0.00    +0.003 C 
ATOM     11  C   UNL     1      35.242 -16.419 -23.009  0.00  0.00    +0.000 C 
ATOM     12  C   UNL     1      34.355 -16.091 -25.244  0.00  0.00    +0.019 C 
ATOM     13  C   UNL     1      34.976 -18.313 -24.486  0.00  0.00    +0.000 C 
ATOM     14  C   UNL     1      34.475 -17.470 -25.479  0.00  0.00    +0.002 C 
ATOM     15  C   UNL     1      34.612 -14.178 -23.783  0.00  0.00    +0.021 C 
ATOM     16  C   UNL     1      33.861 -15.204 -26.202  0.00  0.00    +0.099 C 
ATOM     17  C   UNL     1      34.110 -13.394 -24.809  0.00  0.00    +0.099 C 
ENDBRANCH   5   9
ENDBRANCH   1   3
BRANCH   1  18
ATOM     18  C   UNL     1      35.290 -22.167 -19.089  0.00  0.00    +0.184 C 
BRANCH  18  19
ATOM     19  C   UNL     1      33.978 -22.319 -18.312  0.00  0.00    -0.021 C 
BRANCH  19  20
ATOM     20  N   UNL     1      32.883 -22.483 -19.269  0.00  0.00    +0.384 N 
ATOM     21  H   UNL     1      32.168 -21.777 -19.092  0.00  0.00    -0.089 HD
ATOM     22  H   UNL     1      32.476 -23.412 -19.164  0.00  0.00    -0.089 HD
ATOM     23  H   UNL     1      33.241 -22.374 -20.218  0.00  0.00    -0.089 HD
ENDBRANCH  19  20
BRANCH  19  24
ATOM     24  C   UNL     1      34.038 -23.508 -17.329  0.00  0.00    -0.012 C 
BRANCH  24  26
ATOM     25  N   UNL     1      33.449 -24.798 -14.177  0.00  0.00    -0.270 NA
ATOM     26  C   UNL     1      33.484 -23.196 -15.952  0.00  0.00    +0.046 C 
ATOM     27  C   UNL     1      32.096 -23.701 -15.726  0.00  0.00    -0.007 C 
ATOM     28  C   UNL     1      34.203 -24.006 -14.879  0.00  0.00    +0.130 C 
ATOM     29  C   UNL     1      32.146 -24.627 -14.676  0.00  0.00    +0.071 C 
ATOM     30  C   UNL     1      30.909 -23.384 -16.357  0.00  0.00    -0.024 C 
ATOM     31  C   UNL     1      30.997 -25.264 -14.239  0.00  0.00    +0.014 C 
ATOM     32  C   UNL     1      29.746 -24.022 -15.921  0.00  0.00    +0.052 C 
ATOM     33  C   UNL     1      29.790 -24.955 -14.872  0.00  0.00    -0.020 C 
ENDBRANCH  24  26
ENDBRANCH  19  24
ENDBRANCH  18  19
ENDBRANCH   1  18
TORSDOF 7
ENDMDL
MODEL 7
REMARK VINA RESULT:     -11.3      1.737      8.483
REMARK  Name = 11840906
REMARK  7 active torsions:
REMARK  status: ('A' for Active; 'I' for Inactive)
REMARK    1  A    between atoms: O_1  and  C_3
REMARK    2  A    between atoms: O_1  and  C_18
REMARK    3  A    between atoms: C_5  and  C_9
REMARK    4  A    between atoms: C_18  and  C_19
REMARK    5  A    between atoms: C_19  and  N_20
REMARK    6  A    between atoms: C_19  and  C_24
REMARK    7  A    between atoms: C_24  and  C_26
REMARK                            x       y       z     vdW  Elec       q    Type
REMARK                         _______ _______ _______ _____ _____    ______ ____
ROOT
ATOM      1  O   UNL     1      34.095 -16.471 -26.300  0.00  0.00    -0.476 OA
ENDROOT
BRANCH   1   3
ATOM      2  N   UNL     1      33.866 -12.845 -26.598  0.00  0.00    -0.239 NA
ATOM      3  C   UNL     1      33.900 -15.160 -25.946  0.00  0.00    +0.158 C 
ATOM      4  C   UNL     1      33.556 -14.826 -24.649  0.00  0.00    +0.040 C 
ATOM      5  C   UNL     1      33.365 -13.488 -24.321  0.00  0.00    +0.022 C 
ATOM      6  C   UNL     1      34.043 -14.155 -26.879  0.00  0.00    +0.136 C 
ATOM      7  C   UNL     1      33.531 -12.546 -25.322  0.00  0.00    +0.099 C 
BRANCH   5   9
ATOM      8  N   UNL     1      31.577 -10.638 -18.788  0.00  0.00    -0.242 NA
ATOM      9  C   UNL     1      33.006 -13.095 -22.979  0.00  0.00    +0.002 C 
ATOM     10  C   UNL     1      32.270 -11.382 -21.414  0.00  0.00    +0.003 C 
ATOM     11  C   UNL     1      32.620 -11.778 -22.715  0.00  0.00    +0.000 C 
ATOM     12  C   UNL     1      32.311 -12.330 -20.372  0.00  0.00    +0.019 C 
ATOM     13  C   UNL     1      33.046 -14.029 -21.945  0.00  0.00    +0.000 C 
ATOM     14  C   UNL     1      32.701 -13.652 -20.647  0.00  0.00    +0.002 C 
ATOM     15  C   UNL     1      31.879 -10.069 -21.120  0.00  0.00    +0.021 C 
ATOM     16  C   UNL     1      31.956 -11.900 -19.093  0.00  0.00    +0.099 C 
ATOM     17  C   UNL     1      31.547  -9.757 -19.811  0.00  0.00    +0.099 C 
ENDBRANCH   5   9
ENDBRANCH   1   3
BRANCH   1  18
ATOM     18  C   UNL     1      35.070 -17.195 -25.560  0.00  0.00    +0.184 C 
BRANCH  18  19
ATOM     19  C   UNL     1      34.377 -18.176 -24.609  0.00  0.00    -0.021 C 
BRANCH  19  20
ATOM     20  N   UNL     1      33.428 -18.982 -25.379  0.00  0.00    +0.384 N 
ATOM     21  H   UNL     1      33.640 -19.972 -25.249  0.00  0.00    -0.089 HD
ATOM     22  H   UNL     1      33.505 -18.746 -26.368  0.00  0.00    -0.089 HD
ATOM     23  H   UNL     1      32.480 -18.792 -25.056  0.00  0.00    -0.089 HD
ENDBRANCH  19  20
BRANCH  19  24
ATOM     24  C   UNL     1      35.400 -19.072 -23.879  0.00  0.00    -0.012 C 
BRANCH  24  26
ATOM     25  N   UNL     1      37.491 -19.474 -21.156  0.00  0.00    -0.270 NA
ATOM     26  C   UNL     1      35.623 -18.693 -22.427  0.00  0.00    +0.046 C 
ATOM     27  C   UNL     1      35.195 -19.742 -21.452  0.00  0.00    -0.007 C 
ATOM     28  C   UNL     1      37.111 -18.660 -22.094  0.00  0.00    +0.130 C 
ATOM     29  C   UNL     1      36.330 -20.151 -20.741  0.00  0.00    +0.071 C 
ATOM     30  C   UNL     1      33.948 -20.279 -21.199  0.00  0.00    -0.024 C 
ATOM     31  C   UNL     1      36.239 -21.121 -19.758  0.00  0.00    +0.014 C 
ATOM     32  C   UNL     1      33.848 -21.258 -20.208  0.00  0.00    +0.052 C 
ATOM     33  C   UNL     1      34.983 -21.676 -19.494  0.00  0.00    -0.020 C 
ENDBRANCH  24  26
ENDBRANCH  19  24
ENDBRANCH  18  19
ENDBRANCH   1  18
TORSDOF 7
ENDMDL
MODEL 8
REMARK VINA RESULT:     -11.2      3.478     11.801
REMARK  Name = 11840906
REMARK  7 active torsions:
REMARK  status: ('A' for Active; 'I' for Inactive)
REMARK    1  A    between atoms: O_1  and  C_3
REMARK    2  A    between atoms: O_1  and  C_18
REMARK    3  A    between atoms: C_5  and  C_9
REMARK    4  A    between atoms: C_18  and  C_19
REMARK    5  A    between atoms: C_19  and  N_20
REMARK    6  A    between atoms: C_19  and  C_24
REMARK    7  A    between atoms: C_24  and  C_26
REMARK                            x       y       z     vdW  Elec       q    Type
REMARK                         _______ _______ _______ _____ _____    ______ ____
ROOT
ATOM      1  O   UNL     1      31.861 -11.785 -22.524  0.00  0.00    -0.476 OA
ENDROOT
BRANCH   1   3
ATOM      2  N   UNL     1      32.337  -9.356 -19.849  0.00  0.00    -0.239 NA
ATOM      3  C   UNL     1      32.010 -10.576 -21.896  0.00  0.00    +0.158 C 
ATOM      4  C   UNL     1      31.990  -9.399 -22.623  0.00  0.00    +0.040 C 
ATOM      5  C   UNL     1      32.145  -8.188 -21.957  0.00  0.00    +0.022 C 
ATOM      6  C   UNL     1      32.184 -10.513 -20.530  0.00  0.00    +0.136 C 
ATOM      7  C   UNL     1      32.313  -8.220 -20.583  0.00  0.00    +0.099 C 
BRANCH   5   9
ATOM      8  N   UNL     1      32.957  -3.070 -25.842  0.00  0.00    -0.242 NA
ATOM      9  C   UNL     1      32.129  -6.936 -22.678  0.00  0.00    +0.002 C 
ATOM     10  C   UNL     1      33.004  -5.519 -24.454  0.00  0.00    +0.003 C 
ATOM     11  C   UNL     1      33.007  -6.732 -23.745  0.00  0.00    +0.000 C 
ATOM     12  C   UNL     1      32.101  -4.506 -24.075  0.00  0.00    +0.019 C 
ATOM     13  C   UNL     1      31.239  -5.930 -22.307  0.00  0.00    +0.000 C 
ATOM     14  C   UNL     1      31.222  -4.719 -23.001  0.00  0.00    +0.002 C 
ATOM     15  C   UNL     1      33.872  -5.287 -25.528  0.00  0.00    +0.021 C 
ATOM     16  C   UNL     1      32.126  -3.314 -24.803  0.00  0.00    +0.099 C 
ATOM     17  C   UNL     1      33.807  -4.064 -26.177  0.00  0.00    +0.099 C 
ENDBRANCH   5   9
ENDBRANCH   1   3
BRANCH   1  18
ATOM     18  C   UNL     1      32.741 -12.827 -22.124  0.00  0.00    +0.184 C 
BRANCH  18  19
ATOM     19  C   UNL     1      33.492 -13.370 -23.344  0.00  0.00    -0.021 C 
BRANCH  19  20
ATOM     20  N   UNL     1      34.379 -12.322 -23.851  0.00  0.00    +0.384 N 
ATOM     21  H   UNL     1      33.861 -11.718 -24.491  0.00  0.00    -0.089 HD
ATOM     22  H   UNL     1      35.162 -12.749 -24.347  0.00  0.00    -0.089 HD
ATOM     23  H   UNL     1      34.732 -11.768 -23.071  0.00  0.00    -0.089 HD
ENDBRANCH  19  20
BRANCH  19  24
ATOM     24  C   UNL     1      34.286 -14.647 -22.996  0.00  0.00    -0.012 C 
BRANCH  24  26
ATOM     25  N   UNL     1      33.729 -16.483 -25.871  0.00  0.00    -0.270 NA
ATOM     26  C   UNL     1      34.953 -15.301 -24.191  0.00  0.00    +0.046 C 
ATOM     27  C   UNL     1      35.149 -16.776 -24.047  0.00  0.00    -0.007 C 
ATOM     28  C   UNL     1      34.021 -15.309 -25.399  0.00  0.00    +0.130 C 
ATOM     29  C   UNL     1      34.413 -17.405 -25.058  0.00  0.00    +0.071 C 
ATOM     30  C   UNL     1      35.898 -17.498 -23.139  0.00  0.00    -0.024 C 
ATOM     31  C   UNL     1      34.407 -18.784 -25.177  0.00  0.00    +0.014 C 
ATOM     32  C   UNL     1      35.897 -18.890 -23.252  0.00  0.00    +0.052 C 
ATOM     33  C   UNL     1      35.157 -19.528 -24.262  0.00  0.00    -0.020 C 
ENDBRANCH  24  26
ENDBRANCH  19  24
ENDBRANCH  18  19
ENDBRANCH   1  18
TORSDOF 7
ENDMDL
MODEL 9
REMARK VINA RESULT:     -11.2      4.609     10.505
REMARK  Name = 11840906
REMARK  7 active torsions:
REMARK  status: ('A' for Active; 'I' for Inactive)
REMARK    1  A    between atoms: O_1  and  C_3
REMARK    2  A    between atoms: O_1  and  C_18
REMARK    3  A    between atoms: C_5  and  C_9
REMARK    4  A    between atoms: C_18  and  C_19
REMARK    5  A    between atoms: C_19  and  N_20
REMARK    6  A    between atoms: C_19  and  C_24
REMARK    7  A    between atoms: C_24  and  C_26
REMARK                            x       y       z     vdW  Elec       q    Type
REMARK                         _______ _______ _______ _____ _____    ______ ____
ROOT
ATOM      1  O   UNL     1      36.679 -22.426 -18.099  0.00  0.00    -0.476 OA
ENDROOT
BRANCH   1   3
ATOM      2  N   UNL     1      33.422 -22.208 -19.723  0.00  0.00    -0.239 NA
ATOM      3  C   UNL     1      35.689 -21.996 -18.944  0.00  0.00    +0.158 C 
ATOM      4  C   UNL     1      35.924 -20.965 -19.835  0.00  0.00    +0.040 C 
ATOM      5  C   UNL     1      34.900 -20.551 -20.680  0.00  0.00    +0.022 C 
ATOM      6  C   UNL     1      34.442 -22.583 -18.918  0.00  0.00    +0.136 C 
ATOM      7  C   UNL     1      33.680 -21.199 -20.585  0.00  0.00    +0.099 C 
BRANCH   5   9
ATOM      8  N   UNL     1      35.137 -16.418 -25.660  0.00  0.00    -0.242 NA
ATOM      9  C   UNL     1      35.104 -19.479 -21.626  0.00  0.00    +0.002 C 
ATOM     10  C   UNL     1      34.725 -18.519 -23.831  0.00  0.00    +0.003 C 
ATOM     11  C   UNL     1      34.534 -19.553 -22.900  0.00  0.00    +0.000 C 
ATOM     12  C   UNL     1      35.500 -17.400 -23.465  0.00  0.00    +0.019 C 
ATOM     13  C   UNL     1      35.870 -18.370 -21.270  0.00  0.00    +0.000 C 
ATOM     14  C   UNL     1      36.070 -17.334 -22.183  0.00  0.00    +0.002 C 
ATOM     15  C   UNL     1      34.166 -18.565 -25.114  0.00  0.00    +0.021 C 
ATOM     16  C   UNL     1      35.668 -16.392 -24.416  0.00  0.00    +0.099 C 
ATOM     17  C   UNL     1      34.399 -17.504 -25.975  0.00  0.00    +0.099 C 
ENDBRANCH   5   9
ENDBRANCH   1   3
BRANCH   1  18
ATOM     18  C   UNL     1      36.457 -22.241 -16.707  0.00  0.00    +0.184 C 
BRANCH  18  19
ATOM     19  C   UNL     1      36.637 -23.573 -15.971  0.00  0.00    -0.021 C 
BRANCH  19  20
ATOM     20  N   UNL     1      37.316 -23.317 -14.700  0.00  0.00    +0.384 N 
ATOM     21  H   UNL     1      37.255 -24.147 -14.109  0.00  0.00    -0.089 HD
ATOM     22  H   UNL     1      36.869 -22.531 -14.228  0.00  0.00    -0.089 HD
ATOM     23  H   UNL     1      38.296 -23.096 -14.876  0.00  0.00    -0.089 HD
ENDBRANCH  19  20
BRANCH  19  24
ATOM     24  C   UNL     1      35.284 -24.279 -15.744  0.00  0.00    -0.012 C 
BRANCH  24  26
ATOM     25  N   UNL     1      33.099 -24.710 -13.100  0.00  0.00    -0.270 NA
ATOM     26  C   UNL     1      34.372 -23.561 -14.767  0.00  0.00    +0.046 C 
ATOM     27  C   UNL     1      32.926 -23.601 -15.143  0.00  0.00    -0.007 C 
ATOM     28  C   UNL     1      34.288 -24.315 -13.444  0.00  0.00    +0.130 C 
ATOM     29  C   UNL     1      32.240 -24.280 -14.128  0.00  0.00    +0.071 C 
ATOM     30  C   UNL     1      32.269 -23.092 -16.247  0.00  0.00    -0.024 C 
ATOM     31  C   UNL     1      30.871 -24.469 -14.202  0.00  0.00    +0.014 C 
ATOM     32  C   UNL     1      30.888 -23.279 -16.329  0.00  0.00    +0.052 C 
ATOM     33  C   UNL     1      30.195 -23.963 -15.315  0.00  0.00    -0.020 C 
ENDBRANCH  24  26
ENDBRANCH  19  24
ENDBRANCH  18  19
ENDBRANCH   1  18
TORSDOF 7
ENDMDL
