MODEL 1
REMARK VINA RESULT:     -11.8      0.000      0.000
REMARK  Name = 208951
REMARK  4 active torsions:
REMARK  status: ('A' for Active; 'I' for Inactive)
REMARK    1  A    between atoms: N_1  and  C_19
REMARK    2  A    between atoms: N_2  and  C_11
REMARK    3  A    between atoms: C_19  and  C_20
REMARK    4  A    between atoms: C_23  and  C_26
REMARK                            x       y       z     vdW  Elec       q    Type
REMARK                         _______ _______ _______ _____ _____    ______ ____
ROOT
ATOM      1  N   UNL     1      34.877 -16.193 -24.384  0.00  0.00    +0.392 N 
ATOM      2  N   UNL     1      34.143 -13.461 -23.988  0.00  0.00    -0.309 N 
ATOM      3  C   UNL     1      34.705 -15.658 -23.028  0.00  0.00    -0.055 C 
ATOM      4  C   UNL     1      33.939 -15.536 -25.302  0.00  0.00    -0.055 C 
ATOM      5  C   UNL     1      34.969 -14.151 -22.993  0.00  0.00    +0.068 C 
ATOM      6  C   UNL     1      34.178 -14.024 -25.344  0.00  0.00    +0.068 C 
ATOM      7  H   UNL     1      35.830 -16.002 -24.695  0.00  0.00    -0.079 HD
ENDROOT
BRANCH   2  11
ATOM      8  O   UNL     1      32.050 -12.356 -22.236  0.00  0.00    -0.406 OA
ATOM      9  O   UNL     1      30.364 -11.663 -20.811  0.00  0.00    -0.223 OA
ATOM     10  N   UNL     1      31.627 -10.109 -22.003  0.00  0.00    -0.287 N 
ATOM     11  C   UNL     1      33.892 -12.090 -23.853  0.00  0.00    +0.084 C 
ATOM     12  C   UNL     1      32.899 -11.591 -23.019  0.00  0.00    +0.179 A 
ATOM     13  C   UNL     1      34.640 -11.128 -24.560  0.00  0.00    +0.018 C 
ATOM     14  C   UNL     1      32.661 -10.239 -22.893  0.00  0.00    +0.098 A 
ATOM     15  C   UNL     1      34.388  -9.748 -24.424  0.00  0.00    +0.003 C 
ATOM     16  C   UNL     1      33.380  -9.285 -23.575  0.00  0.00    +0.020 C 
ATOM     17  C   UNL     1      31.256 -11.382 -21.603  0.00  0.00    +0.419 A 
ATOM     18  H   UNL     1      31.223  -9.264 -21.701  0.00  0.00    +0.172 HD
ENDBRANCH   2  11
BRANCH   1  19
ATOM     19  C   UNL     1      34.676 -17.641 -24.394  0.00  0.00    -0.050 C 
BRANCH  19  20
ATOM     20  C   UNL     1      35.483 -18.308 -23.314  0.00  0.00    -0.043 C 
ATOM     21  C   UNL     1      34.857 -19.178 -22.431  0.00  0.00    -0.006 C 
ATOM     22  C   UNL     1      36.843 -18.047 -23.216  0.00  0.00    -0.006 C 
ATOM     23  C   UNL     1      35.607 -19.797 -21.430  0.00  0.00    -0.000 C 
ATOM     24  C   UNL     1      37.591 -18.665 -22.216  0.00  0.00    -0.000 C 
ATOM     25  C   UNL     1      36.973 -19.540 -21.322  0.00  0.00    -0.000 C 
BRANCH  23  26
ATOM     26  C   UNL     1      34.966 -20.706 -20.504  0.00  0.00    -0.000 C 
ATOM     27  C   UNL     1      35.740 -21.548 -19.705  0.00  0.00    -0.000 C 
ATOM     28  C   UNL     1      33.574 -20.741 -20.410  0.00  0.00    -0.000 C 
ATOM     29  C   UNL     1      35.123 -22.424 -18.812  0.00  0.00    -0.000 C 
ATOM     30  C   UNL     1      32.958 -21.617 -19.518  0.00  0.00    -0.000 C 
ATOM     31  C   UNL     1      33.732 -22.458 -18.718  0.00  0.00    +0.000 C 
ENDBRANCH  23  26
ENDBRANCH  19  20
ENDBRANCH   1  19
TORSDOF 4
ENDMDL
MODEL 2
REMARK VINA RESULT:     -11.6      3.277     10.780
REMARK  Name = 208951
REMARK  4 active torsions:
REMARK  status: ('A' for Active; 'I' for Inactive)
REMARK    1  A    between atoms: N_1  and  C_19
REMARK    2  A    between atoms: N_2  and  C_11
REMARK    3  A    between atoms: C_19  and  C_20
REMARK    4  A    between atoms: C_23  and  C_26
REMARK                            x       y       z     vdW  Elec       q    Type
REMARK                         _______ _______ _______ _____ _____    ______ ____
ROOT
ATOM      1  N   UNL     1      32.426 -11.049 -21.908  0.00  0.00    +0.392 N 
ATOM      2  N   UNL     1      33.587 -13.597 -22.471  0.00  0.00    -0.309 N 
ATOM      3  C   UNL     1      32.937 -11.353 -23.250  0.00  0.00    -0.055 C 
ATOM      4  C   UNL     1      31.879 -12.265 -21.295  0.00  0.00    -0.055 C 
ATOM      5  C   UNL     1      34.047 -12.406 -23.191  0.00  0.00    +0.068 C 
ATOM      6  C   UNL     1      32.954 -13.348 -21.170  0.00  0.00    +0.068 C 
ATOM      7  H   UNL     1      33.196 -10.707 -21.332  0.00  0.00    -0.079 HD
ENDROOT
BRANCH   2  11
ATOM      8  O   UNL     1      33.782 -14.956 -25.076  0.00  0.00    -0.406 OA
ATOM      9  O   UNL     1      33.839 -15.882 -27.196  0.00  0.00    -0.223 OA
ATOM     10  N   UNL     1      34.859 -16.961 -25.399  0.00  0.00    -0.287 N 
ATOM     11  C   UNL     1      34.244 -14.819 -22.659  0.00  0.00    +0.084 C 
ATOM     12  C   UNL     1      34.324 -15.443 -23.898  0.00  0.00    +0.179 A 
ATOM     13  C   UNL     1      34.870 -15.493 -21.591  0.00  0.00    +0.018 C 
ATOM     14  C   UNL     1      34.975 -16.645 -24.071  0.00  0.00    +0.098 A 
ATOM     15  C   UNL     1      35.532 -16.724 -21.780  0.00  0.00    +0.003 C 
ATOM     16  C   UNL     1      35.591 -17.319 -23.041  0.00  0.00    +0.020 C 
ATOM     17  C   UNL     1      34.141 -15.946 -26.010  0.00  0.00    +0.419 A 
ATOM     18  H   UNL     1      35.220 -17.764 -25.839  0.00  0.00    +0.172 HD
ENDBRANCH   2  11
BRANCH   1  19
ATOM     19  C   UNL     1      31.405 -10.004 -21.973  0.00  0.00    -0.050 C 
BRANCH  19  20
ATOM     20  C   UNL     1      32.017  -8.639 -21.809  0.00  0.00    -0.043 C 
ATOM     21  C   UNL     1      32.366  -7.906 -22.936  0.00  0.00    -0.006 C 
ATOM     22  C   UNL     1      32.222  -8.129 -20.534  0.00  0.00    -0.006 C 
ATOM     23  C   UNL     1      32.932  -6.640 -22.784  0.00  0.00    -0.000 C 
ATOM     24  C   UNL     1      32.787  -6.864 -20.382  0.00  0.00    -0.000 C 
ATOM     25  C   UNL     1      33.143  -6.119 -21.507  0.00  0.00    -0.000 C 
BRANCH  23  26
ATOM     26  C   UNL     1      33.299  -5.866 -23.950  0.00  0.00    -0.000 C 
ATOM     27  C   UNL     1      34.467  -6.169 -24.649  0.00  0.00    -0.000 C 
ATOM     28  C   UNL     1      32.483  -4.817 -24.376  0.00  0.00    -0.000 C 
ATOM     29  C   UNL     1      34.821  -5.423 -25.773  0.00  0.00    -0.000 C 
ATOM     30  C   UNL     1      32.837  -4.071 -25.500  0.00  0.00    -0.000 C 
ATOM     31  C   UNL     1      34.006  -4.375 -26.199  0.00  0.00    +0.000 C 
ENDBRANCH  23  26
ENDBRANCH  19  20
ENDBRANCH   1  19
TORSDOF 4
ENDMDL
MODEL 3
REMARK VINA RESULT:     -11.5      1.828      3.127
REMARK  Name = 208951
REMARK  4 active torsions:
REMARK  status: ('A' for Active; 'I' for Inactive)
REMARK    1  A    between atoms: N_1  and  C_19
REMARK    2  A    between atoms: N_2  and  C_11
REMARK    3  A    between atoms: C_19  and  C_20
REMARK    4  A    between atoms: C_23  and  C_26
REMARK                            x       y       z     vdW  Elec       q    Type
REMARK                         _______ _______ _______ _____ _____    ______ ____
ROOT
ATOM      1  N   UNL     1      34.405 -14.941 -23.109  0.00  0.00    +0.392 N 
ATOM      2  N   UNL     1      33.232 -12.788 -21.644  0.00  0.00    -0.309 N 
ATOM      3  C   UNL     1      34.163 -13.646 -23.756  0.00  0.00    -0.055 C 
ATOM      4  C   UNL     1      34.738 -14.738 -21.694  0.00  0.00    -0.055 C 
ATOM      5  C   UNL     1      33.004 -12.904 -23.088  0.00  0.00    +0.068 C 
ATOM      6  C   UNL     1      33.597 -14.033 -20.956  0.00  0.00    +0.068 C 
ATOM      7  H   UNL     1      33.555 -15.503 -23.169  0.00  0.00    -0.079 HD
ENDROOT
BRANCH   2  11
ATOM      8  O   UNL     1      32.952  -9.995 -22.534  0.00  0.00    -0.406 OA
ATOM      9  O   UNL     1      32.829  -7.847 -23.385  0.00  0.00    -0.223 OA
ATOM     10  N   UNL     1      31.842  -8.374 -21.340  0.00  0.00    -0.287 N 
ATOM     11  C   UNL     1      32.555 -11.807 -20.910  0.00  0.00    +0.084 C 
ATOM     12  C   UNL     1      32.434 -10.494 -21.349  0.00  0.00    +0.179 A 
ATOM     13  C   UNL     1      31.948 -12.097 -19.671  0.00  0.00    +0.018 C 
ATOM     14  C   UNL     1      31.764  -9.537 -20.619  0.00  0.00    +0.098 A 
ATOM     15  C   UNL     1      31.266 -11.109 -18.932  0.00  0.00    +0.003 C 
ATOM     16  C   UNL     1      31.166  -9.800 -19.408  0.00  0.00    +0.020 C 
ATOM     17  C   UNL     1      32.557  -8.644 -22.495  0.00  0.00    +0.419 A 
ATOM     18  H   UNL     1      31.459  -7.505 -21.084  0.00  0.00    +0.172 HD
ENDBRANCH   2  11
BRANCH   1  19
ATOM     19  C   UNL     1      35.478 -15.663 -23.790  0.00  0.00    -0.050 C 
BRANCH  19  20
ATOM     20  C   UNL     1      35.186 -17.138 -23.851  0.00  0.00    -0.043 C 
ATOM     21  C   UNL     1      35.298 -17.906 -22.699  0.00  0.00    -0.006 C 
ATOM     22  C   UNL     1      34.808 -17.712 -25.057  0.00  0.00    -0.006 C 
ATOM     23  C   UNL     1      35.026 -19.273 -22.755  0.00  0.00    -0.000 C 
ATOM     24  C   UNL     1      34.536 -19.078 -25.113  0.00  0.00    -0.000 C 
ATOM     25  C   UNL     1      34.646 -19.859 -23.963  0.00  0.00    -0.000 C 
BRANCH  23  26
ATOM     26  C   UNL     1      35.137 -20.083 -21.562  0.00  0.00    -0.000 C 
ATOM     27  C   UNL     1      36.390 -20.328 -20.999  0.00  0.00    -0.000 C 
ATOM     28  C   UNL     1      33.991 -20.619 -20.972  0.00  0.00    -0.000 C 
ATOM     29  C   UNL     1      36.497 -21.109 -19.848  0.00  0.00    -0.000 C 
ATOM     30  C   UNL     1      34.099 -21.399 -19.822  0.00  0.00    -0.000 C 
ATOM     31  C   UNL     1      35.352 -21.644 -19.260  0.00  0.00    +0.000 C 
ENDBRANCH  23  26
ENDBRANCH  19  20
ENDBRANCH   1  19
TORSDOF 4
ENDMDL
MODEL 4
REMARK VINA RESULT:     -11.3      4.658     10.264
REMARK  Name = 208951
REMARK  4 active torsions:
REMARK  status: ('A' for Active; 'I' for Inactive)
REMARK    1  A    between atoms: N_1  and  C_19
REMARK    2  A    between atoms: N_2  and  C_11
REMARK    3  A    between atoms: C_19  and  C_20
REMARK    4  A    between atoms: C_23  and  C_26
REMARK                            x       y       z     vdW  Elec       q    Type
REMARK                         _______ _______ _______ _____ _____    ______ ____
ROOT
ATOM      1  N   UNL     1      35.984 -19.992 -21.543  0.00  0.00    +0.392 N 
ATOM      2  N   UNL     1      34.998 -21.474 -19.309  0.00  0.00    -0.309 N 
ATOM      3  C   UNL     1      34.653 -19.710 -20.993  0.00  0.00    -0.055 C 
ATOM      4  C   UNL     1      36.892 -20.403 -20.466  0.00  0.00    -0.055 C 
ATOM      5  C   UNL     1      34.065 -20.948 -20.310  0.00  0.00    +0.068 C 
ATOM      6  C   UNL     1      36.380 -21.665 -19.766  0.00  0.00    +0.068 C 
ATOM      7  H   UNL     1      35.907 -20.755 -22.217  0.00  0.00    -0.079 HD
ENDROOT
BRANCH   2  11
ATOM      8  O   UNL     1      36.698 -22.524 -17.146  0.00  0.00    -0.406 OA
ATOM      9  O   UNL     1      38.176 -23.258 -15.524  0.00  0.00    -0.223 OA
ATOM     10  N   UNL     1      35.933 -23.887 -15.460  0.00  0.00    -0.287 N 
ATOM     11  C   UNL     1      34.524 -22.304 -18.286  0.00  0.00    +0.084 C 
ATOM     12  C   UNL     1      35.344 -22.788 -17.275  0.00  0.00    +0.179 A 
ATOM     13  C   UNL     1      33.172 -22.700 -18.222  0.00  0.00    +0.018 C 
ATOM     14  C   UNL     1      34.866 -23.604 -16.272  0.00  0.00    +0.098 A 
ATOM     15  C   UNL     1      32.694 -23.535 -17.192  0.00  0.00    +0.003 C 
ATOM     16  C   UNL     1      33.551 -24.001 -16.193  0.00  0.00    +0.020 C 
ATOM     17  C   UNL     1      37.040 -23.238 -15.982  0.00  0.00    +0.419 A 
ATOM     18  H   UNL     1      35.915 -24.448 -14.653  0.00  0.00    +0.172 HD
ENDBRANCH   2  11
BRANCH   1  19
ATOM     19  C   UNL     1      36.511 -18.820 -22.239  0.00  0.00    -0.050 C 
BRANCH  19  20
ATOM     20  C   UNL     1      35.635 -18.440 -23.402  0.00  0.00    -0.043 C 
ATOM     21  C   UNL     1      35.391 -17.099 -23.666  0.00  0.00    -0.006 C 
ATOM     22  C   UNL     1      35.082 -19.436 -24.196  0.00  0.00    -0.006 C 
ATOM     23  C   UNL     1      34.579 -16.748 -24.745  0.00  0.00    -0.000 C 
ATOM     24  C   UNL     1      34.271 -19.085 -25.274  0.00  0.00    -0.000 C 
ATOM     25  C   UNL     1      34.019 -17.742 -25.549  0.00  0.00    -0.000 C 
BRANCH  23  26
ATOM     26  C   UNL     1      34.319 -15.354 -25.032  0.00  0.00    -0.000 C 
ATOM     27  C   UNL     1      33.839 -14.977 -26.286  0.00  0.00    -0.000 C 
ATOM     28  C   UNL     1      34.548 -14.386 -24.053  0.00  0.00    -0.000 C 
ATOM     29  C   UNL     1      33.588 -13.633 -26.562  0.00  0.00    -0.000 C 
ATOM     30  C   UNL     1      34.297 -13.042 -24.330  0.00  0.00    -0.000 C 
ATOM     31  C   UNL     1      33.817 -12.666 -25.584  0.00  0.00    +0.000 C 
ENDBRANCH  23  26
ENDBRANCH  19  20
ENDBRANCH   1  19
TORSDOF 4
ENDMDL
MODEL 5
REMARK VINA RESULT:     -11.3      6.689     12.067
REMARK  Name = 208951
REMARK  4 active torsions:
REMARK  status: ('A' for Active; 'I' for Inactive)
REMARK    1  A    between atoms: N_1  and  C_19
REMARK    2  A    between atoms: N_2  and  C_11
REMARK    3  A    between atoms: C_19  and  C_20
REMARK    4  A    between atoms: C_23  and  C_26
REMARK                            x       y       z     vdW  Elec       q    Type
REMARK                         _______ _______ _______ _____ _____    ______ ____
ROOT
ATOM      1  N   UNL     1      34.912 -22.194 -18.392  0.00  0.00    +0.392 N 
ATOM      2  N   UNL     1      35.539 -23.508 -15.934  0.00  0.00    -0.309 N 
ATOM      3  C   UNL     1      36.304 -22.508 -18.051  0.00  0.00    -0.055 C 
ATOM      4  C   UNL     1      34.021 -23.231 -17.856  0.00  0.00    -0.055 C 
ATOM      5  C   UNL     1      36.498 -22.576 -16.534  0.00  0.00    +0.068 C 
ATOM      6  C   UNL     1      34.138 -23.322 -16.332  0.00  0.00    +0.068 C 
ATOM      7  H   UNL     1      34.664 -21.298 -17.972  0.00  0.00    -0.079 HD
ENDROOT
BRANCH   2  11
ATOM      8  O   UNL     1      37.736 -25.393 -15.390  0.00  0.00    -0.406 OA
ATOM      9  O   UNL     1      39.507 -26.860 -15.142  0.00  0.00    -0.223 OA
ATOM     10  N   UNL     1      38.170 -26.292 -13.319  0.00  0.00    -0.287 N 
ATOM     11  C   UNL     1      35.796 -24.052 -14.670  0.00  0.00    +0.084 C 
ATOM     12  C   UNL     1      36.838 -24.940 -14.435  0.00  0.00    +0.179 A 
ATOM     13  C   UNL     1      35.004 -23.726 -13.550  0.00  0.00    +0.018 C 
ATOM     14  C   UNL     1      37.083 -25.468 -13.186  0.00  0.00    +0.098 A 
ATOM     15  C   UNL     1      35.263 -24.273 -12.277  0.00  0.00    +0.003 C 
ATOM     16  C   UNL     1      36.321 -25.162 -12.082  0.00  0.00    +0.020 C 
ATOM     17  C   UNL     1      38.567 -26.250 -14.646  0.00  0.00    +0.419 A 
ATOM     18  H   UNL     1      38.591 -26.818 -12.603  0.00  0.00    +0.172 HD
ENDBRANCH   2  11
BRANCH   1  19
ATOM     19  C   UNL     1      34.752 -22.079 -19.840  0.00  0.00    -0.050 C 
BRANCH  19  20
ATOM     20  C   UNL     1      35.557 -20.931 -20.385  0.00  0.00    -0.043 C 
ATOM     21  C   UNL     1      35.100 -20.243 -21.502  0.00  0.00    -0.006 C 
ATOM     22  C   UNL     1      36.746 -20.573 -19.764  0.00  0.00    -0.006 C 
ATOM     23  C   UNL     1      35.848 -19.178 -22.006  0.00  0.00    -0.000 C 
ATOM     24  C   UNL     1      37.493 -19.509 -20.268  0.00  0.00    -0.000 C 
ATOM     25  C   UNL     1      37.044 -18.812 -21.389  0.00  0.00    -0.000 C 
BRANCH  23  26
ATOM     26  C   UNL     1      35.381 -18.453 -23.168  0.00  0.00    -0.000 C 
ATOM     27  C   UNL     1      34.715 -19.128 -24.190  0.00  0.00    -0.000 C 
ATOM     28  C   UNL     1      35.598 -17.078 -23.265  0.00  0.00    -0.000 C 
ATOM     29  C   UNL     1      34.265 -18.428 -25.310  0.00  0.00    -0.000 C 
ATOM     30  C   UNL     1      35.149 -16.379 -24.385  0.00  0.00    -0.000 C 
ATOM     31  C   UNL     1      34.481 -17.054 -25.407  0.00  0.00    +0.000 C 
ENDBRANCH  23  26
ENDBRANCH  19  20
ENDBRANCH   1  19
TORSDOF 4
ENDMDL
MODEL 6
REMARK VINA RESULT:     -11.0      4.779      7.520
REMARK  Name = 208951
REMARK  4 active torsions:
REMARK  status: ('A' for Active; 'I' for Inactive)
REMARK    1  A    between atoms: N_1  and  C_19
REMARK    2  A    between atoms: N_2  and  C_11
REMARK    3  A    between atoms: C_19  and  C_20
REMARK    4  A    between atoms: C_23  and  C_26
REMARK                            x       y       z     vdW  Elec       q    Type
REMARK                         _______ _______ _______ _____ _____    ______ ____
ROOT
ATOM      1  N   UNL     1      32.401  -9.352 -21.776  0.00  0.00    +0.392 N 
ATOM      2  N   UNL     1      33.072  -7.156 -23.475  0.00  0.00    -0.309 N 
ATOM      3  C   UNL     1      32.974  -8.125 -21.212  0.00  0.00    -0.055 C 
ATOM      4  C   UNL     1      31.559  -9.025 -22.933  0.00  0.00    -0.055 C 
ATOM      5  C   UNL     1      33.835  -7.394 -22.245  0.00  0.00    +0.068 C 
ATOM      6  C   UNL     1      32.373  -8.325 -24.024  0.00  0.00    +0.068 C 
ATOM      7  H   UNL     1      33.161  -9.960 -22.084  0.00  0.00    -0.079 HD
ENDROOT
BRANCH   2  11
ATOM      8  O   UNL     1      31.602  -4.639 -23.888  0.00  0.00    -0.406 OA
ATOM      9  O   UNL     1      30.323  -2.720 -24.085  0.00  0.00    -0.223 OA
ATOM     10  N   UNL     1      32.266  -2.990 -25.345  0.00  0.00    -0.287 N 
ATOM     11  C   UNL     1      33.483  -6.158 -24.366  0.00  0.00    +0.084 C 
ATOM     12  C   UNL     1      32.774  -4.977 -24.545  0.00  0.00    +0.179 A 
ATOM     13  C   UNL     1      34.654  -6.294 -25.139  0.00  0.00    +0.018 C 
ATOM     14  C   UNL     1      33.189  -4.000 -25.424  0.00  0.00    +0.098 A 
ATOM     15  C   UNL     1      35.068  -5.288 -26.037  0.00  0.00    +0.003 C 
ATOM     16  C   UNL     1      34.327  -4.114 -26.188  0.00  0.00    +0.020 C 
ATOM     17  C   UNL     1      31.307  -3.370 -24.421  0.00  0.00    +0.419 A 
ATOM     18  H   UNL     1      32.281  -2.148 -25.854  0.00  0.00    +0.172 HD
ENDBRANCH   2  11
BRANCH   1  19
ATOM     19  C   UNL     1      31.626 -10.068 -20.764  0.00  0.00    -0.050 C 
BRANCH  19  20
ATOM     20  C   UNL     1      32.047 -11.510 -20.678  0.00  0.00    -0.043 C 
ATOM     21  C   UNL     1      32.616 -12.124 -21.787  0.00  0.00    -0.006 C 
ATOM     22  C   UNL     1      31.863 -12.208 -19.492  0.00  0.00    -0.006 C 
ATOM     23  C   UNL     1      33.008 -13.461 -21.706  0.00  0.00    -0.000 C 
ATOM     24  C   UNL     1      32.254 -13.544 -19.412  0.00  0.00    -0.000 C 
ATOM     25  C   UNL     1      32.826 -14.170 -20.519  0.00  0.00    -0.000 C 
BRANCH  23  26
ATOM     26  C   UNL     1      33.603 -14.111 -22.854  0.00  0.00    -0.000 C 
ATOM     27  C   UNL     1      34.635 -15.032 -22.676  0.00  0.00    -0.000 C 
ATOM     28  C   UNL     1      33.144 -13.817 -24.138  0.00  0.00    -0.000 C 
ATOM     29  C   UNL     1      35.208 -15.659 -23.782  0.00  0.00    -0.000 C 
ATOM     30  C   UNL     1      33.718 -14.443 -25.244  0.00  0.00    -0.000 C 
ATOM     31  C   UNL     1      34.750 -15.365 -25.066  0.00  0.00    +0.000 C 
ENDBRANCH  23  26
ENDBRANCH  19  20
ENDBRANCH   1  19
TORSDOF 4
ENDMDL
MODEL 7
REMARK VINA RESULT:     -11.0      6.941     12.265
REMARK  Name = 208951
REMARK  4 active torsions:
REMARK  status: ('A' for Active; 'I' for Inactive)
REMARK    1  A    between atoms: N_1  and  C_19
REMARK    2  A    between atoms: N_2  and  C_11
REMARK    3  A    between atoms: C_19  and  C_20
REMARK    4  A    between atoms: C_23  and  C_26
REMARK                            x       y       z     vdW  Elec       q    Type
REMARK                         _______ _______ _______ _____ _____    ______ ____
ROOT
ATOM      1  N   UNL     1      36.522 -21.784 -18.050  0.00  0.00    +0.392 N 
ATOM      2  N   UNL     1      36.421 -23.246 -15.598  0.00  0.00    -0.309 N 
ATOM      3  C   UNL     1      37.755 -22.089 -17.315  0.00  0.00    -0.055 C 
ATOM      4  C   UNL     1      35.554 -22.873 -17.875  0.00  0.00    -0.055 C 
ATOM      5  C   UNL     1      37.478 -22.254 -15.819  0.00  0.00    +0.068 C 
ATOM      6  C   UNL     1      35.202 -23.064 -16.397  0.00  0.00    +0.068 C 
ATOM      7  H   UNL     1      36.121 -20.923 -17.676  0.00  0.00    -0.079 HD
ENDROOT
BRANCH   2  11
ATOM      8  O   UNL     1      38.452 -25.063 -14.483  0.00  0.00    -0.406 OA
ATOM      9  O   UNL     1      40.148 -26.463 -13.762  0.00  0.00    -0.223 OA
ATOM     10  N   UNL     1      38.269 -26.089 -12.434  0.00  0.00    -0.287 N 
ATOM     11  C   UNL     1      36.301 -23.867 -14.349  0.00  0.00    +0.084 C 
ATOM     12  C   UNL     1      37.272 -24.721 -13.842  0.00  0.00    +0.179 A 
ATOM     13  C   UNL     1      35.177 -23.658 -13.525  0.00  0.00    +0.018 C 
ATOM     14  C   UNL     1      37.144 -25.327 -12.611  0.00  0.00    +0.098 A 
ATOM     15  C   UNL     1      35.055 -24.284 -12.267  0.00  0.00    +0.003 C 
ATOM     16  C   UNL     1      36.054 -25.136 -11.793  0.00  0.00    +0.020 C 
ATOM     17  C   UNL     1      39.061 -25.934 -13.560  0.00  0.00    +0.419 A 
ATOM     18  H   UNL     1      38.476 -26.645 -11.650  0.00  0.00    +0.172 HD
ENDBRANCH   2  11
BRANCH   1  19
ATOM     19  C   UNL     1      36.808 -21.575 -19.468  0.00  0.00    -0.050 C 
BRANCH  19  20
ATOM     20  C   UNL     1      35.613 -21.008 -20.185  0.00  0.00    -0.043 C 
ATOM     21  C   UNL     1      35.802 -20.084 -21.205  0.00  0.00    -0.006 C 
ATOM     22  C   UNL     1      34.338 -21.417 -19.819  0.00  0.00    -0.006 C 
ATOM     23  C   UNL     1      34.693 -19.560 -21.870  0.00  0.00    -0.000 C 
ATOM     24  C   UNL     1      33.231 -20.892 -20.483  0.00  0.00    -0.000 C 
ATOM     25  C   UNL     1      33.408 -19.963 -21.508  0.00  0.00    -0.000 C 
BRANCH  23  26
ATOM     26  C   UNL     1      34.876 -18.597 -22.935  0.00  0.00    -0.000 C 
ATOM     27  C   UNL     1      34.522 -18.928 -24.242  0.00  0.00    -0.000 C 
ATOM     28  C   UNL     1      35.407 -17.338 -22.653  0.00  0.00    -0.000 C 
ATOM     29  C   UNL     1      34.699 -18.001 -25.269  0.00  0.00    -0.000 C 
ATOM     30  C   UNL     1      35.584 -16.411 -23.680  0.00  0.00    -0.000 C 
ATOM     31  C   UNL     1      35.229 -16.742 -24.988  0.00  0.00    +0.000 C 
ENDBRANCH  23  26
ENDBRANCH  19  20
ENDBRANCH   1  19
TORSDOF 4
ENDMDL
MODEL 8
REMARK VINA RESULT:     -10.8      1.541      2.425
REMARK  Name = 208951
REMARK  4 active torsions:
REMARK  status: ('A' for Active; 'I' for Inactive)
REMARK    1  A    between atoms: N_1  and  C_19
REMARK    2  A    between atoms: N_2  and  C_11
REMARK    3  A    between atoms: C_19  and  C_20
REMARK    4  A    between atoms: C_23  and  C_26
REMARK                            x       y       z     vdW  Elec       q    Type
REMARK                         _______ _______ _______ _____ _____    ______ ____
ROOT
ATOM      1  N   UNL     1      34.546 -16.424 -23.999  0.00  0.00    +0.392 N 
ATOM      2  N   UNL     1      33.687 -13.759 -23.436  0.00  0.00    -0.309 N 
ATOM      3  C   UNL     1      34.264 -15.487 -25.093  0.00  0.00    -0.055 C 
ATOM      4  C   UNL     1      35.091 -15.697 -22.847  0.00  0.00    -0.055 C 
ATOM      5  C   UNL     1      33.246 -14.429 -24.663  0.00  0.00    +0.068 C 
ATOM      6  C   UNL     1      34.100 -14.646 -22.341  0.00  0.00    +0.068 C 
ATOM      7  H   UNL     1      33.675 -16.877 -23.720  0.00  0.00    -0.079 HD
ENDROOT
BRANCH   2  11
ATOM      8  O   UNL     1      34.843 -11.216 -24.369  0.00  0.00    -0.406 OA
ATOM      9  O   UNL     1      35.879  -9.319 -25.192  0.00  0.00    -0.223 OA
ATOM     10  N   UNL     1      33.995  -9.148 -23.831  0.00  0.00    -0.287 N 
ATOM     11  C   UNL     1      33.165 -12.503 -23.103  0.00  0.00    +0.084 C 
ATOM     12  C   UNL     1      33.726 -11.316 -23.555  0.00  0.00    +0.179 A 
ATOM     13  C   UNL     1      32.026 -12.371 -22.283  0.00  0.00    +0.018 C 
ATOM     14  C   UNL     1      33.202 -10.086 -23.221  0.00  0.00    +0.098 A 
ATOM     15  C   UNL     1      31.499 -11.107 -21.948  0.00  0.00    +0.003 C 
ATOM     16  C   UNL     1      32.092  -9.935 -22.422  0.00  0.00    +0.020 C 
ATOM     17  C   UNL     1      34.985  -9.825 -24.525  0.00  0.00    +0.419 A 
ATOM     18  H   UNL     1      33.880  -8.172 -23.785  0.00  0.00    +0.172 HD
ENDBRANCH   2  11
BRANCH   1  19
ATOM     19  C   UNL     1      35.478 -17.461 -24.439  0.00  0.00    -0.050 C 
BRANCH  19  20
ATOM     20  C   UNL     1      36.066 -18.195 -23.265  0.00  0.00    -0.043 C 
ATOM     21  C   UNL     1      35.254 -19.020 -22.497  0.00  0.00    -0.006 C 
ATOM     22  C   UNL     1      37.413 -18.039 -22.964  0.00  0.00    -0.006 C 
ATOM     23  C   UNL     1      35.801 -19.701 -21.409  0.00  0.00    -0.000 C 
ATOM     24  C   UNL     1      37.958 -18.720 -21.877  0.00  0.00    -0.000 C 
ATOM     25  C   UNL     1      37.153 -19.550 -21.099  0.00  0.00    -0.000 C 
BRANCH  23  26
ATOM     26  C   UNL     1      34.966 -20.565 -20.603  0.00  0.00    -0.000 C 
ATOM     27  C   UNL     1      35.547 -21.548 -19.801  0.00  0.00    -0.000 C 
ATOM     28  C   UNL     1      33.578 -20.415 -20.626  0.00  0.00    -0.000 C 
ATOM     29  C   UNL     1      34.742 -22.380 -19.024  0.00  0.00    -0.000 C 
ATOM     30  C   UNL     1      32.774 -21.247 -19.849  0.00  0.00    -0.000 C 
ATOM     31  C   UNL     1      33.356 -22.230 -19.047  0.00  0.00    +0.000 C 
ENDBRANCH  23  26
ENDBRANCH  19  20
ENDBRANCH   1  19
TORSDOF 4
ENDMDL
MODEL 9
REMARK VINA RESULT:     -10.7      3.659     11.259
REMARK  Name = 208951
REMARK  4 active torsions:
REMARK  status: ('A' for Active; 'I' for Inactive)
REMARK    1  A    between atoms: N_1  and  C_19
REMARK    2  A    between atoms: N_2  and  C_11
REMARK    3  A    between atoms: C_19  and  C_20
REMARK    4  A    between atoms: C_23  and  C_26
REMARK                            x       y       z     vdW  Elec       q    Type
REMARK                         _______ _______ _______ _____ _____    ______ ____
ROOT
ATOM      1  N   UNL     1      32.679  -9.632 -22.661  0.00  0.00    +0.392 N 
ATOM      2  N   UNL     1      33.466 -12.160 -23.734  0.00  0.00    -0.309 N 
ATOM      3  C   UNL     1      32.405 -10.871 -21.923  0.00  0.00    -0.055 C 
ATOM      4  C   UNL     1      33.937  -9.763 -23.407  0.00  0.00    -0.055 C 
ATOM      5  C   UNL     1      32.282 -12.063 -22.874  0.00  0.00    +0.068 C 
ATOM      6  C   UNL     1      33.864 -10.918 -24.409  0.00  0.00    +0.068 C 
ATOM      7  H   UNL     1      31.920  -9.469 -23.323  0.00  0.00    -0.079 HD
ENDROOT
BRANCH   2  11
ATOM      8  O   UNL     1      34.513 -14.508 -22.297  0.00  0.00    -0.406 OA
ATOM      9  O   UNL     1      35.327 -16.251 -21.012  0.00  0.00    -0.223 OA
ATOM     10  N   UNL     1      35.022 -16.508 -23.309  0.00  0.00    -0.287 N 
ATOM     11  C   UNL     1      33.774 -13.375 -24.358  0.00  0.00    +0.084 C 
ATOM     12  C   UNL     1      34.267 -14.470 -23.661  0.00  0.00    +0.179 A 
ATOM     13  C   UNL     1      33.599 -13.559 -25.745  0.00  0.00    +0.018 C 
ATOM     14  C   UNL     1      34.566 -15.661 -24.286  0.00  0.00    +0.098 A 
ATOM     15  C   UNL     1      33.909 -14.782 -26.374  0.00  0.00    +0.003 C 
ATOM     16  C   UNL     1      34.402 -15.860 -25.637  0.00  0.00    +0.020 C 
ATOM     17  C   UNL     1      34.992 -15.817 -22.108  0.00  0.00    +0.419 A 
ATOM     18  H   UNL     1      35.317 -17.438 -23.437  0.00  0.00    +0.172 HD
ENDBRANCH   2  11
BRANCH   1  19
ATOM     19  C   UNL     1      32.741  -8.493 -21.747  0.00  0.00    -0.050 C 
BRANCH  19  20
ATOM     20  C   UNL     1      32.414  -7.209 -22.458  0.00  0.00    -0.043 C 
ATOM     21  C   UNL     1      33.188  -6.809 -23.540  0.00  0.00    -0.006 C 
ATOM     22  C   UNL     1      31.342  -6.440 -22.025  0.00  0.00    -0.006 C 
ATOM     23  C   UNL     1      32.884  -5.618 -24.200  0.00  0.00    -0.000 C 
ATOM     24  C   UNL     1      31.038  -5.250 -22.685  0.00  0.00    -0.000 C 
ATOM     25  C   UNL     1      31.809  -4.839 -23.772  0.00  0.00    -0.000 C 
BRANCH  23  26
ATOM     26  C   UNL     1      33.682  -5.192 -25.329  0.00  0.00    -0.000 C 
ATOM     27  C   UNL     1      33.141  -4.324 -26.278  0.00  0.00    -0.000 C 
ATOM     28  C   UNL     1      34.993  -5.649 -25.468  0.00  0.00    -0.000 C 
ATOM     29  C   UNL     1      33.911  -3.913 -27.366  0.00  0.00    -0.000 C 
ATOM     30  C   UNL     1      35.762  -5.238 -26.557  0.00  0.00    -0.000 C 
ATOM     31  C   UNL     1      35.221  -4.369 -27.505  0.00  0.00    +0.000 C 
ENDBRANCH  23  26
ENDBRANCH  19  20
ENDBRANCH   1  19
TORSDOF 4
ENDMDL
