MODEL 1
REMARK VINA RESULT:     -11.3      0.000      0.000
REMARK  Name = 60795
REMARK  7 active torsions:
REMARK  status: ('A' for Active; 'I' for Inactive)
REMARK    1  A    between atoms: C_1  and  N_2
REMARK    2  A    between atoms: C_1  and  C_17
REMARK    3  A    between atoms: N_3  and  C_11
REMARK    4  A    between atoms: C_17  and  C_18
REMARK    5  A    between atoms: C_18  and  C_19
REMARK    6  A    between atoms: C_19  and  O_20
REMARK    7  A    between atoms: O_20  and  C_26
REMARK                            x       y       z     vdW  Elec       q    Type
REMARK                         _______ _______ _______ _____ _____    ______ ____
ROOT
ATOM      1  C   UNL     1      35.972 -21.663 -19.215  0.00  0.00    -0.077 C 
ENDROOT
BRANCH   1   2
ATOM      2  N   UNL     1      35.931 -20.921 -20.475  0.00  0.00    +0.389 N 
ATOM      3  N   UNL     1      35.465 -18.658 -22.155  0.00  0.00    -0.311 N 
ATOM      4  C   UNL     1      34.560 -20.486 -20.772  0.00  0.00    -0.055 C 
ATOM      5  C   UNL     1      36.823 -19.757 -20.417  0.00  0.00    -0.055 C 
ATOM      6  C   UNL     1      34.494 -19.759 -22.117  0.00  0.00    +0.068 C 
ATOM      7  C   UNL     1      36.831 -19.003 -21.750  0.00  0.00    +0.068 C 
ATOM      8  H   UNL     1      36.248 -21.542 -21.219  0.00  0.00    -0.080 HD
BRANCH   3  11
ATOM      9 CL   UNL     1      35.112 -15.903 -20.995  0.00  0.00    -0.080 Cl
ATOM     10 CL   UNL     1      34.633 -13.623 -23.202  0.00  0.00    -0.081 Cl
ATOM     11  C   UNL     1      35.255 -17.627 -23.077  0.00  0.00    +0.059 C 
ATOM     12  C   UNL     1      35.071 -16.283 -22.689  0.00  0.00    +0.081 C 
ATOM     13  C   UNL     1      35.222 -17.923 -24.456  0.00  0.00    +0.015 C 
ATOM     14  C   UNL     1      34.862 -15.280 -23.637  0.00  0.00    +0.069 C 
ATOM     15  C   UNL     1      35.014 -16.922 -25.404  0.00  0.00    +0.002 C 
ATOM     16  C   UNL     1      34.834 -15.600 -24.994  0.00  0.00    +0.012 C 
ENDBRANCH   3  11
ENDBRANCH   1   2
BRANCH   1  17
ATOM     17  C   UNL     1      37.163 -21.211 -18.372  0.00  0.00    -0.019 C 
BRANCH  17  18
ATOM     18  C   UNL     1      37.481 -22.227 -17.276  0.00  0.00    +0.045 C 
BRANCH  18  19
ATOM     19  C   UNL     1      36.327 -22.376 -16.294  0.00  0.00    +0.205 C 
BRANCH  19  20
ATOM     20  O   UNL     1      35.698 -23.643 -16.475  0.00  0.00    -0.475 OA
BRANCH  20  26
ATOM     21  O   UNL     1      28.773 -22.309 -17.321  0.00  0.00    -0.275 OA
ATOM     22  N   UNL     1      31.013 -22.703 -17.008  0.00  0.00    -0.284 N 
ATOM     23  C   UNL     1      31.784 -24.027 -15.119  0.00  0.00    -0.008 C 
ATOM     24  C   UNL     1      30.378 -24.062 -14.593  0.00  0.00    +0.037 C 
ATOM     25  C   UNL     1      32.060 -23.312 -16.292  0.00  0.00    +0.049 C 
ATOM     26  C   UNL     1      34.416 -23.767 -16.033  0.00  0.00    +0.140 C 
ATOM     27  C   UNL     1      29.371 -24.003 -15.732  0.00  0.00    +0.090 C 
ATOM     28  C   UNL     1      33.375 -23.173 -16.744  0.00  0.00    +0.051 C 
ATOM     29  C   UNL     1      32.838 -24.608 -14.406  0.00  0.00    +0.000 C 
ATOM     30  C   UNL     1      34.149 -24.485 -14.868  0.00  0.00    +0.037 C 
ATOM     31  C   UNL     1      29.675 -22.905 -16.733  0.00  0.00    +0.226 C 
ATOM     32  H   UNL     1      31.250 -22.098 -17.748  0.00  0.00    +0.155 HD
ENDBRANCH  20  26
ENDBRANCH  19  20
ENDBRANCH  18  19
ENDBRANCH  17  18
ENDBRANCH   1  17
TORSDOF 7
ENDMDL
MODEL 2
REMARK VINA RESULT:     -11.0      3.516      6.142
REMARK  Name = 60795
REMARK  7 active torsions:
REMARK  status: ('A' for Active; 'I' for Inactive)
REMARK    1  A    between atoms: C_1  and  N_2
REMARK    2  A    between atoms: C_1  and  C_17
REMARK    3  A    between atoms: N_3  and  C_11
REMARK    4  A    between atoms: C_17  and  C_18
REMARK    5  A    between atoms: C_18  and  C_19
REMARK    6  A    between atoms: C_19  and  O_20
REMARK    7  A    between atoms: O_20  and  C_26
REMARK                            x       y       z     vdW  Elec       q    Type
REMARK                         _______ _______ _______ _____ _____    ______ ____
ROOT
ATOM      1  C   UNL     1      34.945 -16.715 -25.348  0.00  0.00    -0.077 C 
ENDROOT
BRANCH   1   2
ATOM      2  N   UNL     1      34.777 -15.322 -24.940  0.00  0.00    +0.389 N 
ATOM      3  N   UNL     1      33.540 -13.132 -23.585  0.00  0.00    -0.311 N 
ATOM      4  C   UNL     1      33.481 -14.804 -25.394  0.00  0.00    -0.055 C 
ATOM      5  C   UNL     1      34.882 -15.196 -23.481  0.00  0.00    -0.055 C 
ATOM      6  C   UNL     1      33.317 -13.329 -25.023  0.00  0.00    +0.068 C 
ATOM      7  C   UNL     1      34.763 -13.733 -23.044  0.00  0.00    +0.068 C 
ATOM      8  H   UNL     1      35.520 -14.772 -25.371  0.00  0.00    -0.080 HD
BRANCH   3  11
ATOM      9 CL   UNL     1      32.144 -13.540 -20.949  0.00  0.00    -0.080 Cl
ATOM     10 CL   UNL     1      30.966 -10.838 -19.678  0.00  0.00    -0.081 Cl
ATOM     11  C   UNL     1      33.010 -11.983 -22.988  0.00  0.00    +0.059 C 
ATOM     12  C   UNL     1      32.326 -12.012 -21.753  0.00  0.00    +0.081 C 
ATOM     13  C   UNL     1      33.153 -10.736 -23.631  0.00  0.00    +0.015 C 
ATOM     14  C   UNL     1      31.809 -10.845 -21.189  0.00  0.00    +0.069 C 
ATOM     15  C   UNL     1      32.638  -9.570 -23.066  0.00  0.00    +0.002 C 
ATOM     16  C   UNL     1      31.965  -9.624 -21.845  0.00  0.00    +0.012 C 
ENDBRANCH   3  11
ENDBRANCH   1   2
BRANCH   1  17
ATOM     17  C   UNL     1      35.306 -17.582 -24.144  0.00  0.00    -0.019 C 
BRANCH  17  18
ATOM     18  C   UNL     1      34.874 -19.032 -24.356  0.00  0.00    +0.045 C 
BRANCH  18  19
ATOM     19  C   UNL     1      35.266 -19.915 -23.178  0.00  0.00    +0.205 C 
BRANCH  19  20
ATOM     20  O   UNL     1      34.296 -19.796 -22.140  0.00  0.00    -0.475 OA
BRANCH  20  26
ATOM     21  O   UNL     1      31.616 -23.520 -16.718  0.00  0.00    -0.275 OA
ATOM     22  N   UNL     1      32.494 -22.275 -18.436  0.00  0.00    -0.284 N 
ATOM     23  C   UNL     1      34.903 -22.081 -18.717  0.00  0.00    -0.008 C 
ATOM     24  C   UNL     1      35.095 -22.817 -17.423  0.00  0.00    +0.037 C 
ATOM     25  C   UNL     1      33.603 -21.801 -19.160  0.00  0.00    +0.049 C 
ATOM     26  C   UNL     1      34.492 -20.544 -21.020  0.00  0.00    +0.140 C 
ATOM     27  C   UNL     1      33.954 -23.793 -17.179  0.00  0.00    +0.090 C 
ATOM     28  C   UNL     1      33.396 -21.025 -20.304  0.00  0.00    +0.051 C 
ATOM     29  C   UNL     1      35.994 -21.583 -19.435  0.00  0.00    +0.000 C 
ATOM     30  C   UNL     1      35.788 -20.824 -20.589  0.00  0.00    +0.037 C 
ATOM     31  C   UNL     1      32.587 -23.169 -17.387  0.00  0.00    +0.226 C 
ATOM     32  H   UNL     1      31.600 -21.951 -18.693  0.00  0.00    +0.155 HD
ENDBRANCH  20  26
ENDBRANCH  19  20
ENDBRANCH  18  19
ENDBRANCH  17  18
ENDBRANCH   1  17
TORSDOF 7
ENDMDL
MODEL 3
REMARK VINA RESULT:     -11.0      3.301      6.050
REMARK  Name = 60795
REMARK  7 active torsions:
REMARK  status: ('A' for Active; 'I' for Inactive)
REMARK    1  A    between atoms: C_1  and  N_2
REMARK    2  A    between atoms: C_1  and  C_17
REMARK    3  A    between atoms: N_3  and  C_11
REMARK    4  A    between atoms: C_17  and  C_18
REMARK    5  A    between atoms: C_18  and  C_19
REMARK    6  A    between atoms: C_19  and  O_20
REMARK    7  A    between atoms: O_20  and  C_26
REMARK                            x       y       z     vdW  Elec       q    Type
REMARK                         _______ _______ _______ _____ _____    ______ ____
ROOT
ATOM      1  C   UNL     1      35.319 -17.268 -24.561  0.00  0.00    -0.077 C 
ENDROOT
BRANCH   1   2
ATOM      2  N   UNL     1      35.130 -15.846 -24.276  0.00  0.00    +0.389 N 
ATOM      3  N   UNL     1      33.743 -13.541 -23.315  0.00  0.00    -0.311 N 
ATOM      4  C   UNL     1      33.963 -15.327 -24.999  0.00  0.00    -0.055 C 
ATOM      5  C   UNL     1      34.962 -15.627 -22.834  0.00  0.00    -0.055 C 
ATOM      6  C   UNL     1      33.788 -13.827 -24.755  0.00  0.00    +0.068 C 
ATOM      7  C   UNL     1      34.819 -14.136 -22.517  0.00  0.00    +0.068 C 
ATOM      8  H   UNL     1      35.961 -15.346 -24.590  0.00  0.00    -0.080 HD
BRANCH   3  11
ATOM      9 CL   UNL     1      32.181 -13.660 -20.745  0.00  0.00    -0.080 Cl
ATOM     10 CL   UNL     1      30.874 -10.854 -19.896  0.00  0.00    -0.081 Cl
ATOM     11  C   UNL     1      33.154 -12.342 -22.900  0.00  0.00    +0.059 C 
ATOM     12  C   UNL     1      32.390 -12.237 -21.718  0.00  0.00    +0.081 C 
ATOM     13  C   UNL     1      33.319 -11.179 -23.682  0.00  0.00    +0.015 C 
ATOM     14  C   UNL     1      31.816 -11.023 -21.336  0.00  0.00    +0.069 C 
ATOM     15  C   UNL     1      32.746  -9.966 -23.299  0.00  0.00    +0.002 C 
ATOM     16  C   UNL     1      31.994  -9.888 -22.127  0.00  0.00    +0.012 C 
ENDBRANCH   3  11
ENDBRANCH   1   2
BRANCH   1  17
ATOM     17  C   UNL     1      35.737 -18.012 -23.294  0.00  0.00    -0.019 C 
BRANCH  17  18
ATOM     18  C   UNL     1      35.017 -19.355 -23.178  0.00  0.00    +0.045 C 
BRANCH  18  19
ATOM     19  C   UNL     1      34.731 -19.717 -21.727  0.00  0.00    +0.205 C 
BRANCH  19  20
ATOM     20  O   UNL     1      35.756 -20.575 -21.231  0.00  0.00    -0.475 OA
BRANCH  20  26
ATOM     21  O   UNL     1      37.976 -23.130 -14.986  0.00  0.00    -0.275 OA
ATOM     22  N   UNL     1      37.259 -22.354 -17.026  0.00  0.00    -0.284 N 
ATOM     23  C   UNL     1      34.946 -22.650 -17.717  0.00  0.00    -0.008 C 
ATOM     24  C   UNL     1      34.705 -23.485 -16.493  0.00  0.00    +0.037 C 
ATOM     25  C   UNL     1      36.230 -22.145 -17.961  0.00  0.00    +0.049 C 
ATOM     26  C   UNL     1      35.493 -21.254 -20.080  0.00  0.00    +0.140 C 
ATOM     27  C   UNL     1      35.607 -23.044 -15.350  0.00  0.00    +0.090 C 
ATOM     28  C   UNL     1      36.508 -21.456 -19.145  0.00  0.00    +0.051 C 
ATOM     29  C   UNL     1      33.940 -22.453 -18.668  0.00  0.00    +0.000 C 
ATOM     30  C   UNL     1      34.211 -21.748 -19.842  0.00  0.00    +0.037 C 
ATOM     31  C   UNL     1      37.056 -22.886 -15.767  0.00  0.00    +0.226 C 
ATOM     32  H   UNL     1      38.177 -22.108 -17.284  0.00  0.00    +0.155 HD
ENDBRANCH  20  26
ENDBRANCH  19  20
ENDBRANCH  18  19
ENDBRANCH  17  18
ENDBRANCH   1  17
TORSDOF 7
ENDMDL
MODEL 4
REMARK VINA RESULT:     -10.9      7.394     11.405
REMARK  Name = 60795
REMARK  7 active torsions:
REMARK  status: ('A' for Active; 'I' for Inactive)
REMARK    1  A    between atoms: C_1  and  N_2
REMARK    2  A    between atoms: C_1  and  C_17
REMARK    3  A    between atoms: N_3  and  C_11
REMARK    4  A    between atoms: C_17  and  C_18
REMARK    5  A    between atoms: C_18  and  C_19
REMARK    6  A    between atoms: C_19  and  O_20
REMARK    7  A    between atoms: O_20  and  C_26
REMARK                            x       y       z     vdW  Elec       q    Type
REMARK                         _______ _______ _______ _____ _____    ______ ____
ROOT
ATOM      1  C   UNL     1      31.833 -10.628 -20.264  0.00  0.00    -0.077 C 
ENDROOT
BRANCH   1   2
ATOM      2  N   UNL     1      32.417  -9.666 -21.199  0.00  0.00    +0.389 N 
ATOM      3  N   UNL     1      32.508  -7.281 -22.769  0.00  0.00    -0.311 N 
ATOM      4  C   UNL     1      31.572  -9.529 -22.391  0.00  0.00    -0.055 C 
ATOM      5  C   UNL     1      32.586  -8.359 -20.554  0.00  0.00    -0.055 C 
ATOM      6  C   UNL     1      32.201  -8.569 -23.403  0.00  0.00    +0.068 C 
ATOM      7  C   UNL     1      33.248  -7.357 -21.505  0.00  0.00    +0.068 C 
ATOM      8  H   UNL     1      33.333 -10.014 -21.482  0.00  0.00    -0.080 HD
BRANCH   3  11
ATOM      9 CL   UNL     1      30.633  -4.989 -22.228  0.00  0.00    -0.080 Cl
ATOM     10 CL   UNL     1      31.064  -2.478 -24.180  0.00  0.00    -0.081 Cl
ATOM     11  C   UNL     1      32.657  -6.160 -23.592  0.00  0.00    +0.059 C 
ATOM     12  C   UNL     1      31.852  -5.008 -23.464  0.00  0.00    +0.081 C 
ATOM     13  C   UNL     1      33.645  -6.163 -24.599  0.00  0.00    +0.015 C 
ATOM     14  C   UNL     1      32.029  -3.908 -24.306  0.00  0.00    +0.069 C 
ATOM     15  C   UNL     1      33.822  -5.064 -25.439  0.00  0.00    +0.002 C 
ATOM     16  C   UNL     1      33.014  -3.937 -25.292  0.00  0.00    +0.012 C 
ENDBRANCH   3  11
ENDBRANCH   1   2
BRANCH   1  17
ATOM     17  C   UNL     1      31.321 -11.855 -21.016  0.00  0.00    -0.019 C 
BRANCH  17  18
ATOM     18  C   UNL     1      32.421 -12.902 -21.180  0.00  0.00    +0.045 C 
BRANCH  18  19
ATOM     19  C   UNL     1      32.843 -13.052 -22.636  0.00  0.00    +0.205 C 
BRANCH  19  20
ATOM     20  O   UNL     1      34.237 -13.346 -22.708  0.00  0.00    -0.475 OA
BRANCH  20  26
ATOM     21  O   UNL     1      36.279 -19.810 -20.588  0.00  0.00    -0.275 OA
ATOM     22  N   UNL     1      35.669 -17.711 -21.291  0.00  0.00    -0.284 N 
ATOM     23  C   UNL     1      35.300 -17.256 -23.651  0.00  0.00    -0.008 C 
ATOM     24  C   UNL     1      35.788 -18.638 -23.976  0.00  0.00    +0.037 C 
ATOM     25  C   UNL     1      35.295 -16.826 -22.318  0.00  0.00    +0.049 C 
ATOM     26  C   UNL     1      34.585 -14.626 -23.014  0.00  0.00    +0.140 C 
ATOM     27  C   UNL     1      35.481 -19.603 -22.840  0.00  0.00    +0.090 C 
ATOM     28  C   UNL     1      34.948 -15.510 -21.999  0.00  0.00    +0.051 C 
ATOM     29  C   UNL     1      34.947 -16.357 -24.663  0.00  0.00    +0.000 C 
ATOM     30  C   UNL     1      34.582 -15.048 -24.343  0.00  0.00    +0.037 C 
ATOM     31  C   UNL     1      35.882 -19.062 -21.481  0.00  0.00    +0.226 C 
ATOM     32  H   UNL     1      35.786 -17.345 -20.384  0.00  0.00    +0.155 HD
ENDBRANCH  20  26
ENDBRANCH  19  20
ENDBRANCH  18  19
ENDBRANCH  17  18
ENDBRANCH   1  17
TORSDOF 7
ENDMDL
MODEL 5
REMARK VINA RESULT:     -10.8      7.040     11.120
REMARK  Name = 60795
REMARK  7 active torsions:
REMARK  status: ('A' for Active; 'I' for Inactive)
REMARK    1  A    between atoms: C_1  and  N_2
REMARK    2  A    between atoms: C_1  and  C_17
REMARK    3  A    between atoms: N_3  and  C_11
REMARK    4  A    between atoms: C_17  and  C_18
REMARK    5  A    between atoms: C_18  and  C_19
REMARK    6  A    between atoms: C_19  and  O_20
REMARK    7  A    between atoms: O_20  and  C_26
REMARK                            x       y       z     vdW  Elec       q    Type
REMARK                         _______ _______ _______ _____ _____    ______ ____
ROOT
ATOM      1  C   UNL     1      31.967 -10.726 -19.894  0.00  0.00    -0.077 C 
ENDROOT
BRANCH   1   2
ATOM      2  N   UNL     1      31.782  -9.516 -20.694  0.00  0.00    +0.389 N 
ATOM      3  N   UNL     1      32.516  -7.497 -22.578  0.00  0.00    -0.311 N 
ATOM      4  C   UNL     1      32.795  -8.511 -20.348  0.00  0.00    -0.055 C 
ATOM      5  C   UNL     1      31.857  -9.828 -22.126  0.00  0.00    -0.055 C 
ATOM      6  C   UNL     1      32.577  -7.218 -21.137  0.00  0.00    +0.068 C 
ATOM      7  C   UNL     1      31.610  -8.579 -22.976  0.00  0.00    +0.068 C 
ATOM      8  H   UNL     1      30.859  -9.137 -20.488  0.00  0.00    -0.080 HD
BRANCH   3  11
ATOM      9 CL   UNL     1      35.005  -7.758 -24.251  0.00  0.00    -0.080 Cl
ATOM     10 CL   UNL     1      35.490  -5.287 -26.241  0.00  0.00    -0.081 Cl
ATOM     11  C   UNL     1      32.772  -6.446 -23.464  0.00  0.00    +0.059 C 
ATOM     12  C   UNL     1      33.899  -6.421 -24.313  0.00  0.00    +0.081 C 
ATOM     13  C   UNL     1      31.879  -5.355 -23.525  0.00  0.00    +0.015 C 
ATOM     14  C   UNL     1      34.122  -5.353 -25.184  0.00  0.00    +0.069 C 
ATOM     15  C   UNL     1      32.102  -4.289 -24.396  0.00  0.00    +0.002 C 
ATOM     16  C   UNL     1      33.223  -4.288 -25.225  0.00  0.00    +0.012 C 
ENDBRANCH   3  11
ENDBRANCH   1   2
BRANCH   1  17
ATOM     17  C   UNL     1      31.412 -11.941 -20.634  0.00  0.00    -0.019 C 
BRANCH  17  18
ATOM     18  C   UNL     1      32.481 -13.019 -20.810  0.00  0.00    +0.045 C 
BRANCH  18  19
ATOM     19  C   UNL     1      32.811 -13.249 -22.279  0.00  0.00    +0.205 C 
BRANCH  19  20
ATOM     20  O   UNL     1      34.210 -13.480 -22.429  0.00  0.00    -0.475 OA
BRANCH  20  26
ATOM     21  O   UNL     1      36.383 -19.977 -20.555  0.00  0.00    -0.275 OA
ATOM     22  N   UNL     1      35.731 -17.865 -21.177  0.00  0.00    -0.284 N 
ATOM     23  C   UNL     1      35.389 -17.317 -23.522  0.00  0.00    -0.008 C 
ATOM     24  C   UNL     1      35.918 -18.671 -23.897  0.00  0.00    +0.037 C 
ATOM     25  C   UNL     1      35.351 -16.946 -22.171  0.00  0.00    +0.049 C 
ATOM     26  C   UNL     1      34.596 -14.736 -22.785  0.00  0.00    +0.140 C 
ATOM     27  C   UNL     1      35.618 -19.692 -22.810  0.00  0.00    +0.090 C 
ATOM     28  C   UNL     1      34.966 -15.654 -21.802  0.00  0.00    +0.051 C 
ATOM     29  C   UNL     1      35.030 -16.384 -24.500  0.00  0.00    +0.000 C 
ATOM     30  C   UNL     1      34.625 -15.100 -24.130  0.00  0.00    +0.037 C 
ATOM     31  C   UNL     1      35.982 -19.201 -21.422  0.00  0.00    +0.226 C 
ATOM     32  H   UNL     1      35.824 -17.536 -20.253  0.00  0.00    +0.155 HD
ENDBRANCH  20  26
ENDBRANCH  19  20
ENDBRANCH  18  19
ENDBRANCH  17  18
ENDBRANCH   1  17
TORSDOF 7
ENDMDL
MODEL 6
REMARK VINA RESULT:     -10.6      2.486      4.358
REMARK  Name = 60795
REMARK  7 active torsions:
REMARK  status: ('A' for Active; 'I' for Inactive)
REMARK    1  A    between atoms: C_1  and  N_2
REMARK    2  A    between atoms: C_1  and  C_17
REMARK    3  A    between atoms: N_3  and  C_11
REMARK    4  A    between atoms: C_17  and  C_18
REMARK    5  A    between atoms: C_18  and  C_19
REMARK    6  A    between atoms: C_19  and  O_20
REMARK    7  A    between atoms: O_20  and  C_26
REMARK                            x       y       z     vdW  Elec       q    Type
REMARK                         _______ _______ _______ _____ _____    ______ ____
ROOT
ATOM      1  C   UNL     1      35.786 -21.694 -19.515  0.00  0.00    -0.077 C 
ENDROOT
BRANCH   1   2
ATOM      2  N   UNL     1      35.773 -20.896 -20.740  0.00  0.00    +0.389 N 
ATOM      3  N   UNL     1      35.401 -18.543 -22.317  0.00  0.00    -0.311 N 
ATOM      4  C   UNL     1      34.422 -20.390 -21.011  0.00  0.00    -0.055 C 
ATOM      5  C   UNL     1      36.715 -19.775 -20.635  0.00  0.00    -0.055 C 
ATOM      6  C   UNL     1      34.383 -19.601 -22.322  0.00  0.00    +0.068 C 
ATOM      7  C   UNL     1      36.752 -18.964 -21.934  0.00  0.00    +0.068 C 
ATOM      8  H   UNL     1      36.061 -21.496 -21.513  0.00  0.00    -0.080 HD
BRANCH   3  11
ATOM      9 CL   UNL     1      35.026 -15.848 -21.029  0.00  0.00    -0.080 Cl
ATOM     10 CL   UNL     1      34.647 -13.452 -23.131  0.00  0.00    -0.081 Cl
ATOM     11  C   UNL     1      35.233 -17.464 -23.191  0.00  0.00    +0.059 C 
ATOM     12  C   UNL     1      35.045 -16.139 -22.741  0.00  0.00    +0.081 C 
ATOM     13  C   UNL     1      35.249 -17.688 -24.584  0.00  0.00    +0.015 C 
ATOM     14  C   UNL     1      34.879 -15.088 -23.643  0.00  0.00    +0.069 C 
ATOM     15  C   UNL     1      35.085 -16.637 -25.485  0.00  0.00    +0.002 C 
ATOM     16  C   UNL     1      34.900 -15.337 -25.015  0.00  0.00    +0.012 C 
ENDBRANCH   3  11
ENDBRANCH   1   2
BRANCH   1  17
ATOM     17  C   UNL     1      34.569 -22.616 -19.469  0.00  0.00    -0.019 C 
BRANCH  17  18
ATOM     18  C   UNL     1      33.826 -22.486 -18.140  0.00  0.00    +0.045 C 
BRANCH  18  19
ATOM     19  C   UNL     1      33.723 -23.825 -17.420  0.00  0.00    +0.205 C 
BRANCH  19  20
ATOM     20  O   UNL     1      33.528 -23.609 -16.024  0.00  0.00    -0.475 OA
BRANCH  20  26
ATOM     21  O   UNL     1      39.811 -26.781 -15.062  0.00  0.00    -0.275 OA
ATOM     22  N   UNL     1      37.755 -25.802 -15.361  0.00  0.00    -0.284 N 
ATOM     23  C   UNL     1      36.407 -25.149 -13.444  0.00  0.00    -0.008 C 
ATOM     24  C   UNL     1      37.408 -25.806 -12.539  0.00  0.00    +0.037 C 
ATOM     25  C   UNL     1      36.596 -25.206 -14.832  0.00  0.00    +0.049 C 
ATOM     26  C   UNL     1      34.472 -24.114 -15.182  0.00  0.00    +0.140 C 
ATOM     27  C   UNL     1      38.803 -25.753 -13.144  0.00  0.00    +0.090 C 
ATOM     28  C   UNL     1      35.626 -24.699 -15.701  0.00  0.00    +0.051 C 
ATOM     29  C   UNL     1      35.238 -24.573 -12.935  0.00  0.00    +0.000 C 
ATOM     30  C   UNL     1      34.278 -24.049 -13.803  0.00  0.00    +0.037 C 
ATOM     31  C   UNL     1      38.835 -26.195 -14.594  0.00  0.00    +0.226 C 
ATOM     32  H   UNL     1      37.798 -25.948 -16.334  0.00  0.00    +0.155 HD
ENDBRANCH  20  26
ENDBRANCH  19  20
ENDBRANCH  18  19
ENDBRANCH  17  18
ENDBRANCH   1  17
TORSDOF 7
ENDMDL
MODEL 7
REMARK VINA RESULT:     -10.6      6.285     11.705
REMARK  Name = 60795
REMARK  7 active torsions:
REMARK  status: ('A' for Active; 'I' for Inactive)
REMARK    1  A    between atoms: C_1  and  N_2
REMARK    2  A    between atoms: C_1  and  C_17
REMARK    3  A    between atoms: N_3  and  C_11
REMARK    4  A    between atoms: C_17  and  C_18
REMARK    5  A    between atoms: C_18  and  C_19
REMARK    6  A    between atoms: C_19  and  O_20
REMARK    7  A    between atoms: O_20  and  C_26
REMARK                            x       y       z     vdW  Elec       q    Type
REMARK                         _______ _______ _______ _____ _____    ______ ____
ROOT
ATOM      1  C   UNL     1      35.139 -16.325 -24.883  0.00  0.00    -0.077 C 
ENDROOT
BRANCH   1   2
ATOM      2  N   UNL     1      35.615 -17.402 -24.017  0.00  0.00    +0.389 N 
ATOM      3  N   UNL     1      35.448 -19.313 -21.900  0.00  0.00    -0.311 N 
ATOM      4  C   UNL     1      35.640 -16.963 -22.616  0.00  0.00    -0.055 C 
ATOM      5  C   UNL     1      34.762 -18.588 -24.153  0.00  0.00    -0.055 C 
ATOM      6  C   UNL     1      36.191 -18.062 -21.705  0.00  0.00    +0.068 C 
ATOM      7  C   UNL     1      35.283 -19.743 -23.292  0.00  0.00    +0.068 C 
ATOM      8  H   UNL     1      36.563 -17.644 -24.302  0.00  0.00    -0.080 HD
BRANCH   3  11
ATOM      9 CL   UNL     1      32.787 -20.382 -20.984  0.00  0.00    -0.080 Cl
ATOM     10 CL   UNL     1      33.009 -22.564 -18.640  0.00  0.00    -0.081 Cl
ATOM     11  C   UNL     1      35.490 -20.270 -20.880  0.00  0.00    +0.059 C 
ATOM     12  C   UNL     1      34.327 -20.863 -20.343  0.00  0.00    +0.081 C 
ATOM     13  C   UNL     1      36.736 -20.670 -20.353  0.00  0.00    +0.015 C 
ATOM     14  C   UNL     1      34.409 -21.814 -19.324  0.00  0.00    +0.069 C 
ATOM     15  C   UNL     1      36.817 -21.620 -19.336  0.00  0.00    +0.002 C 
ATOM     16  C   UNL     1      35.653 -22.192 -18.821  0.00  0.00    +0.012 C 
ENDBRANCH   3  11
ENDBRANCH   1   2
BRANCH   1  17
ATOM     17  C   UNL     1      34.731 -15.113 -24.048  0.00  0.00    -0.019 C 
BRANCH  17  18
ATOM     18  C   UNL     1      33.859 -14.152 -24.856  0.00  0.00    +0.045 C 
BRANCH  18  19
ATOM     19  C   UNL     1      33.879 -12.746 -24.271  0.00  0.00    +0.205 C 
BRANCH  19  20
ATOM     20  O   UNL     1      32.843 -12.612 -23.301  0.00  0.00    -0.475 OA
BRANCH  20  26
ATOM     21  O   UNL     1      33.420  -5.549 -23.786  0.00  0.00    -0.275 OA
ATOM     22  N   UNL     1      33.275  -7.833 -23.595  0.00  0.00    -0.284 N 
ATOM     23  C   UNL     1      32.297  -8.848 -21.613  0.00  0.00    -0.008 C 
ATOM     24  C   UNL     1      32.208  -7.489 -20.982  0.00  0.00    +0.037 C 
ATOM     25  C   UNL     1      32.867  -8.977 -22.887  0.00  0.00    +0.049 C 
ATOM     26  C   UNL     1      32.665 -11.379 -22.750  0.00  0.00    +0.140 C 
ATOM     27  C   UNL     1      32.020  -6.411 -22.039  0.00  0.00    +0.090 C 
ATOM     28  C   UNL     1      33.060 -10.241 -23.452  0.00  0.00    +0.051 C 
ATOM     29  C   UNL     1      31.917  -9.997 -20.913  0.00  0.00    +0.000 C 
ATOM     30  C   UNL     1      32.092 -11.259 -21.485  0.00  0.00    +0.037 C 
ATOM     31  C   UNL     1      32.994  -6.541 -23.195  0.00  0.00    +0.226 C 
ATOM     32  H   UNL     1      33.792  -7.961 -24.424  0.00  0.00    +0.155 HD
ENDBRANCH  20  26
ENDBRANCH  19  20
ENDBRANCH  18  19
ENDBRANCH  17  18
ENDBRANCH   1  17
TORSDOF 7
ENDMDL
MODEL 8
REMARK VINA RESULT:     -10.5      8.330     12.092
REMARK  Name = 60795
REMARK  7 active torsions:
REMARK  status: ('A' for Active; 'I' for Inactive)
REMARK    1  A    between atoms: C_1  and  N_2
REMARK    2  A    between atoms: C_1  and  C_17
REMARK    3  A    between atoms: N_3  and  C_11
REMARK    4  A    between atoms: C_17  and  C_18
REMARK    5  A    between atoms: C_18  and  C_19
REMARK    6  A    between atoms: C_19  and  O_20
REMARK    7  A    between atoms: O_20  and  C_26
REMARK                            x       y       z     vdW  Elec       q    Type
REMARK                         _______ _______ _______ _____ _____    ______ ____
ROOT
ATOM      1  C   UNL     1      32.092  -9.459 -19.879  0.00  0.00    -0.077 C 
ENDROOT
BRANCH   1   2
ATOM      2  N   UNL     1      32.022  -8.443 -20.928  0.00  0.00    +0.389 N 
ATOM      3  N   UNL     1      33.017  -6.828 -23.065  0.00  0.00    -0.311 N 
ATOM      4  C   UNL     1      32.975  -7.358 -20.659  0.00  0.00    -0.055 C 
ATOM      5  C   UNL     1      32.301  -9.037 -22.241  0.00  0.00    -0.055 C 
ATOM      6  C   UNL     1      32.872  -6.260 -21.719  0.00  0.00    +0.068 C 
ATOM      7  C   UNL     1      32.177  -7.995 -23.356  0.00  0.00    +0.068 C 
ATOM      8  H   UNL     1      31.078  -8.057 -20.936  0.00  0.00    -0.080 HD
BRANCH   3  11
ATOM      9 CL   UNL     1      31.082  -4.619 -23.724  0.00  0.00    -0.080 Cl
ATOM     10 CL   UNL     1      32.055  -2.721 -26.124  0.00  0.00    -0.081 Cl
ATOM     11  C   UNL     1      33.396  -5.971 -24.104  0.00  0.00    +0.059 C 
ATOM     12  C   UNL     1      32.596  -4.890 -24.531  0.00  0.00    +0.081 C 
ATOM     13  C   UNL     1      34.625  -6.181 -24.765  0.00  0.00    +0.015 C 
ATOM     14  C   UNL     1      33.006  -4.056 -25.573  0.00  0.00    +0.069 C 
ATOM     15  C   UNL     1      35.035  -5.347 -25.805  0.00  0.00    +0.002 C 
ATOM     16  C   UNL     1      34.226  -4.285 -26.209  0.00  0.00    +0.012 C 
ENDBRANCH   3  11
ENDBRANCH   1   2
BRANCH   1  17
ATOM     17  C   UNL     1      31.546 -10.790 -20.393  0.00  0.00    -0.019 C 
BRANCH  17  18
ATOM     18  C   UNL     1      31.586 -11.861 -19.304  0.00  0.00    +0.045 C 
BRANCH  18  19
ATOM     19  C   UNL     1      32.218 -13.152 -19.808  0.00  0.00    +0.205 C 
BRANCH  19  20
ATOM     20  O   UNL     1      33.388 -12.853 -20.567  0.00  0.00    -0.475 OA
BRANCH  20  26
ATOM     21  O   UNL     1      33.716 -15.442 -27.174  0.00  0.00    -0.275 OA
ATOM     22  N   UNL     1      33.575 -14.644 -25.025  0.00  0.00    -0.284 N 
ATOM     23  C   UNL     1      34.728 -15.776 -23.207  0.00  0.00    -0.008 C 
ATOM     24  C   UNL     1      35.110 -16.874 -24.158  0.00  0.00    +0.037 C 
ATOM     25  C   UNL     1      33.937 -14.715 -23.668  0.00  0.00    +0.049 C 
ATOM     26  C   UNL     1      33.825 -13.809 -21.433  0.00  0.00    +0.140 C 
ATOM     27  C   UNL     1      35.261 -16.338 -25.573  0.00  0.00    +0.090 C 
ATOM     28  C   UNL     1      33.477 -13.738 -22.781  0.00  0.00    +0.051 C 
ATOM     29  C   UNL     1      35.060 -15.845 -21.851  0.00  0.00    +0.000 C 
ATOM     30  C   UNL     1      34.617 -14.858 -20.968  0.00  0.00    +0.037 C 
ATOM     31  C   UNL     1      34.096 -15.468 -26.003  0.00  0.00    +0.226 C 
ATOM     32  H   UNL     1      32.911 -13.967 -25.292  0.00  0.00    +0.155 HD
ENDBRANCH  20  26
ENDBRANCH  19  20
ENDBRANCH  18  19
ENDBRANCH  17  18
ENDBRANCH   1  17
TORSDOF 7
ENDMDL
MODEL 9
REMARK VINA RESULT:     -10.4      4.672     10.735
REMARK  Name = 60795
REMARK  7 active torsions:
REMARK  status: ('A' for Active; 'I' for Inactive)
REMARK    1  A    between atoms: C_1  and  N_2
REMARK    2  A    between atoms: C_1  and  C_17
REMARK    3  A    between atoms: N_3  and  C_11
REMARK    4  A    between atoms: C_17  and  C_18
REMARK    5  A    between atoms: C_18  and  C_19
REMARK    6  A    between atoms: C_19  and  O_20
REMARK    7  A    between atoms: O_20  and  C_26
REMARK                            x       y       z     vdW  Elec       q    Type
REMARK                         _______ _______ _______ _____ _____    ______ ____
ROOT
ATOM      1  C   UNL     1      33.953 -22.287 -19.483  0.00  0.00    -0.077 C 
ENDROOT
BRANCH   1   2
ATOM      2  N   UNL     1      34.201 -22.421 -18.048  0.00  0.00    +0.389 N 
ATOM      3  N   UNL     1      35.221 -23.654 -15.681  0.00  0.00    -0.311 N 
ATOM      4  C   UNL     1      33.594 -23.654 -17.533  0.00  0.00    -0.055 C 
ATOM      5  C   UNL     1      35.642 -22.420 -17.772  0.00  0.00    -0.055 C 
ATOM      6  C   UNL     1      33.797 -23.777 -16.022  0.00  0.00    +0.068 C 
ATOM      7  C   UNL     1      35.916 -22.503 -16.268  0.00  0.00    +0.068 C 
ATOM      8  H   UNL     1      33.776 -21.623 -17.576  0.00  0.00    -0.080 HD
BRANCH   3  11
ATOM      9 CL   UNL     1      38.060 -24.650 -15.598  0.00  0.00    -0.080 Cl
ATOM     10 CL   UNL     1      38.936 -25.821 -12.741  0.00  0.00    -0.081 Cl
ATOM     11  C   UNL     1      35.652 -24.173 -14.456  0.00  0.00    +0.059 C 
ATOM     12  C   UNL     1      36.955 -24.680 -14.259  0.00  0.00    +0.081 C 
ATOM     13  C   UNL     1      34.764 -24.201 -13.361  0.00  0.00    +0.015 C 
ATOM     14  C   UNL     1      37.350 -25.192 -13.022  0.00  0.00    +0.069 C 
ATOM     15  C   UNL     1      35.158 -24.712 -12.125  0.00  0.00    +0.002 C 
ATOM     16  C   UNL     1      36.452 -25.208 -11.955  0.00  0.00    +0.012 C 
ENDBRANCH   3  11
ENDBRANCH   1   2
BRANCH   1  17
ATOM     17  C   UNL     1      35.086 -21.509 -20.147  0.00  0.00    -0.019 C 
BRANCH  17  18
ATOM     18  C   UNL     1      34.571 -20.223 -20.793  0.00  0.00    +0.045 C 
BRANCH  18  19
ATOM     19  C   UNL     1      35.522 -19.714 -21.868  0.00  0.00    +0.205 C 
BRANCH  19  20
ATOM     20  O   UNL     1      36.077 -18.462 -21.469  0.00  0.00    -0.475 OA
BRANCH  20  26
ATOM     21  O   UNL     1      33.958 -15.064 -27.336  0.00  0.00    -0.275 OA
ATOM     22  N   UNL     1      34.688 -16.132 -25.438  0.00  0.00    -0.284 N 
ATOM     23  C   UNL     1      34.536 -15.042 -23.269  0.00  0.00    -0.008 C 
ATOM     24  C   UNL     1      34.082 -13.785 -23.953  0.00  0.00    +0.037 C 
ATOM     25  C   UNL     1      34.862 -16.164 -24.043  0.00  0.00    +0.049 C 
ATOM     26  C   UNL     1      35.572 -17.344 -22.060  0.00  0.00    +0.140 C 
ATOM     27  C   UNL     1      33.321 -14.106 -25.230  0.00  0.00    +0.090 C 
ATOM     28  C   UNL     1      35.390 -17.311 -23.442  0.00  0.00    +0.051 C 
ATOM     29  C   UNL     1      34.736 -15.082 -21.886  0.00  0.00    +0.000 C 
ATOM     30  C   UNL     1      35.244 -16.234 -21.283  0.00  0.00    +0.037 C 
ATOM     31  C   UNL     1      34.040 -15.113 -26.108  0.00  0.00    +0.226 C 
ATOM     32  H   UNL     1      35.050 -16.880 -25.968  0.00  0.00    +0.155 HD
ENDBRANCH  20  26
ENDBRANCH  19  20
ENDBRANCH  18  19
ENDBRANCH  17  18
ENDBRANCH   1  17
TORSDOF 7
ENDMDL
