MODEL 1
REMARK VINA RESULT:     -11.9      0.000      0.000
REMARK  Name = 42642648
REMARK  5 active torsions:
REMARK  status: ('A' for Active; 'I' for Inactive)
REMARK    1  A    between atoms: N_1  and  C_22
REMARK    2  A    between atoms: C_4  and  N_15
REMARK    3  A    between atoms: C_25  and  O_28
REMARK    4  A    between atoms: O_28  and  C_29
REMARK    5  A    between atoms: C_29  and  C_32
REMARK                            x       y       z     vdW  Elec       q    Type
REMARK                         _______ _______ _______ _____ _____    ______ ____
ROOT
ATOM      1  N   UNL     1      34.572 -14.474 -23.049  0.00  0.00    -0.301 N 
ATOM      2  N   UNL     1      34.084 -17.210 -26.116  0.00  0.00    -0.248 NA
ATOM      3  N   UNL     1      33.809 -14.993 -25.213  0.00  0.00    -0.233 NA
ATOM      4  C   UNL     1      35.945 -18.462 -22.602  0.00  0.00    +0.048 C 
ATOM      5  C   UNL     1      34.876 -16.722 -23.906  0.00  0.00    +0.117 C 
ATOM      6  C   UNL     1      35.505 -17.148 -22.722  0.00  0.00    +0.001 C 
ATOM      7  C   UNL     1      34.683 -17.607 -24.979  0.00  0.00    +0.067 C 
ATOM      8  C   UNL     1      34.412 -15.423 -24.089  0.00  0.00    +0.115 C 
ATOM      9  C   UNL     1      35.759 -19.347 -23.659  0.00  0.00    +0.016 C 
ATOM     10  C   UNL     1      35.133 -18.917 -24.831  0.00  0.00    +0.016 C 
ATOM     11  C   UNL     1      33.679 -15.925 -26.171  0.00  0.00    +0.251 C 
ATOM     12  H   UNL     1      35.364 -14.631 -22.487  0.00  0.00    +0.153 HD
ENDROOT
BRANCH   4  15
ATOM     13  O   UNL     1      37.093 -20.157 -19.588  0.00  0.00    -0.448 OA
ATOM     14  N   UNL     1      35.440 -20.948 -20.951  0.00  0.00    -0.222 NA
ATOM     15  N   UNL     1      36.575 -18.895 -21.419  0.00  0.00    -0.269 N 
ATOM     16  C   UNL     1      35.677 -21.951 -19.901  0.00  0.00    +0.151 C 
ATOM     17  C   UNL     1      36.501 -21.224 -18.860  0.00  0.00    +0.233 C 
ATOM     18  C   UNL     1      36.318 -20.025 -20.703  0.00  0.00    +0.284 C 
ATOM     19  C   UNL     1      34.358 -22.473 -19.363  0.00  0.00    +0.030 C 
ATOM     20  H   UNL     1      37.286 -18.310 -21.067  0.00  0.00    +0.157 HD
ENDBRANCH   4  15
BRANCH   1  22
ATOM     21 CL   UNL     1      31.678 -12.205 -19.493  0.00  0.00    -0.079 Cl
ATOM     22  C   UNL     1      33.818 -13.353 -22.666  0.00  0.00    +0.050 C 
ATOM     23  C   UNL     1      33.192 -13.326 -21.420  0.00  0.00    +0.029 C 
ATOM     24  C   UNL     1      33.695 -12.267 -23.532  0.00  0.00    +0.018 C 
ATOM     25  C   UNL     1      32.320 -11.125 -21.906  0.00  0.00    +0.150 C 
ATOM     26  C   UNL     1      32.443 -12.212 -21.040  0.00  0.00    +0.093 C 
ATOM     27  C   UNL     1      32.946 -11.153 -23.152  0.00  0.00    +0.039 C 
BRANCH  25  28
ATOM     28  O   UNL     1      31.595 -10.024 -21.561  0.00  0.00    -0.468 OA
BRANCH  28  29
ATOM     29  C   UNL     1      32.327  -8.868 -21.158  0.00  0.00    +0.257 C 
BRANCH  29  32
ATOM     30  S   UNL     1      32.373  -6.129 -21.601  0.00  0.00    -0.067 S 
ATOM     31  N   UNL     1      31.431  -7.872 -23.260  0.00  0.00    -0.237 NA
ATOM     32  C   UNL     1      31.998  -7.732 -22.082  0.00  0.00    +0.132 C 
ATOM     33  C   UNL     1      31.730  -5.559 -23.084  0.00  0.00    +0.057 C 
ATOM     34  C   UNL     1      31.277  -6.625 -23.833  0.00  0.00    +0.106 C 
ENDBRANCH  29  32
ENDBRANCH  28  29
ENDBRANCH  25  28
ENDBRANCH   1  22
TORSDOF 5
ENDMDL
MODEL 2
REMARK VINA RESULT:     -11.6      5.737     10.148
REMARK  Name = 42642648
REMARK  5 active torsions:
REMARK  status: ('A' for Active; 'I' for Inactive)
REMARK    1  A    between atoms: N_1  and  C_22
REMARK    2  A    between atoms: C_4  and  N_15
REMARK    3  A    between atoms: C_25  and  O_28
REMARK    4  A    between atoms: O_28  and  C_29
REMARK    5  A    between atoms: C_29  and  C_32
REMARK                            x       y       z     vdW  Elec       q    Type
REMARK                         _______ _______ _______ _____ _____    ______ ____
ROOT
ATOM      1  N   UNL     1      33.769 -22.881 -18.375  0.00  0.00    -0.301 N 
ATOM      2  N   UNL     1      30.557 -23.168 -15.780  0.00  0.00    -0.248 NA
ATOM      3  N   UNL     1      31.521 -22.416 -17.856  0.00  0.00    -0.233 NA
ATOM      4  C   UNL     1      34.178 -24.914 -14.675  0.00  0.00    +0.048 C 
ATOM      5  C   UNL     1      32.851 -23.663 -16.270  0.00  0.00    +0.117 C 
ATOM      6  C   UNL     1      34.071 -24.254 -15.894  0.00  0.00    +0.001 C 
ATOM      7  C   UNL     1      31.728 -23.728 -15.430  0.00  0.00    +0.067 C 
ATOM      8  C   UNL     1      32.679 -22.988 -17.475  0.00  0.00    +0.115 C 
ATOM      9  C   UNL     1      33.072 -24.985 -13.834  0.00  0.00    +0.016 C 
ATOM     10  C   UNL     1      31.864 -24.395 -14.214  0.00  0.00    +0.016 C 
ATOM     11  C   UNL     1      30.517 -22.542 -16.973  0.00  0.00    +0.251 C 
ATOM     12  H   UNL     1      34.397 -23.637 -18.328  0.00  0.00    +0.153 HD
ENDROOT
BRANCH   4  15
ATOM     13  O   UNL     1      37.406 -25.835 -13.256  0.00  0.00    -0.448 OA
ATOM     14  N   UNL     1      36.265 -23.932 -12.714  0.00  0.00    -0.222 NA
ATOM     15  N   UNL     1      35.397 -25.507 -14.292  0.00  0.00    -0.269 N 
ATOM     16  C   UNL     1      37.469 -23.990 -11.871  0.00  0.00    +0.151 C 
ATOM     17  C   UNL     1      38.334 -25.052 -12.517  0.00  0.00    +0.233 C 
ATOM     18  C   UNL     1      36.313 -25.031 -13.403  0.00  0.00    +0.284 C 
ATOM     19  C   UNL     1      38.138 -22.631 -11.810  0.00  0.00    +0.030 C 
ATOM     20  H   UNL     1      35.614 -26.368 -14.719  0.00  0.00    +0.157 HD
ENDBRANCH   4  15
BRANCH   1  22
ATOM     21 CL   UNL     1      37.476 -20.143 -20.593  0.00  0.00    -0.079 Cl
ATOM     22  C   UNL     1      34.124 -21.905 -19.319  0.00  0.00    +0.050 C 
ATOM     23  C   UNL     1      35.461 -21.542 -19.478  0.00  0.00    +0.029 C 
ATOM     24  C   UNL     1      33.140 -21.298 -20.098  0.00  0.00    +0.018 C 
ATOM     25  C   UNL     1      34.829 -19.966 -21.197  0.00  0.00    +0.150 C 
ATOM     26  C   UNL     1      35.814 -20.573 -20.417  0.00  0.00    +0.093 C 
ATOM     27  C   UNL     1      33.492 -20.329 -21.037  0.00  0.00    +0.039 C 
BRANCH  25  28
ATOM     28  O   UNL     1      35.144 -19.015 -22.122  0.00  0.00    -0.468 OA
BRANCH  28  29
ATOM     29  C   UNL     1      34.979 -19.368 -23.494  0.00  0.00    +0.257 C 
BRANCH  29  32
ATOM     30  S   UNL     1      35.372 -16.626 -23.658  0.00  0.00    -0.067 S 
ATOM     31  N   UNL     1      34.277 -18.069 -25.502  0.00  0.00    -0.237 NA
ATOM     32  C   UNL     1      34.819 -18.116 -24.306  0.00  0.00    +0.132 C 
ATOM     33  C   UNL     1      34.849 -15.839 -25.089  0.00  0.00    +0.057 C 
ATOM     34  C   UNL     1      34.294 -16.763 -25.950  0.00  0.00    +0.106 C 
ENDBRANCH  29  32
ENDBRANCH  28  29
ENDBRANCH  25  28
ENDBRANCH   1  22
TORSDOF 5
ENDMDL
MODEL 3
REMARK VINA RESULT:     -11.4      1.065      1.370
REMARK  Name = 42642648
REMARK  5 active torsions:
REMARK  status: ('A' for Active; 'I' for Inactive)
REMARK    1  A    between atoms: N_1  and  C_22
REMARK    2  A    between atoms: C_4  and  N_15
REMARK    3  A    between atoms: C_25  and  O_28
REMARK    4  A    between atoms: O_28  and  C_29
REMARK    5  A    between atoms: C_29  and  C_32
REMARK                            x       y       z     vdW  Elec       q    Type
REMARK                         _______ _______ _______ _____ _____    ______ ____
ROOT
ATOM      1  N   UNL     1      34.544 -14.636 -23.008  0.00  0.00    -0.301 N 
ATOM      2  N   UNL     1      34.159 -17.380 -26.082  0.00  0.00    -0.248 NA
ATOM      3  N   UNL     1      33.825 -15.169 -25.184  0.00  0.00    -0.233 NA
ATOM      4  C   UNL     1      35.991 -18.595 -22.541  0.00  0.00    +0.048 C 
ATOM      5  C   UNL     1      34.907 -16.878 -23.860  0.00  0.00    +0.117 C 
ATOM      6  C   UNL     1      35.526 -17.291 -22.667  0.00  0.00    +0.001 C 
ATOM      7  C   UNL     1      34.749 -17.765 -24.937  0.00  0.00    +0.067 C 
ATOM      8  C   UNL     1      34.420 -15.588 -24.051  0.00  0.00    +0.115 C 
ATOM      9  C   UNL     1      35.839 -19.483 -23.599  0.00  0.00    +0.016 C 
ATOM     10  C   UNL     1      35.223 -19.066 -24.782  0.00  0.00    +0.016 C 
ATOM     11  C   UNL     1      33.729 -16.104 -26.144  0.00  0.00    +0.251 C 
ATOM     12  H   UNL     1      35.331 -14.777 -22.434  0.00  0.00    +0.153 HD
ENDROOT
BRANCH   4  15
ATOM     13  O   UNL     1      37.108 -20.253 -19.493  0.00  0.00    -0.448 OA
ATOM     14  N   UNL     1      35.452 -21.048 -20.851  0.00  0.00    -0.222 NA
ATOM     15  N   UNL     1      36.612 -19.015 -21.347  0.00  0.00    -0.269 N 
ATOM     16  C   UNL     1      35.673 -22.037 -19.783  0.00  0.00    +0.151 C 
ATOM     17  C   UNL     1      36.501 -21.301 -18.751  0.00  0.00    +0.233 C 
ATOM     18  C   UNL     1      36.339 -20.131 -20.614  0.00  0.00    +0.284 C 
ATOM     19  C   UNL     1      34.346 -22.534 -19.242  0.00  0.00    +0.030 C 
ATOM     20  H   UNL     1      37.328 -18.433 -21.002  0.00  0.00    +0.157 HD
ENDBRANCH   4  15
BRANCH   1  22
ATOM     21 CL   UNL     1      33.017  -9.864 -24.038  0.00  0.00    -0.079 Cl
ATOM     22  C   UNL     1      33.762 -13.531 -22.637  0.00  0.00    +0.050 C 
ATOM     23  C   UNL     1      33.768 -12.377 -23.420  0.00  0.00    +0.029 C 
ATOM     24  C   UNL     1      32.978 -13.587 -21.485  0.00  0.00    +0.018 C 
ATOM     25  C   UNL     1      32.206 -11.336 -21.898  0.00  0.00    +0.150 C 
ATOM     26  C   UNL     1      32.990 -11.279 -23.052  0.00  0.00    +0.093 C 
ATOM     27  C   UNL     1      32.200 -12.490 -21.116  0.00  0.00    +0.039 C 
BRANCH  25  28
ATOM     28  O   UNL     1      31.436 -10.279 -21.514  0.00  0.00    -0.468 OA
BRANCH  28  29
ATOM     29  C   UNL     1      32.031  -9.336 -20.624  0.00  0.00    +0.257 C 
BRANCH  29  32
ATOM     30  S   UNL     1      33.271  -6.856 -20.735  0.00  0.00    -0.067 S 
ATOM     31  N   UNL     1      31.426  -7.654 -22.360  0.00  0.00    -0.237 NA
ATOM     32  C   UNL     1      32.142  -8.010 -21.317  0.00  0.00    +0.132 C 
ATOM     33  C   UNL     1      32.773  -5.781 -21.974  0.00  0.00    +0.057 C 
ATOM     34  C   UNL     1      31.788  -6.375 -22.736  0.00  0.00    +0.106 C 
ENDBRANCH  29  32
ENDBRANCH  28  29
ENDBRANCH  25  28
ENDBRANCH   1  22
TORSDOF 5
ENDMDL
MODEL 4
REMARK VINA RESULT:     -10.9      5.873     10.364
REMARK  Name = 42642648
REMARK  5 active torsions:
REMARK  status: ('A' for Active; 'I' for Inactive)
REMARK    1  A    between atoms: N_1  and  C_22
REMARK    2  A    between atoms: C_4  and  N_15
REMARK    3  A    between atoms: C_25  and  O_28
REMARK    4  A    between atoms: O_28  and  C_29
REMARK    5  A    between atoms: C_29  and  C_32
REMARK                            x       y       z     vdW  Elec       q    Type
REMARK                         _______ _______ _______ _____ _____    ______ ____
ROOT
ATOM      1  N   UNL     1      33.937 -23.050 -17.647  0.00  0.00    -0.301 N 
ATOM      2  N   UNL     1      30.268 -23.218 -15.738  0.00  0.00    -0.248 NA
ATOM      3  N   UNL     1      31.600 -22.784 -17.699  0.00  0.00    -0.233 NA
ATOM      4  C   UNL     1      33.689 -24.224 -13.579  0.00  0.00    +0.048 C 
ATOM      5  C   UNL     1      32.647 -23.502 -15.643  0.00  0.00    +0.117 C 
ATOM      6  C   UNL     1      33.800 -23.843 -14.912  0.00  0.00    +0.001 C 
ATOM      7  C   UNL     1      31.376 -23.541 -15.048  0.00  0.00    +0.067 C 
ATOM      8  C   UNL     1      32.689 -23.113 -16.979  0.00  0.00    +0.115 C 
ATOM      9  C   UNL     1      32.436 -24.265 -12.978  0.00  0.00    +0.016 C 
ATOM     10  C   UNL     1      31.296 -23.925 -13.711  0.00  0.00    +0.016 C 
ATOM     11  C   UNL     1      30.440 -22.857 -17.026  0.00  0.00    +0.251 C 
ATOM     12  H   UNL     1      34.601 -23.694 -17.310  0.00  0.00    +0.153 HD
ENDROOT
BRANCH   4  15
ATOM     13  O   UNL     1      36.938 -25.316 -12.339  0.00  0.00    -0.448 OA
ATOM     14  N   UNL     1      36.325 -25.361 -14.539  0.00  0.00    -0.222 NA
ATOM     15  N   UNL     1      34.840 -24.565 -12.841  0.00  0.00    -0.269 N 
ATOM     16  C   UNL     1      37.730 -25.790 -14.454  0.00  0.00    +0.151 C 
ATOM     17  C   UNL     1      37.951 -26.076 -12.983  0.00  0.00    +0.233 C 
ATOM     18  C   UNL     1      36.011 -25.076 -13.312  0.00  0.00    +0.284 C 
ATOM     19  C   UNL     1      37.968 -26.998 -15.340  0.00  0.00    +0.030 C 
ATOM     20  H   UNL     1      34.791 -24.417 -11.868  0.00  0.00    +0.157 HD
ENDBRANCH   4  15
BRANCH   1  22
ATOM     21 CL   UNL     1      32.839 -20.119 -21.693  0.00  0.00    -0.079 Cl
ATOM     22  C   UNL     1      34.409 -22.247 -18.698  0.00  0.00    +0.050 C 
ATOM     23  C   UNL     1      33.507 -21.647 -19.576  0.00  0.00    +0.029 C 
ATOM     24  C   UNL     1      35.779 -22.051 -18.864  0.00  0.00    +0.018 C 
ATOM     25  C   UNL     1      35.348 -20.652 -20.785  0.00  0.00    +0.150 C 
ATOM     26  C   UNL     1      33.976 -20.849 -20.620  0.00  0.00    +0.093 C 
ATOM     27  C   UNL     1      36.249 -21.253 -19.907  0.00  0.00    +0.039 C 
BRANCH  25  28
ATOM     28  O   UNL     1      35.835 -19.878 -21.797  0.00  0.00    -0.468 OA
BRANCH  28  29
ATOM     29  C   UNL     1      35.653 -18.468 -21.676  0.00  0.00    +0.257 C 
BRANCH  29  32
ATOM     30  S   UNL     1      35.384 -16.202 -23.256  0.00  0.00    -0.067 S 
ATOM     31  N   UNL     1      34.956 -18.620 -24.064  0.00  0.00    -0.237 NA
ATOM     32  C   UNL     1      35.313 -17.901 -23.023  0.00  0.00    +0.132 C 
ATOM     33  C   UNL     1      34.899 -16.430 -24.884  0.00  0.00    +0.057 C 
ATOM     34  C   UNL     1      34.718 -17.775 -25.131  0.00  0.00    +0.106 C 
ENDBRANCH  29  32
ENDBRANCH  28  29
ENDBRANCH  25  28
ENDBRANCH   1  22
TORSDOF 5
ENDMDL
MODEL 5
REMARK VINA RESULT:     -10.2      4.869      8.698
REMARK  Name = 42642648
REMARK  5 active torsions:
REMARK  status: ('A' for Active; 'I' for Inactive)
REMARK    1  A    between atoms: N_1  and  C_22
REMARK    2  A    between atoms: C_4  and  N_15
REMARK    3  A    between atoms: C_25  and  O_28
REMARK    4  A    between atoms: O_28  and  C_29
REMARK    5  A    between atoms: C_29  and  C_32
REMARK                            x       y       z     vdW  Elec       q    Type
REMARK                         _______ _______ _______ _____ _____    ______ ____
ROOT
ATOM      1  N   UNL     1      35.362 -21.619 -19.894  0.00  0.00    -0.301 N 
ATOM      2  N   UNL     1      32.270 -22.760 -17.389  0.00  0.00    -0.248 NA
ATOM      3  N   UNL     1      33.057 -21.786 -19.448  0.00  0.00    -0.233 NA
ATOM      4  C   UNL     1      36.193 -23.437 -16.153  0.00  0.00    +0.048 C 
ATOM      5  C   UNL     1      34.627 -22.609 -17.805  0.00  0.00    +0.117 C 
ATOM      6  C   UNL     1      35.949 -22.839 -17.385  0.00  0.00    +0.001 C 
ATOM      7  C   UNL     1      33.538 -22.975 -16.997  0.00  0.00    +0.067 C 
ATOM      8  C   UNL     1      34.315 -22.016 -19.024  0.00  0.00    +0.115 C 
ATOM      9  C   UNL     1      35.124 -23.803 -15.344  0.00  0.00    +0.016 C 
ATOM     10  C   UNL     1      33.813 -23.571 -15.768  0.00  0.00    +0.016 C 
ATOM     11  C   UNL     1      32.098 -22.177 -18.592  0.00  0.00    +0.251 C 
ATOM     12  H   UNL     1      36.171 -22.173 -19.818  0.00  0.00    +0.153 HD
ENDROOT
BRANCH   4  15
ATOM     13  O   UNL     1      39.299 -24.570 -14.619  0.00  0.00    -0.448 OA
ATOM     14  N   UNL     1      37.250 -25.481 -14.186  0.00  0.00    -0.222 NA
ATOM     15  N   UNL     1      37.516 -23.670 -15.726  0.00  0.00    -0.269 N 
ATOM     16  C   UNL     1      38.256 -26.264 -13.451  0.00  0.00    +0.151 C 
ATOM     17  C   UNL     1      39.506 -25.411 -13.493  0.00  0.00    +0.233 C 
ATOM     18  C   UNL     1      37.952 -24.603 -14.836  0.00  0.00    +0.284 C 
ATOM     19  C   UNL     1      37.774 -26.551 -12.041  0.00  0.00    +0.030 C 
ATOM     20  H   UNL     1      38.207 -23.088 -16.119  0.00  0.00    +0.157 HD
ENDBRANCH   4  15
BRANCH   1  22
ATOM     21 CL   UNL     1      38.358 -18.304 -22.382  0.00  0.00    -0.079 Cl
ATOM     22  C   UNL     1      35.465 -20.589 -20.843  0.00  0.00    +0.050 C 
ATOM     23  C   UNL     1      36.707 -20.017 -21.118  0.00  0.00    +0.029 C 
ATOM     24  C   UNL     1      34.327 -20.138 -21.509  0.00  0.00    +0.018 C 
ATOM     25  C   UNL     1      35.670 -18.543 -22.728  0.00  0.00    +0.150 C 
ATOM     26  C   UNL     1      36.810 -18.995 -22.061  0.00  0.00    +0.093 C 
ATOM     27  C   UNL     1      34.429 -19.116 -22.451  0.00  0.00    +0.039 C 
BRANCH  25  28
ATOM     28  O   UNL     1      35.741 -17.545 -23.654  0.00  0.00    -0.468 OA
BRANCH  28  29
ATOM     29  C   UNL     1      34.974 -17.713 -24.845  0.00  0.00    +0.257 C 
BRANCH  29  32
ATOM     30  S   UNL     1      34.505 -15.060 -24.180  0.00  0.00    -0.067 S 
ATOM     31  N   UNL     1      33.923 -16.131 -26.460  0.00  0.00    -0.237 NA
ATOM     32  C   UNL     1      34.444 -16.377 -25.278  0.00  0.00    +0.132 C 
ATOM     33  C   UNL     1      33.777 -14.065 -25.372  0.00  0.00    +0.057 C 
ATOM     34  C   UNL     1      33.541 -14.805 -26.512  0.00  0.00    +0.106 C 
ENDBRANCH  29  32
ENDBRANCH  28  29
ENDBRANCH  25  28
ENDBRANCH   1  22
TORSDOF 5
ENDMDL
MODEL 6
REMARK VINA RESULT:     -10.1      5.200      9.538
REMARK  Name = 42642648
REMARK  5 active torsions:
REMARK  status: ('A' for Active; 'I' for Inactive)
REMARK    1  A    between atoms: N_1  and  C_22
REMARK    2  A    between atoms: C_4  and  N_15
REMARK    3  A    between atoms: C_25  and  O_28
REMARK    4  A    between atoms: O_28  and  C_29
REMARK    5  A    between atoms: C_29  and  C_32
REMARK                            x       y       z     vdW  Elec       q    Type
REMARK                         _______ _______ _______ _____ _____    ______ ____
ROOT
ATOM      1  N   UNL     1      34.594 -22.377 -18.470  0.00  0.00    -0.301 N 
ATOM      2  N   UNL     1      31.356 -23.447 -16.125  0.00  0.00    -0.248 NA
ATOM      3  N   UNL     1      32.277 -22.707 -18.224  0.00  0.00    -0.233 NA
ATOM      4  C   UNL     1      35.164 -23.545 -14.433  0.00  0.00    +0.048 C 
ATOM      5  C   UNL     1      33.722 -23.124 -16.333  0.00  0.00    +0.117 C 
ATOM      6  C   UNL     1      35.006 -23.159 -15.760  0.00  0.00    +0.001 C 
ATOM      7  C   UNL     1      32.587 -23.476 -15.586  0.00  0.00    +0.067 C 
ATOM      8  C   UNL     1      33.496 -22.746 -17.653  0.00  0.00    +0.115 C 
ATOM      9  C   UNL     1      34.048 -23.896 -13.682  0.00  0.00    +0.016 C 
ATOM     10  C   UNL     1      32.776 -23.858 -14.259  0.00  0.00    +0.016 C 
ATOM     11  C   UNL     1      31.267 -23.064 -17.414  0.00  0.00    +0.251 C 
ATOM     12  H   UNL     1      35.434 -22.831 -18.234  0.00  0.00    +0.153 HD
ENDROOT
BRANCH   4  15
ATOM     13  O   UNL     1      38.593 -24.220 -13.396  0.00  0.00    -0.448 OA
ATOM     14  N   UNL     1      37.493 -25.387 -15.024  0.00  0.00    -0.222 NA
ATOM     15  N   UNL     1      36.448 -23.582 -13.852  0.00  0.00    -0.269 N 
ATOM     16  C   UNL     1      38.874 -25.893 -14.961  0.00  0.00    +0.151 C 
ATOM     17  C   UNL     1      39.420 -25.345 -13.659  0.00  0.00    +0.233 C 
ATOM     18  C   UNL     1      37.472 -24.429 -14.147  0.00  0.00    +0.284 C 
ATOM     19  C   UNL     1      38.884 -27.408 -15.023  0.00  0.00    +0.030 C 
ATOM     20  H   UNL     1      36.625 -22.915 -13.149  0.00  0.00    +0.157 HD
ENDBRANCH   4  15
BRANCH   1  22
ATOM     21 CL   UNL     1      37.661 -19.643 -21.516  0.00  0.00    -0.079 Cl
ATOM     22  C   UNL     1      34.713 -21.489 -19.552  0.00  0.00    +0.050 C 
ATOM     23  C   UNL     1      35.972 -21.051 -19.959  0.00  0.00    +0.029 C 
ATOM     24  C   UNL     1      33.571 -21.046 -20.218  0.00  0.00    +0.018 C 
ATOM     25  C   UNL     1      34.948 -19.726 -21.701  0.00  0.00    +0.150 C 
ATOM     26  C   UNL     1      36.091 -20.170 -21.034  0.00  0.00    +0.093 C 
ATOM     27  C   UNL     1      33.689 -20.164 -21.292  0.00  0.00    +0.039 C 
BRANCH  25  28
ATOM     28  O   UNL     1      35.033 -18.864 -22.753  0.00  0.00    -0.468 OA
BRANCH  28  29
ATOM     29  C   UNL     1      35.439 -17.528 -22.463  0.00  0.00    +0.257 C 
BRANCH  29  32
ATOM     30  S   UNL     1      34.789 -17.299 -25.152  0.00  0.00    -0.067 S 
ATOM     31  N   UNL     1      34.778 -15.342 -23.462  0.00  0.00    -0.237 NA
ATOM     32  C   UNL     1      35.007 -16.630 -23.586  0.00  0.00    +0.132 C 
ATOM     33  C   UNL     1      34.349 -15.745 -25.726  0.00  0.00    +0.057 C 
ATOM     34  C   UNL     1      34.401 -14.835 -24.691  0.00  0.00    +0.106 C 
ENDBRANCH  29  32
ENDBRANCH  28  29
ENDBRANCH  25  28
ENDBRANCH   1  22
TORSDOF 5
ENDMDL
MODEL 7
REMARK VINA RESULT:      -9.9      4.636     11.849
REMARK  Name = 42642648
REMARK  5 active torsions:
REMARK  status: ('A' for Active; 'I' for Inactive)
REMARK    1  A    between atoms: N_1  and  C_22
REMARK    2  A    between atoms: C_4  and  N_15
REMARK    3  A    between atoms: C_25  and  O_28
REMARK    4  A    between atoms: O_28  and  C_29
REMARK    5  A    between atoms: C_29  and  C_32
REMARK                            x       y       z     vdW  Elec       q    Type
REMARK                         _______ _______ _______ _____ _____    ______ ____
ROOT
ATOM      1  N   UNL     1      34.285 -10.188 -24.024  0.00  0.00    -0.301 N 
ATOM      2  N   UNL     1      31.591  -7.480 -22.429  0.00  0.00    -0.248 NA
ATOM      3  N   UNL     1      32.406  -9.733 -22.681  0.00  0.00    -0.233 NA
ATOM      4  C   UNL     1      34.608  -6.057 -24.928  0.00  0.00    +0.048 C 
ATOM      5  C   UNL     1      33.509  -7.900 -23.806  0.00  0.00    +0.117 C 
ATOM      6  C   UNL     1      34.526  -7.416 -24.648  0.00  0.00    +0.001 C 
ATOM      7  C   UNL     1      32.566  -7.028 -23.237  0.00  0.00    +0.067 C 
ATOM      8  C   UNL     1      33.371  -9.247 -23.486  0.00  0.00    +0.115 C 
ATOM      9  C   UNL     1      33.680  -5.184 -24.371  0.00  0.00    +0.016 C 
ATOM     10  C   UNL     1      32.672  -5.672 -23.536  0.00  0.00    +0.016 C 
ATOM     11  C   UNL     1      31.563  -8.807 -22.196  0.00  0.00    +0.251 C 
ATOM     12  H   UNL     1      35.182  -9.819 -24.189  0.00  0.00    +0.153 HD
ENDROOT
BRANCH   4  15
ATOM     13  O   UNL     1      36.662  -4.566 -27.544  0.00  0.00    -0.448 OA
ATOM     14  N   UNL     1      34.378  -4.573 -27.557  0.00  0.00    -0.222 NA
ATOM     15  N   UNL     1      35.624  -5.566 -25.772  0.00  0.00    -0.269 N 
ATOM     16  C   UNL     1      34.833  -3.803 -28.726  0.00  0.00    +0.151 C 
ATOM     17  C   UNL     1      36.305  -4.136 -28.850  0.00  0.00    +0.233 C 
ATOM     18  C   UNL     1      35.479  -4.900 -26.952  0.00  0.00    +0.284 C 
ATOM     19  C   UNL     1      34.028  -4.182 -29.954  0.00  0.00    +0.030 C 
ATOM     20  H   UNL     1      36.550  -5.723 -25.474  0.00  0.00    +0.157 HD
ENDBRANCH   4  15
BRANCH   1  22
ATOM     21 CL   UNL     1      33.739 -13.699 -27.703  0.00  0.00    -0.079 Cl
ATOM     22  C   UNL     1      34.157 -11.544 -24.365  0.00  0.00    +0.050 C 
ATOM     23  C   UNL     1      34.026 -11.917 -25.702  0.00  0.00    +0.029 C 
ATOM     24  C   UNL     1      34.162 -12.517 -23.366  0.00  0.00    +0.018 C 
ATOM     25  C   UNL     1      33.905 -14.239 -25.041  0.00  0.00    +0.150 C 
ATOM     26  C   UNL     1      33.901 -13.264 -26.041  0.00  0.00    +0.093 C 
ATOM     27  C   UNL     1      34.036 -13.864 -23.704  0.00  0.00    +0.039 C 
BRANCH  25  28
ATOM     28  O   UNL     1      33.784 -15.562 -25.343  0.00  0.00    -0.468 OA
BRANCH  28  29
ATOM     29  C   UNL     1      34.992 -16.295 -25.536  0.00  0.00    +0.257 C 
BRANCH  29  32
ATOM     30  S   UNL     1      35.714 -17.207 -23.017  0.00  0.00    -0.067 S 
ATOM     31  N   UNL     1      34.565 -18.647 -24.830  0.00  0.00    -0.237 NA
ATOM     32  C   UNL     1      35.028 -17.444 -24.572  0.00  0.00    +0.132 C 
ATOM     33  C   UNL     1      35.369 -18.844 -22.642  0.00  0.00    +0.057 C 
ATOM     34  C   UNL     1      34.762 -19.449 -23.722  0.00  0.00    +0.106 C 
ENDBRANCH  29  32
ENDBRANCH  28  29
ENDBRANCH  25  28
ENDBRANCH   1  22
TORSDOF 5
ENDMDL
MODEL 8
REMARK VINA RESULT:      -9.9      4.149     11.889
REMARK  Name = 42642648
REMARK  5 active torsions:
REMARK  status: ('A' for Active; 'I' for Inactive)
REMARK    1  A    between atoms: N_1  and  C_22
REMARK    2  A    between atoms: C_4  and  N_15
REMARK    3  A    between atoms: C_25  and  O_28
REMARK    4  A    between atoms: O_28  and  C_29
REMARK    5  A    between atoms: C_29  and  C_32
REMARK                            x       y       z     vdW  Elec       q    Type
REMARK                         _______ _______ _______ _____ _____    ______ ____
ROOT
ATOM      1  N   UNL     1      33.851  -9.083 -23.825  0.00  0.00    -0.301 N 
ATOM      2  N   UNL     1      32.038  -6.363 -21.286  0.00  0.00    -0.248 NA
ATOM      3  N   UNL     1      32.944  -8.554 -21.719  0.00  0.00    -0.233 NA
ATOM      4  C   UNL     1      32.959  -5.161 -25.169  0.00  0.00    +0.048 C 
ATOM      5  C   UNL     1      32.953  -6.862 -23.445  0.00  0.00    +0.117 C 
ATOM      6  C   UNL     1      33.263  -6.453 -24.755  0.00  0.00    +0.001 C 
ATOM      7  C   UNL     1      32.338  -5.982 -22.540  0.00  0.00    +0.067 C 
ATOM      8  C   UNL     1      33.230  -8.140 -22.968  0.00  0.00    +0.115 C 
ATOM      9  C   UNL     1      32.350  -4.281 -24.282  0.00  0.00    +0.016 C 
ATOM     10  C   UNL     1      32.044  -4.695 -22.983  0.00  0.00    +0.016 C 
ATOM     11  C   UNL     1      32.357  -7.627 -20.943  0.00  0.00    +0.251 C 
ATOM     12  H   UNL     1      34.444  -8.678 -24.498  0.00  0.00    +0.153 HD
ENDROOT
BRANCH   4  15
ATOM     13  O   UNL     1      34.464  -4.225 -28.354  0.00  0.00    -0.448 OA
ATOM     14  N   UNL     1      35.644  -5.002 -26.559  0.00  0.00    -0.222 NA
ATOM     15  N   UNL     1      33.267  -4.745 -26.480  0.00  0.00    -0.269 N 
ATOM     16  C   UNL     1      36.587  -4.824 -27.675  0.00  0.00    +0.151 C 
ATOM     17  C   UNL     1      35.826  -3.992 -28.685  0.00  0.00    +0.233 C 
ATOM     18  C   UNL     1      34.493  -4.687 -27.070  0.00  0.00    +0.284 C 
ATOM     19  C   UNL     1      37.860  -4.159 -27.189  0.00  0.00    +0.030 C 
ATOM     20  H   UNL     1      32.504  -4.461 -27.036  0.00  0.00    +0.157 HD
ENDBRANCH   4  15
BRANCH   1  22
ATOM     21 CL   UNL     1      32.292 -13.465 -21.695  0.00  0.00    -0.079 Cl
ATOM     22  C   UNL     1      33.783 -10.484 -23.898  0.00  0.00    +0.050 C 
ATOM     23  C   UNL     1      33.149 -11.205 -22.887  0.00  0.00    +0.029 C 
ATOM     24  C   UNL     1      34.349 -11.153 -24.983  0.00  0.00    +0.018 C 
ATOM     25  C   UNL     1      33.647 -13.266 -24.046  0.00  0.00    +0.150 C 
ATOM     26  C   UNL     1      33.081 -12.597 -22.961  0.00  0.00    +0.093 C 
ATOM     27  C   UNL     1      34.281 -12.544 -25.057  0.00  0.00    +0.039 C 
BRANCH  25  28
ATOM     28  O   UNL     1      33.596 -14.625 -24.144  0.00  0.00    -0.468 OA
BRANCH  28  29
ATOM     29  C   UNL     1      34.376 -15.229 -25.175  0.00  0.00    +0.257 C 
BRANCH  29  32
ATOM     30  S   UNL     1      35.489 -17.005 -23.357  0.00  0.00    -0.067 S 
ATOM     31  N   UNL     1      34.280 -17.693 -25.535  0.00  0.00    -0.237 NA
ATOM     32  C   UNL     1      34.646 -16.659 -24.811  0.00  0.00    +0.132 C 
ATOM     33  C   UNL     1      35.361 -18.678 -23.709  0.00  0.00    +0.057 C 
ATOM     34  C   UNL     1      34.691 -18.850 -24.902  0.00  0.00    +0.106 C 
ENDBRANCH  29  32
ENDBRANCH  28  29
ENDBRANCH  25  28
ENDBRANCH   1  22
TORSDOF 5
ENDMDL
MODEL 9
REMARK VINA RESULT:      -9.5      3.679      6.725
REMARK  Name = 42642648
REMARK  5 active torsions:
REMARK  status: ('A' for Active; 'I' for Inactive)
REMARK    1  A    between atoms: N_1  and  C_22
REMARK    2  A    between atoms: C_4  and  N_15
REMARK    3  A    between atoms: C_25  and  O_28
REMARK    4  A    between atoms: O_28  and  C_29
REMARK    5  A    between atoms: C_29  and  C_32
REMARK                            x       y       z     vdW  Elec       q    Type
REMARK                         _______ _______ _______ _____ _____    ______ ____
ROOT
ATOM      1  N   UNL     1      31.924  -9.304 -22.856  0.00  0.00    -0.301 N 
ATOM      2  N   UNL     1      32.024 -11.549 -19.381  0.00  0.00    -0.248 NA
ATOM      3  N   UNL     1      31.587  -9.479 -20.534  0.00  0.00    -0.233 NA
ATOM      4  C   UNL     1      33.174 -13.356 -22.957  0.00  0.00    +0.048 C 
ATOM      5  C   UNL     1      32.380 -11.413 -21.748  0.00  0.00    +0.117 C 
ATOM      6  C   UNL     1      32.768 -12.026 -22.953  0.00  0.00    +0.001 C 
ATOM      7  C   UNL     1      32.394 -12.125 -20.538  0.00  0.00    +0.067 C 
ATOM      8  C   UNL     1      31.964 -10.087 -21.675  0.00  0.00    +0.115 C 
ATOM      9  C   UNL     1      33.192 -14.071 -21.765  0.00  0.00    +0.016 C 
ATOM     10  C   UNL     1      32.806 -13.455 -20.572  0.00  0.00    +0.016 C 
ATOM     11  C   UNL     1      31.642 -10.258 -19.441  0.00  0.00    +0.251 C 
ATOM     12  H   UNL     1      31.742  -9.825 -23.671  0.00  0.00    +0.153 HD
ENDROOT
BRANCH   4  15
ATOM     13  O   UNL     1      34.424 -15.509 -25.618  0.00  0.00    -0.448 OA
ATOM     14  N   UNL     1      34.485 -16.048 -23.399  0.00  0.00    -0.222 NA
ATOM     15  N   UNL     1      33.564 -13.975 -24.161  0.00  0.00    -0.269 N 
ATOM     16  C   UNL     1      34.994 -17.202 -24.158  0.00  0.00    +0.151 C 
ATOM     17  C   UNL     1      35.256 -16.658 -25.546  0.00  0.00    +0.233 C 
ATOM     18  C   UNL     1      34.154 -15.193 -24.319  0.00  0.00    +0.284 C 
ATOM     19  C   UNL     1      36.234 -17.766 -23.492  0.00  0.00    +0.030 C 
ATOM     20  H   UNL     1      33.390 -13.467 -24.987  0.00  0.00    +0.157 HD
ENDBRANCH   4  15
BRANCH   1  22
ATOM     21 CL   UNL     1      34.643  -5.585 -25.078  0.00  0.00    -0.079 Cl
ATOM     22  C   UNL     1      32.093  -7.929 -23.088  0.00  0.00    +0.050 C 
ATOM     23  C   UNL     1      33.154  -7.480 -23.873  0.00  0.00    +0.029 C 
ATOM     24  C   UNL     1      31.200  -7.014 -22.532  0.00  0.00    +0.018 C 
ATOM     25  C   UNL     1      32.428  -5.198 -23.547  0.00  0.00    +0.150 C 
ATOM     26  C   UNL     1      33.322  -6.114 -24.103  0.00  0.00    +0.093 C 
ATOM     27  C   UNL     1      31.368  -5.649 -22.761  0.00  0.00    +0.039 C 
BRANCH  25  28
ATOM     28  O   UNL     1      32.568  -3.858 -23.754  0.00  0.00    -0.468 OA
BRANCH  28  29
ATOM     29  C   UNL     1      31.386  -3.064 -23.666  0.00  0.00    +0.257 C 
BRANCH  29  32
ATOM     30  S   UNL     1      32.248  -2.480 -26.238  0.00  0.00    -0.067 S 
ATOM     31  N   UNL     1      29.823  -2.180 -25.395  0.00  0.00    -0.237 NA
ATOM     32  C   UNL     1      31.027  -2.566 -25.036  0.00  0.00    +0.132 C 
ATOM     33  C   UNL     1      31.083  -1.878 -27.343  0.00  0.00    +0.057 C 
ATOM     34  C   UNL     1      29.857  -1.786 -26.719  0.00  0.00    +0.106 C 
ENDBRANCH  29  32
ENDBRANCH  28  29
ENDBRANCH  25  28
ENDBRANCH   1  22
TORSDOF 5
ENDMDL
