MODEL 1
REMARK VINA RESULT:     -12.7      0.000      0.000
REMARK  Name = 25243853
REMARK  6 active torsions:
REMARK  status: ('A' for Active; 'I' for Inactive)
REMARK    1  A    between atoms: N_1  and  C_6
REMARK    2  A    between atoms: N_1  and  C_21
REMARK    3  A    between atoms: C_3  and  C_16
REMARK    4  A    between atoms: C_11  and  C_18
REMARK    5  A    between atoms: C_18  and  O_19
REMARK    6  A    between atoms: C_21  and  C_28
REMARK                            x       y       z     vdW  Elec       q    Type
REMARK                         _______ _______ _______ _____ _____    ______ ____
ROOT
ATOM      1  N   UNL     1      35.763 -19.205 -22.528  0.00  0.00    -0.327 N 
ATOM      2  H   UNL     1      36.041 -19.623 -23.375  0.00  0.00    +0.147 HD
ENDROOT
BRANCH   1   6
ATOM      3  C   UNL     1      34.283 -21.671 -19.466  0.00  0.00    +0.054 C 
ATOM      4  C   UNL     1      35.657 -21.591 -19.694  0.00  0.00    +0.006 C 
ATOM      5  C   UNL     1      33.401 -20.933 -20.255  0.00  0.00    +0.006 C 
ATOM      6  C   UNL     1      35.266 -20.034 -21.499  0.00  0.00    +0.045 C 
ATOM      7  C   UNL     1      36.148 -20.771 -20.710  0.00  0.00    +0.014 C 
ATOM      8  C   UNL     1      33.892 -20.114 -21.272  0.00  0.00    +0.014 C 
BRANCH   3  16
ATOM      9  O   UNL     1      32.553 -22.741 -18.407  0.00  0.00    -0.270 OA
ATOM     10  N   UNL     1      34.673 -23.047 -17.467  0.00  0.00    -0.276 N 
ATOM     11  C   UNL     1      36.042 -22.947 -14.908  0.00  0.00    +0.102 C 
ATOM     12  C   UNL     1      34.552 -23.283 -15.021  0.00  0.00    +0.033 C 
ATOM     13  C   UNL     1      36.553 -22.175 -16.128  0.00  0.00    +0.033 C 
ATOM     14  C   UNL     1      34.191 -23.889 -16.376  0.00  0.00    +0.094 C 
ATOM     15  C   UNL     1      36.119 -22.797 -17.457  0.00  0.00    +0.094 C 
ATOM     16  C   UNL     1      33.765 -22.534 -18.397  0.00  0.00    +0.249 C 
BRANCH  11  18
ATOM     17  O   UNL     1      36.363 -25.258 -14.302  0.00  0.00    -0.250 OA
ATOM     18  C   UNL     1      36.842 -24.199 -14.684  0.00  0.00    +0.317 C 
BRANCH  18  19
ATOM     19  O   UNL     1      38.153 -23.959 -14.971  0.00  0.00    -0.444 OA
ATOM     20  C   UNL     1      39.021 -25.092 -14.869  0.00  0.00    +0.256 C 
ENDBRANCH  18  19
ENDBRANCH  11  18
ENDBRANCH   3  16
ENDBRANCH   1   6
BRANCH   1  21
ATOM     21  C   UNL     1      35.881 -17.787 -22.394  0.00  0.00    +0.145 C 
BRANCH  21  28
ATOM     22  N   UNL     1      35.074 -15.770 -23.502  0.00  0.00    -0.392 NA
ATOM     23  N   UNL     1      34.422 -17.181 -25.792  0.00  0.00    -0.200 NA
ATOM     24  N   UNL     1      33.670 -15.234 -26.795  0.00  0.00    -0.271 NA
ATOM     25  N   UNL     1      33.749 -13.138 -25.633  0.00  0.00    -0.310 NA
ATOM     26  N   UNL     1      34.604 -13.054 -23.432  0.00  0.00    -0.329 N 
ATOM     27  N   UNL     1      32.907 -13.262 -27.814  0.00  0.00    -0.283 N 
ATOM     28  C   UNL     1      35.282 -17.093 -23.586  0.00  0.00    +0.133 C 
ATOM     29  C   UNL     1      34.960 -17.790 -24.719  0.00  0.00    +0.193 C 
ATOM     30  C   UNL     1      34.536 -15.162 -24.578  0.00  0.00    +0.248 C 
ATOM     31  C   UNL     1      34.203 -15.861 -25.740  0.00  0.00    +0.131 C 
ATOM     32  C   UNL     1      34.283 -13.804 -24.593  0.00  0.00    +0.231 C 
ATOM     33  C   UNL     1      33.470 -13.907 -26.691  0.00  0.00    +0.207 C 
ATOM     34  H   UNL     1      34.436 -12.085 -23.410  0.00  0.00    +0.145 HD
ATOM     35  H   UNL     1      34.995 -13.504 -22.648  0.00  0.00    +0.145 HD
ATOM     36  H   UNL     1      32.682 -13.783 -28.619  0.00  0.00    +0.156 HD
ATOM     37  H   UNL     1      32.738 -12.292 -27.792  0.00  0.00    +0.156 HD
ENDBRANCH  21  28
ENDBRANCH   1  21
TORSDOF 6
ENDMDL
MODEL 2
REMARK VINA RESULT:     -11.7      1.693      2.706
REMARK  Name = 25243853
REMARK  6 active torsions:
REMARK  status: ('A' for Active; 'I' for Inactive)
REMARK    1  A    between atoms: N_1  and  C_6
REMARK    2  A    between atoms: N_1  and  C_21
REMARK    3  A    between atoms: C_3  and  C_16
REMARK    4  A    between atoms: C_11  and  C_18
REMARK    5  A    between atoms: C_18  and  O_19
REMARK    6  A    between atoms: C_21  and  C_28
REMARK                            x       y       z     vdW  Elec       q    Type
REMARK                         _______ _______ _______ _____ _____    ______ ____
ROOT
ATOM      1  N   UNL     1      35.777 -20.861 -20.857  0.00  0.00    -0.327 N 
ATOM      2  H   UNL     1      35.419 -21.188 -21.713  0.00  0.00    +0.147 HD
ENDROOT
BRANCH   1   6
ATOM      3  C   UNL     1      34.775 -22.926 -17.339  0.00  0.00    +0.054 C 
ATOM      4  C   UNL     1      33.840 -22.804 -18.367  0.00  0.00    +0.006 C 
ATOM      5  C   UNL     1      36.043 -22.362 -17.481  0.00  0.00    +0.006 C 
ATOM      6  C   UNL     1      35.441 -21.555 -19.676  0.00  0.00    +0.045 C 
ATOM      7  C   UNL     1      34.173 -22.119 -19.536  0.00  0.00    +0.014 C 
ATOM      8  C   UNL     1      36.376 -21.677 -18.648  0.00  0.00    +0.014 C 
BRANCH   3  16
ATOM      9  O   UNL     1      33.226 -23.840 -15.917  0.00  0.00    -0.270 OA
ATOM     10  N   UNL     1      35.463 -24.056 -15.268  0.00  0.00    -0.276 N 
ATOM     11  C   UNL     1      37.193 -23.668 -12.968  0.00  0.00    +0.102 C 
ATOM     12  C   UNL     1      35.704 -23.997 -12.820  0.00  0.00    +0.033 C 
ATOM     13  C   UNL     1      37.515 -23.054 -14.334  0.00  0.00    +0.033 C 
ATOM     14  C   UNL     1      35.152 -24.756 -14.025  0.00  0.00    +0.094 C 
ATOM     15  C   UNL     1      36.894 -23.825 -15.500  0.00  0.00    +0.094 C 
ATOM     16  C   UNL     1      34.425 -23.647 -16.110  0.00  0.00    +0.249 C 
BRANCH  11  18
ATOM     17  O   UNL     1      37.621 -25.883 -12.120  0.00  0.00    -0.250 OA
ATOM     18  C   UNL     1      38.024 -24.894 -12.716  0.00  0.00    +0.317 C 
BRANCH  18  19
ATOM     19  O   UNL     1      39.267 -24.719 -13.247  0.00  0.00    -0.444 OA
ATOM     20  C   UNL     1      39.789 -25.839 -13.970  0.00  0.00    +0.256 C 
ENDBRANCH  18  19
ENDBRANCH  11  18
ENDBRANCH   3  16
ENDBRANCH   1   6
BRANCH   1  21
ATOM     21  C   UNL     1      36.618 -19.704 -20.865  0.00  0.00    +0.145 C 
BRANCH  21  28
ATOM     22  N   UNL     1      35.683 -17.522 -21.422  0.00  0.00    -0.392 NA
ATOM     23  N   UNL     1      35.702 -18.105 -24.128  0.00  0.00    -0.200 NA
ATOM     24  N   UNL     1      34.813 -16.019 -24.598  0.00  0.00    -0.271 NA
ATOM     25  N   UNL     1      34.320 -14.463 -22.841  0.00  0.00    -0.310 NA
ATOM     26  N   UNL     1      34.744 -15.065 -20.596  0.00  0.00    -0.329 N 
ATOM     27  N   UNL     1      33.912 -13.906 -25.078  0.00  0.00    -0.283 N 
ATOM     28  C   UNL     1      36.129 -18.704 -21.875  0.00  0.00    +0.133 C 
ATOM     29  C   UNL     1      36.138 -18.991 -23.213  0.00  0.00    +0.193 C 
ATOM     30  C   UNL     1      35.247 -16.636 -22.339  0.00  0.00    +0.248 C 
ATOM     31  C   UNL     1      35.251 -16.917 -23.708  0.00  0.00    +0.131 C 
ATOM     32  C   UNL     1      34.769 -15.392 -21.977  0.00  0.00    +0.231 C 
ATOM     33  C   UNL     1      34.370 -14.839 -24.124  0.00  0.00    +0.207 C 
ATOM     34  H   UNL     1      34.409 -14.187 -20.304  0.00  0.00    +0.145 HD
ATOM     35  H   UNL     1      35.061 -15.717 -19.930  0.00  0.00    +0.145 HD
ATOM     36  H   UNL     1      33.927 -14.133 -26.036  0.00  0.00    +0.156 HD
ATOM     37  H   UNL     1      33.576 -13.027 -24.786  0.00  0.00    +0.156 HD
ENDBRANCH  21  28
ENDBRANCH   1  21
TORSDOF 6
ENDMDL
MODEL 3
REMARK VINA RESULT:     -11.6      0.819      1.989
REMARK  Name = 25243853
REMARK  6 active torsions:
REMARK  status: ('A' for Active; 'I' for Inactive)
REMARK    1  A    between atoms: N_1  and  C_6
REMARK    2  A    between atoms: N_1  and  C_21
REMARK    3  A    between atoms: C_3  and  C_16
REMARK    4  A    between atoms: C_11  and  C_18
REMARK    5  A    between atoms: C_18  and  O_19
REMARK    6  A    between atoms: C_21  and  C_28
REMARK                            x       y       z     vdW  Elec       q    Type
REMARK                         _______ _______ _______ _____ _____    ______ ____
ROOT
ATOM      1  N   UNL     1      36.167 -19.058 -22.274  0.00  0.00    -0.327 N 
ATOM      2  H   UNL     1      37.086 -18.738 -22.130  0.00  0.00    +0.147 HD
ENDROOT
BRANCH   1   6
ATOM      3  C   UNL     1      34.495 -21.683 -19.453  0.00  0.00    +0.054 C 
ATOM      4  C   UNL     1      33.664 -20.893 -20.248  0.00  0.00    +0.006 C 
ATOM      5  C   UNL     1      35.880 -21.601 -19.595  0.00  0.00    +0.006 C 
ATOM      6  C   UNL     1      35.605 -19.940 -21.326  0.00  0.00    +0.045 C 
ATOM      7  C   UNL     1      34.220 -20.022 -21.185  0.00  0.00    +0.014 C 
ATOM      8  C   UNL     1      36.435 -20.730 -20.531  0.00  0.00    +0.014 C 
BRANCH   3  16
ATOM      9  O   UNL     1      32.719 -22.866 -18.612  0.00  0.00    -0.270 OA
ATOM     10  N   UNL     1      34.740 -23.097 -17.457  0.00  0.00    -0.276 N 
ATOM     11  C   UNL     1      35.822 -23.008 -14.764  0.00  0.00    +0.102 C 
ATOM     12  C   UNL     1      34.371 -23.411 -15.044  0.00  0.00    +0.033 C 
ATOM     13  C   UNL     1      36.420 -22.177 -15.903  0.00  0.00    +0.033 C 
ATOM     14  C   UNL     1      34.188 -23.993 -16.445  0.00  0.00    +0.094 C 
ATOM     15  C   UNL     1      36.162 -22.778 -17.285  0.00  0.00    +0.094 C 
ATOM     16  C   UNL     1      33.911 -22.600 -18.466  0.00  0.00    +0.249 C 
BRANCH  11  18
ATOM     17  O   UNL     1      36.194 -25.342 -14.292  0.00  0.00    -0.250 OA
ATOM     18  C   UNL     1      36.656 -24.226 -14.486  0.00  0.00    +0.317 C 
BRANCH  18  19
ATOM     19  O   UNL     1      37.976 -23.883 -14.486  0.00  0.00    -0.444 OA
ATOM     20  C   UNL     1      38.867 -24.875 -15.005  0.00  0.00    +0.256 C 
ENDBRANCH  18  19
ENDBRANCH  11  18
ENDBRANCH   3  16
ENDBRANCH   1   6
BRANCH   1  21
ATOM     21  C   UNL     1      35.459 -18.609 -23.431  0.00  0.00    +0.145 C 
BRANCH  21  28
ATOM     22  N   UNL     1      34.746 -16.507 -24.442  0.00  0.00    -0.392 NA
ATOM     23  N   UNL     1      35.094 -15.140 -22.060  0.00  0.00    -0.200 NA
ATOM     24  N   UNL     1      34.409 -13.174 -23.072  0.00  0.00    -0.271 NA
ATOM     25  N   UNL     1      33.783 -13.130 -25.387  0.00  0.00    -0.310 NA
ATOM     26  N   UNL     1      33.867 -15.120 -26.656  0.00  0.00    -0.329 N 
ATOM     27  N   UNL     1      33.716 -11.178 -24.095  0.00  0.00    -0.283 N 
ATOM     28  C   UNL     1      35.173 -17.136 -23.336  0.00  0.00    +0.133 C 
ATOM     29  C   UNL     1      35.344 -16.460 -22.159  0.00  0.00    +0.193 C 
ATOM     30  C   UNL     1      34.496 -15.187 -24.341  0.00  0.00    +0.248 C 
ATOM     31  C   UNL     1      34.666 -14.485 -23.146  0.00  0.00    +0.131 C 
ATOM     32  C   UNL     1      34.052 -14.448 -25.420  0.00  0.00    +0.231 C 
ATOM     33  C   UNL     1      33.982 -12.561 -24.192  0.00  0.00    +0.207 C 
ATOM     34  H   UNL     1      33.553 -14.623 -27.445  0.00  0.00    +0.145 HD
ATOM     35  H   UNL     1      34.054 -16.084 -26.725  0.00  0.00    +0.145 HD
ATOM     36  H   UNL     1      33.847 -10.711 -23.238  0.00  0.00    +0.156 HD
ATOM     37  H   UNL     1      33.402 -10.680 -24.884  0.00  0.00    +0.156 HD
ENDBRANCH  21  28
ENDBRANCH   1  21
TORSDOF 6
ENDMDL
MODEL 4
REMARK VINA RESULT:     -11.5      4.852     11.249
REMARK  Name = 25243853
REMARK  6 active torsions:
REMARK  status: ('A' for Active; 'I' for Inactive)
REMARK    1  A    between atoms: N_1  and  C_6
REMARK    2  A    between atoms: N_1  and  C_21
REMARK    3  A    between atoms: C_3  and  C_16
REMARK    4  A    between atoms: C_11  and  C_18
REMARK    5  A    between atoms: C_18  and  O_19
REMARK    6  A    between atoms: C_21  and  C_28
REMARK                            x       y       z     vdW  Elec       q    Type
REMARK                         _______ _______ _______ _____ _____    ______ ____
ROOT
ATOM      1  N   UNL     1      35.689 -19.806 -22.939  0.00  0.00    -0.327 N 
ATOM      2  H   UNL     1      35.684 -20.683 -23.385  0.00  0.00    +0.147 HD
ENDROOT
BRANCH   1   6
ATOM      3  C   UNL     1      34.458 -16.436 -25.124  0.00  0.00    +0.054 C 
ATOM      4  C   UNL     1      34.057 -17.711 -25.524  0.00  0.00    +0.006 C 
ATOM      5  C   UNL     1      35.267 -16.281 -23.998  0.00  0.00    +0.006 C 
ATOM      6  C   UNL     1      35.275 -18.674 -23.673  0.00  0.00    +0.045 C 
ATOM      7  C   UNL     1      34.466 -18.830 -24.797  0.00  0.00    +0.014 C 
ATOM      8  C   UNL     1      35.676 -17.399 -23.272  0.00  0.00    +0.014 C 
BRANCH   3  16
ATOM      9  O   UNL     1      34.025 -15.377 -27.111  0.00  0.00    -0.270 OA
ATOM     10  N   UNL     1      33.658 -14.113 -25.178  0.00  0.00    -0.276 N 
ATOM     11  C   UNL     1      34.252 -11.508 -24.038  0.00  0.00    +0.102 C 
ATOM     12  C   UNL     1      34.144 -11.730 -25.550  0.00  0.00    +0.033 C 
ATOM     13  C   UNL     1      34.555 -12.808 -23.286  0.00  0.00    +0.033 C 
ATOM     14  C   UNL     1      33.247 -12.914 -25.904  0.00  0.00    +0.094 C 
ATOM     15  C   UNL     1      33.663 -13.973 -23.717  0.00  0.00    +0.094 C 
ATOM     16  C   UNL     1      34.028 -15.258 -25.887  0.00  0.00    +0.249 C 
BRANCH  11  18
ATOM     17  O   UNL     1      32.270 -11.361 -22.674  0.00  0.00    -0.250 OA
ATOM     18  C   UNL     1      33.001 -10.859 -23.517  0.00  0.00    +0.317 C 
BRANCH  18  19
ATOM     19  O   UNL     1      32.828  -9.652 -24.125  0.00  0.00    -0.444 OA
ATOM     20  C   UNL     1      33.442  -8.539 -23.468  0.00  0.00    +0.256 C 
ENDBRANCH  18  19
ENDBRANCH  11  18
ENDBRANCH   3  16
ENDBRANCH   1   6
BRANCH   1  21
ATOM     21  C   UNL     1      36.114 -19.734 -21.575  0.00  0.00    +0.145 C 
BRANCH  21  28
ATOM     22  N   UNL     1      35.726 -21.159 -19.634  0.00  0.00    -0.392 NA
ATOM     23  N   UNL     1      33.018 -21.324 -20.185  0.00  0.00    -0.200 NA
ATOM     24  N   UNL     1      32.709 -22.673 -18.329  0.00  0.00    -0.271 NA
ATOM     25  N   UNL     1      34.554 -23.277 -16.921  0.00  0.00    -0.310 NA
ATOM     26  N   UNL     1      36.721 -22.487 -17.433  0.00  0.00    -0.329 N 
ATOM     27  N   UNL     1      32.392 -24.042 -16.448  0.00  0.00    -0.283 N 
ATOM     28  C   UNL     1      35.193 -20.531 -20.694  0.00  0.00    +0.133 C 
ATOM     29  C   UNL     1      33.854 -20.613 -20.965  0.00  0.00    +0.193 C 
ATOM     30  C   UNL     1      34.888 -21.869 -18.854  0.00  0.00    +0.248 C 
ATOM     31  C   UNL     1      33.520 -21.961 -19.119  0.00  0.00    +0.131 C 
ATOM     32  C   UNL     1      35.336 -22.551 -17.740  0.00  0.00    +0.231 C 
ATOM     33  C   UNL     1      33.263 -23.295 -17.270  0.00  0.00    +0.207 C 
ATOM     34  H   UNL     1      37.073 -22.962 -16.647  0.00  0.00    +0.145 HD
ATOM     35  H   UNL     1      37.329 -21.969 -18.008  0.00  0.00    +0.145 HD
ATOM     36  H   UNL     1      31.432 -24.088 -16.662  0.00  0.00    +0.156 HD
ATOM     37  H   UNL     1      32.744 -24.517 -15.661  0.00  0.00    +0.156 HD
ENDBRANCH  21  28
ENDBRANCH   1  21
TORSDOF 6
ENDMDL
MODEL 5
REMARK VINA RESULT:     -11.4      5.169      8.648
REMARK  Name = 25243853
REMARK  6 active torsions:
REMARK  status: ('A' for Active; 'I' for Inactive)
REMARK    1  A    between atoms: N_1  and  C_6
REMARK    2  A    between atoms: N_1  and  C_21
REMARK    3  A    between atoms: C_3  and  C_16
REMARK    4  A    between atoms: C_11  and  C_18
REMARK    5  A    between atoms: C_18  and  O_19
REMARK    6  A    between atoms: C_21  and  C_28
REMARK                            x       y       z     vdW  Elec       q    Type
REMARK                         _______ _______ _______ _____ _____    ______ ____
ROOT
ATOM      1  N   UNL     1      33.820 -11.232 -25.024  0.00  0.00    -0.327 N 
ATOM      2  H   UNL     1      33.229 -10.814 -25.691  0.00  0.00    +0.147 HD
ENDROOT
BRANCH   1   6
ATOM      3  C   UNL     1      34.296 -15.405 -25.103  0.00  0.00    +0.054 C 
ATOM      4  C   UNL     1      33.840 -14.734 -26.238  0.00  0.00    +0.006 C 
ATOM      5  C   UNL     1      34.594 -14.691 -23.943  0.00  0.00    +0.006 C 
ATOM      6  C   UNL     1      33.980 -12.634 -25.051  0.00  0.00    +0.045 C 
ATOM      7  C   UNL     1      33.682 -13.348 -26.211  0.00  0.00    +0.014 C 
ATOM      8  C   UNL     1      34.437 -13.306 -23.917  0.00  0.00    +0.014 C 
BRANCH   3  16
ATOM      9  O   UNL     1      33.920 -17.454 -26.064  0.00  0.00    -0.270 OA
ATOM     10  N   UNL     1      35.212 -17.460 -24.114  0.00  0.00    -0.276 N 
ATOM     11  C   UNL     1      35.427 -18.815 -21.554  0.00  0.00    +0.102 C 
ATOM     12  C   UNL     1      34.844 -19.503 -22.793  0.00  0.00    +0.033 C 
ATOM     13  C   UNL     1      35.358 -17.289 -21.657  0.00  0.00    +0.033 C 
ATOM     14  C   UNL     1      35.379 -18.911 -24.095  0.00  0.00    +0.094 C 
ATOM     15  C   UNL     1      35.857 -16.754 -23.000  0.00  0.00    +0.094 C 
ATOM     16  C   UNL     1      34.462 -16.864 -25.130  0.00  0.00    +0.249 C 
BRANCH  11  18
ATOM     17  O   UNL     1      37.766 -19.063 -22.080  0.00  0.00    -0.250 OA
ATOM     18  C   UNL     1      36.836 -19.279 -21.315  0.00  0.00    +0.317 C 
BRANCH  18  19
ATOM     19  O   UNL     1      36.896 -19.962 -20.137  0.00  0.00    -0.444 OA
ATOM     20  C   UNL     1      36.248 -21.238 -20.133  0.00  0.00    +0.256 C 
ENDBRANCH  18  19
ENDBRANCH  11  18
ENDBRANCH   3  16
ENDBRANCH   1   6
BRANCH   1  21
ATOM     21  C   UNL     1      34.480 -10.394 -24.072  0.00  0.00    +0.145 C 
BRANCH  21  28
ATOM     22  N   UNL     1      33.825  -8.045 -24.037  0.00  0.00    -0.392 NA
ATOM     23  N   UNL     1      31.673  -8.578 -22.379  0.00  0.00    -0.200 NA
ATOM     24  N   UNL     1      31.098  -6.335 -22.381  0.00  0.00    -0.271 NA
ATOM     25  N   UNL     1      32.387  -4.732 -23.614  0.00  0.00    -0.310 NA
ATOM     26  N   UNL     1      34.273  -5.448 -24.843  0.00  0.00    -0.329 N 
ATOM     27  N   UNL     1      30.513  -4.062 -22.381  0.00  0.00    -0.283 N 
ATOM     28  C   UNL     1      33.565  -9.292 -23.616  0.00  0.00    +0.133 C 
ATOM     29  C   UNL     1      32.500  -9.555 -22.796  0.00  0.00    +0.193 C 
ATOM     30  C   UNL     1      32.996  -7.069 -23.618  0.00  0.00    +0.248 C 
ATOM     31  C   UNL     1      31.907  -7.323 -22.782  0.00  0.00    +0.131 C 
ATOM     32  C   UNL     1      33.177  -5.752 -23.996  0.00  0.00    +0.231 C 
ATOM     33  C   UNL     1      31.376  -5.091 -22.815  0.00  0.00    +0.207 C 
ATOM     34  H   UNL     1      34.431  -4.520 -25.130  0.00  0.00    +0.145 HD
ATOM     35  H   UNL     1      34.877  -6.164 -25.144  0.00  0.00    +0.145 HD
ATOM     36  H   UNL     1      29.753  -4.273 -21.791  0.00  0.00    +0.156 HD
ATOM     37  H   UNL     1      30.670  -3.133 -22.668  0.00  0.00    +0.156 HD
ENDBRANCH  21  28
ENDBRANCH   1  21
TORSDOF 6
ENDMDL
MODEL 6
REMARK VINA RESULT:     -11.2      5.548     11.648
REMARK  Name = 25243853
REMARK  6 active torsions:
REMARK  status: ('A' for Active; 'I' for Inactive)
REMARK    1  A    between atoms: N_1  and  C_6
REMARK    2  A    between atoms: N_1  and  C_21
REMARK    3  A    between atoms: C_3  and  C_16
REMARK    4  A    between atoms: C_11  and  C_18
REMARK    5  A    between atoms: C_18  and  O_19
REMARK    6  A    between atoms: C_21  and  C_28
REMARK                            x       y       z     vdW  Elec       q    Type
REMARK                         _______ _______ _______ _____ _____    ______ ____
ROOT
ATOM      1  N   UNL     1      35.766 -16.461 -23.808  0.00  0.00    -0.327 N 
ATOM      2  H   UNL     1      36.687 -16.229 -24.068  0.00  0.00    +0.147 HD
ENDROOT
BRANCH   1   6
ATOM      3  C   UNL     1      33.283 -13.428 -22.298  0.00  0.00    +0.054 C 
ATOM      4  C   UNL     1      34.071 -14.182 -21.428  0.00  0.00    +0.006 C 
ATOM      5  C   UNL     1      33.322 -13.681 -23.669  0.00  0.00    +0.006 C 
ATOM      6  C   UNL     1      34.933 -15.442 -23.301  0.00  0.00    +0.045 C 
ATOM      7  C   UNL     1      34.896 -15.189 -21.930  0.00  0.00    +0.014 C 
ATOM      8  C   UNL     1      34.145 -14.687 -24.171  0.00  0.00    +0.014 C 
BRANCH   3  16
ATOM      9  O   UNL     1      31.502 -12.733 -21.032  0.00  0.00    -0.270 OA
ATOM     10  N   UNL     1      32.690 -11.048 -22.137  0.00  0.00    -0.276 N 
ATOM     11  C   UNL     1      32.266  -8.723 -23.824  0.00  0.00    +0.102 C 
ATOM     12  C   UNL     1      31.216  -9.198 -22.814  0.00  0.00    +0.033 C 
ATOM     13  C   UNL     1      33.233  -9.842 -24.219  0.00  0.00    +0.033 C 
ATOM     14  C   UNL     1      31.834  -9.970 -21.650  0.00  0.00    +0.094 C 
ATOM     15  C   UNL     1      33.781 -10.615 -23.018  0.00  0.00    +0.094 C 
ATOM     16  C   UNL     1      32.415 -12.368 -21.770  0.00  0.00    +0.249 C 
BRANCH  11  18
ATOM     17  O   UNL     1      34.219  -7.390 -23.357  0.00  0.00    -0.250 OA
ATOM     18  C   UNL     1      33.006  -7.533 -23.284  0.00  0.00    +0.317 C 
BRANCH  18  19
ATOM     19  O   UNL     1      32.121  -6.666 -22.715  0.00  0.00    -0.444 OA
ATOM     20  C   UNL     1      32.591  -5.989 -21.545  0.00  0.00    +0.256 C 
ENDBRANCH  18  19
ENDBRANCH  11  18
ENDBRANCH   3  16
ENDBRANCH   1   6
BRANCH   1  21
ATOM     21  C   UNL     1      35.331 -17.814 -23.963  0.00  0.00    +0.145 C 
BRANCH  21  28
ATOM     22  N   UNL     1      34.787 -19.368 -22.164  0.00  0.00    -0.392 NA
ATOM     23  N   UNL     1      37.402 -19.371 -21.255  0.00  0.00    -0.200 NA
ATOM     24  N   UNL     1      36.828 -20.847 -19.566  0.00  0.00    -0.271 NA
ATOM     25  N   UNL     1      34.576 -21.639 -19.332  0.00  0.00    -0.310 NA
ATOM     26  N   UNL     1      32.917 -20.903 -20.844  0.00  0.00    -0.329 N 
ATOM     27  N   UNL     1      36.249 -22.343 -17.852  0.00  0.00    -0.283 N 
ATOM     28  C   UNL     1      35.735 -18.637 -22.772  0.00  0.00    +0.133 C 
ATOM     29  C   UNL     1      37.027 -18.639 -22.321  0.00  0.00    +0.193 C 
ATOM     30  C   UNL     1      35.164 -20.100 -21.097  0.00  0.00    +0.248 C 
ATOM     31  C   UNL     1      36.479 -20.111 -20.628  0.00  0.00    +0.131 C 
ATOM     32  C   UNL     1      34.266 -20.886 -20.403  0.00  0.00    +0.231 C 
ATOM     33  C   UNL     1      35.863 -21.573 -18.971  0.00  0.00    +0.207 C 
ATOM     34  H   UNL     1      32.251 -21.453 -20.371  0.00  0.00    +0.145 HD
ATOM     35  H   UNL     1      32.646 -20.365 -21.623  0.00  0.00    +0.145 HD
ATOM     36  H   UNL     1      37.184 -22.329 -17.545  0.00  0.00    +0.156 HD
ATOM     37  H   UNL     1      35.583 -22.893 -17.379  0.00  0.00    +0.156 HD
ENDBRANCH  21  28
ENDBRANCH   1  21
TORSDOF 6
ENDMDL
MODEL 7
REMARK VINA RESULT:     -11.1      4.057     11.389
REMARK  Name = 25243853
REMARK  6 active torsions:
REMARK  status: ('A' for Active; 'I' for Inactive)
REMARK    1  A    between atoms: N_1  and  C_6
REMARK    2  A    between atoms: N_1  and  C_21
REMARK    3  A    between atoms: C_3  and  C_16
REMARK    4  A    between atoms: C_11  and  C_18
REMARK    5  A    between atoms: C_18  and  O_19
REMARK    6  A    between atoms: C_21  and  C_28
REMARK                            x       y       z     vdW  Elec       q    Type
REMARK                         _______ _______ _______ _____ _____    ______ ____
ROOT
ATOM      1  N   UNL     1      36.716 -21.446 -19.487  0.00  0.00    -0.327 N 
ATOM      2  H   UNL     1      37.663 -21.688 -19.375  0.00  0.00    +0.147 HD
ENDROOT
BRANCH   1   6
ATOM      3  C   UNL     1      35.718 -18.515 -22.327  0.00  0.00    +0.054 C 
ATOM      4  C   UNL     1      36.996 -18.537 -21.767  0.00  0.00    +0.006 C 
ATOM      5  C   UNL     1      34.773 -19.467 -21.944  0.00  0.00    +0.006 C 
ATOM      6  C   UNL     1      36.381 -20.461 -20.442  0.00  0.00    +0.045 C 
ATOM      7  C   UNL     1      37.327 -19.511 -20.824  0.00  0.00    +0.014 C 
ATOM      8  C   UNL     1      35.104 -20.439 -21.002  0.00  0.00    +0.014 C 
BRANCH   3  16
ATOM      9  O   UNL     1      35.721 -17.714 -24.476  0.00  0.00    -0.270 OA
ATOM     10  N   UNL     1      34.672 -16.362 -22.882  0.00  0.00    -0.276 N 
ATOM     11  C   UNL     1      34.585 -13.607 -21.966  0.00  0.00    +0.102 C 
ATOM     12  C   UNL     1      34.930 -13.973 -23.413  0.00  0.00    +0.033 C 
ATOM     13  C   UNL     1      34.832 -14.772 -21.002  0.00  0.00    +0.033 C 
ATOM     14  C   UNL     1      34.328 -15.311 -23.836  0.00  0.00    +0.094 C 
ATOM     15  C   UNL     1      34.253 -16.097 -21.500  0.00  0.00    +0.094 C 
ATOM     16  C   UNL     1      35.369 -17.491 -23.319  0.00  0.00    +0.249 C 
BRANCH  11  18
ATOM     17  O   UNL     1      32.545 -12.645 -22.817  0.00  0.00    -0.250 OA
ATOM     18  C   UNL     1      33.166 -13.122 -21.876  0.00  0.00    +0.317 C 
BRANCH  18  19
ATOM     19  O   UNL     1      32.704 -13.297 -20.606  0.00  0.00    -0.444 OA
ATOM     20  C   UNL     1      31.981 -12.191 -20.057  0.00  0.00    +0.256 C 
ENDBRANCH  18  19
ENDBRANCH  11  18
ENDBRANCH   3  16
ENDBRANCH   1   6
BRANCH   1  21
ATOM     21  C   UNL     1      35.740 -22.107 -18.679  0.00  0.00    +0.145 C 
BRANCH  21  28
ATOM     22  N   UNL     1      35.593 -23.242 -16.526  0.00  0.00    -0.392 NA
ATOM     23  N   UNL     1      38.054 -22.252 -15.735  0.00  0.00    -0.200 NA
ATOM     24  N   UNL     1      37.862 -23.352 -13.707  0.00  0.00    -0.271 NA
ATOM     25  N   UNL     1      35.929 -24.680 -13.202  0.00  0.00    -0.310 NA
ATOM     26  N   UNL     1      34.194 -24.868 -14.795  0.00  0.00    -0.329 N 
ATOM     27  N   UNL     1      37.669 -24.466 -11.650  0.00  0.00    -0.283 N 
ATOM     28  C   UNL     1      36.313 -22.446 -17.331  0.00  0.00    +0.133 C 
ATOM     29  C   UNL     1      37.530 -21.957 -16.940  0.00  0.00    +0.193 C 
ATOM     30  C   UNL     1      36.120 -23.536 -15.321  0.00  0.00    +0.248 C 
ATOM     31  C   UNL     1      37.361 -23.045 -14.909  0.00  0.00    +0.131 C 
ATOM     32  C   UNL     1      35.460 -24.348 -14.419  0.00  0.00    +0.231 C 
ATOM     33  C   UNL     1      37.125 -24.152 -12.914  0.00  0.00    +0.207 C 
ATOM     34  H   UNL     1      33.697 -25.449 -14.175  0.00  0.00    +0.145 HD
ATOM     35  H   UNL     1      33.813 -24.648 -15.675  0.00  0.00    +0.145 HD
ATOM     36  H   UNL     1      38.546 -24.103 -11.388  0.00  0.00    +0.156 HD
ATOM     37  H   UNL     1      37.172 -25.047 -11.030  0.00  0.00    +0.156 HD
ENDBRANCH  21  28
ENDBRANCH   1  21
TORSDOF 6
ENDMDL
MODEL 8
REMARK VINA RESULT:     -11.0      1.363      2.363
REMARK  Name = 25243853
REMARK  6 active torsions:
REMARK  status: ('A' for Active; 'I' for Inactive)
REMARK    1  A    between atoms: N_1  and  C_6
REMARK    2  A    between atoms: N_1  and  C_21
REMARK    3  A    between atoms: C_3  and  C_16
REMARK    4  A    between atoms: C_11  and  C_18
REMARK    5  A    between atoms: C_18  and  O_19
REMARK    6  A    between atoms: C_21  and  C_28
REMARK                            x       y       z     vdW  Elec       q    Type
REMARK                         _______ _______ _______ _____ _____    ______ ____
ROOT
ATOM      1  N   UNL     1      36.358 -19.679 -21.264  0.00  0.00    -0.327 N 
ATOM      2  H   UNL     1      37.228 -19.251 -21.096  0.00  0.00    +0.147 HD
ENDROOT
BRANCH   1   6
ATOM      3  C   UNL     1      34.867 -22.372 -18.405  0.00  0.00    +0.054 C 
ATOM      4  C   UNL     1      34.012 -21.829 -19.364  0.00  0.00    +0.006 C 
ATOM      5  C   UNL     1      36.217 -22.021 -18.397  0.00  0.00    +0.006 C 
ATOM      6  C   UNL     1      35.857 -20.585 -20.304  0.00  0.00    +0.045 C 
ATOM      7  C   UNL     1      34.507 -20.935 -20.314  0.00  0.00    +0.014 C 
ATOM      8  C   UNL     1      36.712 -21.128 -19.345  0.00  0.00    +0.014 C 
BRANCH   3  16
ATOM      9  O   UNL     1      33.171 -23.650 -17.539  0.00  0.00    -0.270 OA
ATOM     10  N   UNL     1      35.211 -23.750 -16.400  0.00  0.00    -0.276 N 
ATOM     11  C   UNL     1      36.308 -23.572 -13.716  0.00  0.00    +0.102 C 
ATOM     12  C   UNL     1      34.881 -24.063 -13.981  0.00  0.00    +0.033 C 
ATOM     13  C   UNL     1      36.846 -22.718 -14.868  0.00  0.00    +0.033 C 
ATOM     14  C   UNL     1      34.722 -24.668 -15.374  0.00  0.00    +0.094 C 
ATOM     15  C   UNL     1      36.613 -23.346 -16.242  0.00  0.00    +0.094 C 
ATOM     16  C   UNL     1      34.346 -23.313 -17.406  0.00  0.00    +0.249 C 
BRANCH  11  18
ATOM     17  O   UNL     1      36.823 -25.839 -13.081  0.00  0.00    -0.250 OA
ATOM     18  C   UNL     1      37.215 -24.736 -13.435  0.00  0.00    +0.317 C 
BRANCH  18  19
ATOM     19  O   UNL     1      38.510 -24.362 -13.635  0.00  0.00    -0.444 OA
ATOM     20  C   UNL     1      39.394 -25.408 -14.052  0.00  0.00    +0.256 C 
ENDBRANCH  18  19
ENDBRANCH  11  18
ENDBRANCH   3  16
ENDBRANCH   1   6
BRANCH   1  21
ATOM     21  C   UNL     1      35.656 -19.357 -22.467  0.00  0.00    +0.145 C 
BRANCH  21  28
ATOM     22  N   UNL     1      35.059 -17.352 -23.720  0.00  0.00    -0.392 NA
ATOM     23  N   UNL     1      35.136 -15.792 -21.435  0.00  0.00    -0.200 NA
ATOM     24  N   UNL     1      34.566 -13.921 -22.675  0.00  0.00    -0.271 NA
ATOM     25  N   UNL     1      34.203 -14.073 -25.041  0.00  0.00    -0.310 NA
ATOM     26  N   UNL     1      34.431 -16.160 -26.125  0.00  0.00    -0.329 N 
ATOM     27  N   UNL     1      33.990 -12.023 -23.930  0.00  0.00    -0.283 N 
ATOM     28  C   UNL     1      35.360 -17.884 -22.526  0.00  0.00    +0.133 C 
ATOM     29  C   UNL     1      35.397 -17.112 -21.396  0.00  0.00    +0.193 C 
ATOM     30  C   UNL     1      34.797 -16.031 -23.757  0.00  0.00    +0.248 C 
ATOM     31  C   UNL     1      34.831 -15.231 -22.612  0.00  0.00    +0.131 C 
ATOM     32  C   UNL     1      34.475 -15.387 -24.936  0.00  0.00    +0.231 C 
ATOM     33  C   UNL     1      34.266 -13.407 -23.883  0.00  0.00    +0.207 C 
ATOM     34  H   UNL     1      34.206 -15.732 -26.982  0.00  0.00    +0.145 HD
ATOM     35  H   UNL     1      34.625 -17.124 -26.093  0.00  0.00    +0.145 HD
ATOM     36  H   UNL     1      34.023 -11.486 -23.105  0.00  0.00    +0.156 HD
ATOM     37  H   UNL     1      33.765 -11.595 -24.787  0.00  0.00    +0.156 HD
ENDBRANCH  21  28
ENDBRANCH   1  21
TORSDOF 6
ENDMDL
MODEL 9
REMARK VINA RESULT:     -10.9      4.023     11.616
REMARK  Name = 25243853
REMARK  6 active torsions:
REMARK  status: ('A' for Active; 'I' for Inactive)
REMARK    1  A    between atoms: N_1  and  C_6
REMARK    2  A    between atoms: N_1  and  C_21
REMARK    3  A    between atoms: C_3  and  C_16
REMARK    4  A    between atoms: C_11  and  C_18
REMARK    5  A    between atoms: C_18  and  O_19
REMARK    6  A    between atoms: C_21  and  C_28
REMARK                            x       y       z     vdW  Elec       q    Type
REMARK                         _______ _______ _______ _____ _____    ______ ____
ROOT
ATOM      1  N   UNL     1      36.793 -21.621 -18.858  0.00  0.00    -0.327 N 
ATOM      2  H   UNL     1      36.585 -22.575 -18.986  0.00  0.00    +0.147 HD
ENDROOT
BRANCH   1   6
ATOM      3  C   UNL     1      35.929 -18.946 -21.980  0.00  0.00    +0.054 C 
ATOM      4  C   UNL     1      34.971 -19.874 -21.572  0.00  0.00    +0.006 C 
ATOM      5  C   UNL     1      37.174 -18.906 -21.351  0.00  0.00    +0.006 C 
ATOM      6  C   UNL     1      36.502 -20.722 -19.907  0.00  0.00    +0.045 C 
ATOM      7  C   UNL     1      35.258 -20.762 -20.535  0.00  0.00    +0.014 C 
ATOM      8  C   UNL     1      37.460 -19.794 -20.315  0.00  0.00    +0.014 C 
BRANCH   3  16
ATOM      9  O   UNL     1      36.061 -18.316 -24.181  0.00  0.00    -0.270 OA
ATOM     10  N   UNL     1      34.883 -16.868 -22.772  0.00  0.00    -0.276 N 
ATOM     11  C   UNL     1      34.685 -14.053 -22.086  0.00  0.00    +0.102 C 
ATOM     12  C   UNL     1      35.133 -14.522 -23.474  0.00  0.00    +0.033 C 
ATOM     13  C   UNL     1      34.889 -15.132 -21.019  0.00  0.00    +0.033 C 
ATOM     14  C   UNL     1      34.584 -15.903 -23.827  0.00  0.00    +0.094 C 
ATOM     15  C   UNL     1      34.369 -16.506 -21.446  0.00  0.00    +0.094 C 
ATOM     16  C   UNL     1      35.628 -18.011 -23.071  0.00  0.00    +0.249 C 
BRANCH  11  18
ATOM     17  O   UNL     1      32.697 -13.187 -23.137  0.00  0.00    -0.250 OA
ATOM     18  C   UNL     1      33.255 -13.595 -22.128  0.00  0.00    +0.317 C 
BRANCH  18  19
ATOM     19  O   UNL     1      32.704 -13.709 -20.886  0.00  0.00    -0.444 OA
ATOM     20  C   UNL     1      32.195 -12.495 -20.326  0.00  0.00    +0.256 C 
ENDBRANCH  18  19
ENDBRANCH  11  18
ENDBRANCH   3  16
ENDBRANCH   1   6
BRANCH   1  21
ATOM     21  C   UNL     1      37.373 -21.207 -17.619  0.00  0.00    +0.145 C 
BRANCH  21  28
ATOM     22  N   UNL     1      38.106 -23.114 -16.287  0.00  0.00    -0.392 NA
ATOM     23  N   UNL     1      35.704 -23.192 -14.914  0.00  0.00    -0.200 NA
ATOM     24  N   UNL     1      36.452 -25.001 -13.679  0.00  0.00    -0.271 NA
ATOM     25  N   UNL     1      38.639 -25.918 -14.035  0.00  0.00    -0.310 NA
ATOM     26  N   UNL     1      40.053 -24.965 -15.670  0.00  0.00    -0.329 N 
ATOM     27  N   UNL     1      37.208 -26.836 -12.426  0.00  0.00    -0.283 N 
ATOM     28  C   UNL     1      37.126 -22.236 -16.551  0.00  0.00    +0.133 C 
ATOM     29  C   UNL     1      35.939 -22.275 -15.871  0.00  0.00    +0.193 C 
ATOM     30  C   UNL     1      37.869 -24.030 -15.329  0.00  0.00    +0.248 C 
ATOM     31  C   UNL     1      36.662 -24.081 -14.627  0.00  0.00    +0.131 C 
ATOM     32  C   UNL     1      38.812 -24.978 -14.981  0.00  0.00    +0.231 C 
ATOM     33  C   UNL     1      37.447 -25.873 -13.429  0.00  0.00    +0.207 C 
ATOM     34  H   UNL     1      40.746 -25.627 -15.448  0.00  0.00    +0.145 HD
ATOM     35  H   UNL     1      40.220 -24.295 -16.372  0.00  0.00    +0.145 HD
ATOM     36  H   UNL     1      36.346 -26.847 -11.949  0.00  0.00    +0.156 HD
ATOM     37  H   UNL     1      37.901 -27.499 -12.202  0.00  0.00    +0.156 HD
ENDBRANCH  21  28
ENDBRANCH   1  21
TORSDOF 6
ENDMDL
