MODEL 1
REMARK VINA RESULT:     -11.5      0.000      0.000
REMARK  Name = 54713659
REMARK  4 active torsions:
REMARK  status: ('A' for Active; 'I' for Inactive)
REMARK    1  A    between atoms: C_14  and  O_30
REMARK    2  A    between atoms: C_15  and  C_19
REMARK    3  A    between atoms: N_18  and  C_21
REMARK    4  A    between atoms: C_21  and  C_24
REMARK                            x       y       z     vdW  Elec       q    Type
REMARK                         _______ _______ _______ _____ _____    ______ ____
ROOT
ATOM      1  O   UNL     1      38.858 -24.363 -13.957  0.00  0.00    -0.334 OA
ATOM      2  O   UNL     1      34.822 -24.993 -11.862  0.00  0.00    -0.268 OA
ATOM      3  O   UNL     1      31.446 -24.151 -15.620  0.00  0.00    -0.283 OA
ATOM      4  N   UNL     1      36.785 -24.778 -13.042  0.00  0.00    -0.251 N 
ATOM      5  N   UNL     1      35.435 -23.584 -15.141  0.00  0.00    -0.275 N 
ATOM      6  C   UNL     1      37.476 -24.553 -14.285  0.00  0.00    +0.215 C 
ATOM      7  C   UNL     1      37.735 -25.013 -11.983  0.00  0.00    +0.107 C 
ATOM      8  C   UNL     1      36.876 -23.351 -14.983  0.00  0.00    +0.147 C 
ATOM      9  C   UNL     1      38.951 -24.280 -12.520  0.00  0.00    +0.164 C 
ATOM     10  C   UNL     1      35.414 -24.725 -12.905  0.00  0.00    +0.268 C 
ATOM     11  C   UNL     1      34.691 -24.248 -14.147  0.00  0.00    +0.143 C 
ATOM     12  C   UNL     1      37.988 -26.505 -11.791  0.00  0.00    +0.024 C 
ATOM     13  C   UNL     1      34.768 -23.098 -16.256  0.00  0.00    +0.074 C 
ATOM     14  C   UNL     1      33.362 -24.463 -14.250  0.00  0.00    +0.191 C 
ATOM     15  C   UNL     1      33.457 -23.239 -16.485  0.00  0.00    +0.110 C 
ATOM     16  C   UNL     1      32.650 -23.966 -15.470  0.00  0.00    +0.236 C 
ENDROOT
BRANCH  15  19
ATOM     17  O   UNL     1      31.693 -22.439 -17.814  0.00  0.00    -0.270 OA
ATOM     18  N   UNL     1      33.852 -22.455 -18.693  0.00  0.00    -0.297 N 
ATOM     19  C   UNL     1      32.898 -22.674 -17.714  0.00  0.00    +0.251 C 
ATOM     20  H   UNL     1      34.788 -22.685 -18.492  0.00  0.00    +0.150 HD
BRANCH  18  21
ATOM     21  C   UNL     1      33.547 -21.906 -19.996  0.00  0.00    +0.119 C 
BRANCH  21  24
ATOM     22  F   UNL     1      33.130 -19.960 -22.006  0.00  0.00    -0.204 F 
ATOM     23  F   UNL     1      37.630 -18.502 -21.854  0.00  0.00    -0.204 F 
ATOM     24  C   UNL     1      34.634 -20.998 -20.492  0.00  0.00    +0.025 C 
ATOM     25  C   UNL     1      34.362 -20.060 -21.487  0.00  0.00    +0.140 C 
ATOM     26  C   UNL     1      35.920 -21.094 -19.957  0.00  0.00    +0.002 C 
ATOM     27  C   UNL     1      35.373 -19.216 -21.947  0.00  0.00    +0.059 C 
ATOM     28  C   UNL     1      36.931 -20.251 -20.418  0.00  0.00    +0.030 C 
ATOM     29  C   UNL     1      36.658 -19.312 -21.412  0.00  0.00    +0.142 C 
ENDBRANCH  21  24
ENDBRANCH  18  21
ENDBRANCH  15  19
BRANCH  14  30
ATOM     30  O   UNL     1      32.614 -25.124 -13.303  0.00  0.00    -0.502 OA
ATOM     31  H   UNL     1      31.707 -24.917 -13.194  0.00  0.00    +0.292 HD
ENDBRANCH  14  30
TORSDOF 4
ENDMDL
MODEL 2
REMARK VINA RESULT:     -11.5      6.739     11.604
REMARK  Name = 54713659
REMARK  4 active torsions:
REMARK  status: ('A' for Active; 'I' for Inactive)
REMARK    1  A    between atoms: C_14  and  O_30
REMARK    2  A    between atoms: C_15  and  C_19
REMARK    3  A    between atoms: N_18  and  C_21
REMARK    4  A    between atoms: C_21  and  C_24
REMARK                            x       y       z     vdW  Elec       q    Type
REMARK                         _______ _______ _______ _____ _____    ______ ____
ROOT
ATOM      1  O   UNL     1      32.298 -12.642 -19.700  0.00  0.00    -0.334 OA
ATOM      2  O   UNL     1      33.431 -12.082 -24.113  0.00  0.00    -0.268 OA
ATOM      3  O   UNL     1      35.285 -16.680 -25.403  0.00  0.00    -0.283 OA
ATOM      4  N   UNL     1      32.786 -12.513 -21.948  0.00  0.00    -0.251 N 
ATOM      5  N   UNL     1      34.276 -14.844 -21.929  0.00  0.00    -0.275 N 
ATOM      6  C   UNL     1      32.643 -13.430 -20.847  0.00  0.00    +0.215 C 
ATOM      7  C   UNL     1      32.267 -11.218 -21.585  0.00  0.00    +0.107 C 
ATOM      8  C   UNL     1      33.937 -14.193 -20.657  0.00  0.00    +0.147 C 
ATOM      9  C   UNL     1      32.430 -11.256 -20.076  0.00  0.00    +0.164 C 
ATOM     10  C   UNL     1      33.379 -12.842 -23.148  0.00  0.00    +0.268 C 
ATOM     11  C   UNL     1      34.021 -14.214 -23.161  0.00  0.00    +0.143 C 
ATOM     12  C   UNL     1      30.810 -11.069 -22.013  0.00  0.00    +0.024 C 
ATOM     13  C   UNL     1      34.912 -16.077 -21.933  0.00  0.00    +0.074 C 
ATOM     14  C   UNL     1      34.336 -14.774 -24.348  0.00  0.00    +0.191 C 
ATOM     15  C   UNL     1      35.281 -16.745 -23.033  0.00  0.00    +0.110 C 
ATOM     16  C   UNL     1      34.993 -16.120 -24.351  0.00  0.00    +0.236 C 
ENDROOT
BRANCH  15  19
ATOM     17  O   UNL     1      36.477 -18.602 -23.832  0.00  0.00    -0.270 OA
ATOM     18  N   UNL     1      35.878 -18.527 -21.580  0.00  0.00    -0.297 N 
ATOM     19  C   UNL     1      35.939 -18.042 -22.876  0.00  0.00    +0.251 C 
ATOM     20  H   UNL     1      35.418 -17.984 -20.900  0.00  0.00    +0.150 HD
BRANCH  18  21
ATOM     21  C   UNL     1      36.453 -19.790 -21.174  0.00  0.00    +0.119 C 
BRANCH  21  24
ATOM     22  F   UNL     1      37.232 -21.777 -19.317  0.00  0.00    -0.204 F 
ATOM     23  F   UNL     1      32.754 -22.987 -18.380  0.00  0.00    -0.204 F 
ATOM     24  C   UNL     1      35.468 -20.643 -20.428  0.00  0.00    +0.025 C 
ATOM     25  C   UNL     1      35.919 -21.606 -19.526  0.00  0.00    +0.140 C 
ATOM     26  C   UNL     1      34.099 -20.471 -20.639  0.00  0.00    +0.002 C 
ATOM     27  C   UNL     1      35.004 -22.398 -18.834  0.00  0.00    +0.059 C 
ATOM     28  C   UNL     1      33.184 -21.264 -19.948  0.00  0.00    +0.030 C 
ATOM     29  C   UNL     1      33.634 -22.226 -19.045  0.00  0.00    +0.142 C 
ENDBRANCH  21  24
ENDBRANCH  18  21
ENDBRANCH  15  19
BRANCH  14  30
ATOM     30  O   UNL     1      34.082 -14.189 -25.567  0.00  0.00    -0.502 OA
ATOM     31  H   UNL     1      33.752 -13.313 -25.608  0.00  0.00    +0.292 HD
ENDBRANCH  14  30
TORSDOF 4
ENDMDL
MODEL 3
REMARK VINA RESULT:     -11.2      3.280      4.999
REMARK  Name = 54713659
REMARK  4 active torsions:
REMARK  status: ('A' for Active; 'I' for Inactive)
REMARK    1  A    between atoms: C_14  and  O_30
REMARK    2  A    between atoms: C_15  and  C_19
REMARK    3  A    between atoms: N_18  and  C_21
REMARK    4  A    between atoms: C_21  and  C_24
REMARK                            x       y       z     vdW  Elec       q    Type
REMARK                         _______ _______ _______ _____ _____    ______ ____
ROOT
ATOM      1  O   UNL     1      38.240 -23.375 -15.326  0.00  0.00    -0.334 OA
ATOM      2  O   UNL     1      33.844 -23.275 -16.646  0.00  0.00    -0.268 OA
ATOM      3  O   UNL     1      34.080 -20.968 -21.213  0.00  0.00    -0.283 OA
ATOM      4  N   UNL     1      36.087 -23.383 -16.145  0.00  0.00    -0.251 N 
ATOM      5  N   UNL     1      36.657 -21.546 -18.133  0.00  0.00    -0.275 N 
ATOM      6  C   UNL     1      37.459 -23.142 -16.506  0.00  0.00    +0.215 C 
ATOM      7  C   UNL     1      36.019 -24.031 -14.859  0.00  0.00    +0.107 C 
ATOM      8  C   UNL     1      37.601 -21.726 -17.024  0.00  0.00    +0.147 C 
ATOM      9  C   UNL     1      37.319 -23.561 -14.232  0.00  0.00    +0.164 C 
ATOM     10  C   UNL     1      35.011 -23.000 -16.917  0.00  0.00    +0.268 C 
ATOM     11  C   UNL     1      35.386 -22.151 -18.114  0.00  0.00    +0.143 C 
ATOM     12  C   UNL     1      35.956 -25.548 -15.008  0.00  0.00    +0.024 C 
ATOM     13  C   UNL     1      36.986 -20.725 -19.202  0.00  0.00    +0.074 C 
ATOM     14  C   UNL     1      34.486 -21.992 -19.108  0.00  0.00    +0.191 C 
ATOM     15  C   UNL     1      36.191 -20.479 -20.251  0.00  0.00    +0.110 C 
ATOM     16  C   UNL     1      34.856 -21.131 -20.276  0.00  0.00    +0.236 C 
ENDROOT
BRANCH  15  19
ATOM     17  O   UNL     1      37.834 -19.156 -21.286  0.00  0.00    -0.270 OA
ATOM     18  N   UNL     1      35.728 -19.321 -22.273  0.00  0.00    -0.297 N 
ATOM     19  C   UNL     1      36.682 -19.592 -21.306  0.00  0.00    +0.251 C 
ATOM     20  H   UNL     1      34.838 -19.730 -22.178  0.00  0.00    +0.150 HD
BRANCH  18  21
ATOM     21  C   UNL     1      35.970 -18.469 -23.416  0.00  0.00    +0.119 C 
BRANCH  21  24
ATOM     22  F   UNL     1      35.317 -16.711 -25.534  0.00  0.00    -0.204 F 
ATOM     23  F   UNL     1      34.082 -13.231 -22.573  0.00  0.00    -0.204 F 
ATOM     24  C   UNL     1      35.467 -17.072 -23.192  0.00  0.00    +0.025 C 
ATOM     25  C   UNL     1      35.163 -16.256 -24.282  0.00  0.00    +0.140 C 
ATOM     26  C   UNL     1      35.303 -16.590 -21.893  0.00  0.00    +0.002 C 
ATOM     27  C   UNL     1      34.695 -14.959 -24.073  0.00  0.00    +0.059 C 
ATOM     28  C   UNL     1      34.836 -15.293 -21.685  0.00  0.00    +0.030 C 
ATOM     29  C   UNL     1      34.531 -14.477 -22.774  0.00  0.00    +0.142 C 
ENDBRANCH  21  24
ENDBRANCH  18  21
ENDBRANCH  15  19
BRANCH  14  30
ATOM     30  O   UNL     1      33.244 -22.585 -19.123  0.00  0.00    -0.502 OA
ATOM     31  H   UNL     1      33.027 -23.236 -18.486  0.00  0.00    +0.292 HD
ENDBRANCH  14  30
TORSDOF 4
ENDMDL
MODEL 4
REMARK VINA RESULT:     -11.0      6.693     11.526
REMARK  Name = 54713659
REMARK  4 active torsions:
REMARK  status: ('A' for Active; 'I' for Inactive)
REMARK    1  A    between atoms: C_14  and  O_30
REMARK    2  A    between atoms: C_15  and  C_19
REMARK    3  A    between atoms: N_18  and  C_21
REMARK    4  A    between atoms: C_21  and  C_24
REMARK                            x       y       z     vdW  Elec       q    Type
REMARK                         _______ _______ _______ _____ _____    ______ ____
ROOT
ATOM      1  O   UNL     1      32.139 -12.770 -19.682  0.00  0.00    -0.334 OA
ATOM      2  O   UNL     1      33.470 -11.997 -24.007  0.00  0.00    -0.268 OA
ATOM      3  O   UNL     1      35.434 -16.513 -25.417  0.00  0.00    -0.283 OA
ATOM      4  N   UNL     1      32.729 -12.533 -21.896  0.00  0.00    -0.251 N 
ATOM      5  N   UNL     1      34.244 -14.849 -21.913  0.00  0.00    -0.275 N 
ATOM      6  C   UNL     1      32.545 -13.501 -20.846  0.00  0.00    +0.215 C 
ATOM      7  C   UNL     1      32.178 -11.261 -21.499  0.00  0.00    +0.107 C 
ATOM      8  C   UNL     1      33.837 -14.261 -20.631  0.00  0.00    +0.147 C 
ATOM      9  C   UNL     1      32.272 -11.367 -19.987  0.00  0.00    +0.164 C 
ATOM     10  C   UNL     1      33.381 -12.801 -23.081  0.00  0.00    +0.268 C 
ATOM     11  C   UNL     1      34.038 -14.164 -23.126  0.00  0.00    +0.143 C 
ATOM     12  C   UNL     1      30.742 -11.106 -21.988  0.00  0.00    +0.024 C 
ATOM     13  C   UNL     1      34.893 -16.074 -21.944  0.00  0.00    +0.074 C 
ATOM     14  C   UNL     1      34.415 -14.666 -24.321  0.00  0.00    +0.191 C 
ATOM     15  C   UNL     1      35.320 -16.687 -23.055  0.00  0.00    +0.110 C 
ATOM     16  C   UNL     1      35.087 -16.004 -24.355  0.00  0.00    +0.236 C 
ENDROOT
BRANCH  15  19
ATOM     17  O   UNL     1      36.279 -18.648 -23.921  0.00  0.00    -0.270 OA
ATOM     18  N   UNL     1      36.224 -18.342 -21.610  0.00  0.00    -0.297 N 
ATOM     19  C   UNL     1      35.985 -17.983 -22.926  0.00  0.00    +0.251 C 
ATOM     20  H   UNL     1      35.941 -17.723 -20.899  0.00  0.00    +0.150 HD
BRANCH  18  21
ATOM     21  C   UNL     1      36.867 -19.578 -21.224  0.00  0.00    +0.119 C 
BRANCH  21  24
ATOM     22  F   UNL     1      34.085 -19.672 -21.727  0.00  0.00    -0.204 F 
ATOM     23  F   UNL     1      33.368 -23.001 -18.441  0.00  0.00    -0.204 F 
ATOM     24  C   UNL     1      35.933 -20.490 -20.483  0.00  0.00    +0.025 C 
ATOM     25  C   UNL     1      34.570 -20.486 -20.779  0.00  0.00    +0.140 C 
ATOM     26  C   UNL     1      36.430 -21.343 -19.496  0.00  0.00    +0.002 C 
ATOM     27  C   UNL     1      33.704 -21.334 -20.090  0.00  0.00    +0.059 C 
ATOM     28  C   UNL     1      35.563 -22.190 -18.806  0.00  0.00    +0.030 C 
ATOM     29  C   UNL     1      34.200 -22.187 -19.103  0.00  0.00    +0.142 C 
ENDBRANCH  21  24
ENDBRANCH  18  21
ENDBRANCH  15  19
BRANCH  14  30
ATOM     30  O   UNL     1      34.212 -14.027 -25.523  0.00  0.00    -0.502 OA
ATOM     31  H   UNL     1      33.588 -14.366 -26.135  0.00  0.00    +0.292 HD
ENDBRANCH  14  30
TORSDOF 4
ENDMDL
MODEL 5
REMARK VINA RESULT:     -11.0      9.131     13.708
REMARK  Name = 54713659
REMARK  4 active torsions:
REMARK  status: ('A' for Active; 'I' for Inactive)
REMARK    1  A    between atoms: C_14  and  O_30
REMARK    2  A    between atoms: C_15  and  C_19
REMARK    3  A    between atoms: N_18  and  C_21
REMARK    4  A    between atoms: C_21  and  C_24
REMARK                            x       y       z     vdW  Elec       q    Type
REMARK                         _______ _______ _______ _____ _____    ______ ____
ROOT
ATOM      1  O   UNL     1      33.370  -7.010 -23.370  0.00  0.00    -0.334 OA
ATOM      2  O   UNL     1      31.466  -9.664 -20.144  0.00  0.00    -0.268 OA
ATOM      3  O   UNL     1      32.932 -14.371 -21.534  0.00  0.00    -0.283 OA
ATOM      4  N   UNL     1      32.569  -8.423 -21.737  0.00  0.00    -0.251 N 
ATOM      5  N   UNL     1      33.015 -10.696 -23.251  0.00  0.00    -0.275 N 
ATOM      6  C   UNL     1      33.454  -8.351 -22.870  0.00  0.00    +0.215 C 
ATOM      7  C   UNL     1      32.154  -7.099 -21.346  0.00  0.00    +0.107 C 
ATOM      8  C   UNL     1      33.037  -9.379 -23.900  0.00  0.00    +0.147 C 
ATOM      9  C   UNL     1      32.299  -6.353 -22.661  0.00  0.00    +0.164 C 
ATOM     10  C   UNL     1      32.159  -9.605 -21.158  0.00  0.00    +0.268 C 
ATOM     11  C   UNL     1      32.591 -10.843 -21.916  0.00  0.00    +0.143 C 
ATOM     12  C   UNL     1      33.057  -6.539 -20.253  0.00  0.00    +0.024 C 
ATOM     13  C   UNL     1      33.361 -11.832 -23.967  0.00  0.00    +0.074 C 
ATOM     14  C   UNL     1      32.540 -12.040 -21.294  0.00  0.00    +0.191 C 
ATOM     15  C   UNL     1      33.355 -13.078 -23.476  0.00  0.00    +0.110 C 
ATOM     16  C   UNL     1      32.945 -13.261 -22.059  0.00  0.00    +0.236 C 
ENDROOT
BRANCH  15  19
ATOM     17  O   UNL     1      33.217 -14.339 -25.453  0.00  0.00    -0.270 OA
ATOM     18  N   UNL     1      34.752 -14.969 -23.816  0.00  0.00    -0.297 N 
ATOM     19  C   UNL     1      33.752 -14.178 -24.355  0.00  0.00    +0.251 C 
ATOM     20  H   UNL     1      35.101 -14.738 -22.925  0.00  0.00    +0.150 HD
BRANCH  18  21
ATOM     21  C   UNL     1      35.312 -16.118 -24.492  0.00  0.00    +0.119 C 
BRANCH  21  24
ATOM     22  F   UNL     1      34.514 -18.684 -25.377  0.00  0.00    -0.204 F 
ATOM     23  F   UNL     1      35.415 -20.668 -21.176  0.00  0.00    -0.204 F 
ATOM     24  C   UNL     1      35.339 -17.332 -23.609  0.00  0.00    +0.025 C 
ATOM     25  C   UNL     1      34.931 -18.569 -24.108  0.00  0.00    +0.140 C 
ATOM     26  C   UNL     1      35.772 -17.222 -22.287  0.00  0.00    +0.002 C 
ATOM     27  C   UNL     1      34.957 -19.696 -23.287  0.00  0.00    +0.059 C 
ATOM     28  C   UNL     1      35.797 -18.349 -21.466  0.00  0.00    +0.030 C 
ATOM     29  C   UNL     1      35.390 -19.586 -21.965  0.00  0.00    +0.142 C 
ENDBRANCH  21  24
ENDBRANCH  18  21
ENDBRANCH  15  19
BRANCH  14  30
ATOM     30  O   UNL     1      32.146 -12.211 -19.986  0.00  0.00    -0.502 OA
ATOM     31  H   UNL     1      31.980 -13.071 -19.655  0.00  0.00    +0.292 HD
ENDBRANCH  14  30
TORSDOF 4
ENDMDL
MODEL 6
REMARK VINA RESULT:     -10.8      7.985     12.841
REMARK  Name = 54713659
REMARK  4 active torsions:
REMARK  status: ('A' for Active; 'I' for Inactive)
REMARK    1  A    between atoms: C_14  and  O_30
REMARK    2  A    between atoms: C_15  and  C_19
REMARK    3  A    between atoms: N_18  and  C_21
REMARK    4  A    between atoms: C_21  and  C_24
REMARK                            x       y       z     vdW  Elec       q    Type
REMARK                         _______ _______ _______ _____ _____    ______ ____
ROOT
ATOM      1  O   UNL     1      33.224  -8.629 -24.039  0.00  0.00    -0.334 OA
ATOM      2  O   UNL     1      31.276 -11.050 -20.660  0.00  0.00    -0.268 OA
ATOM      3  O   UNL     1      33.791 -15.508 -20.859  0.00  0.00    -0.283 OA
ATOM      4  N   UNL     1      32.408  -9.888 -22.292  0.00  0.00    -0.251 N 
ATOM      5  N   UNL     1      33.522 -12.235 -23.242  0.00  0.00    -0.275 N 
ATOM      6  C   UNL     1      33.456  -9.820 -23.276  0.00  0.00    +0.215 C 
ATOM      7  C   UNL     1      31.698  -8.634 -22.236  0.00  0.00    +0.107 C 
ATOM      8  C   UNL     1      33.424 -11.070 -24.130  0.00  0.00    +0.147 C 
ATOM      9  C   UNL     1      31.942  -8.104 -23.638  0.00  0.00    +0.164 C 
ATOM     10  C   UNL     1      32.119 -11.016 -21.554  0.00  0.00    +0.268 C 
ATOM     11  C   UNL     1      32.896 -12.244 -21.981  0.00  0.00    +0.143 C 
ATOM     12  C   UNL     1      32.272  -7.723 -21.157  0.00  0.00    +0.024 C 
ATOM     13  C   UNL     1      34.190 -13.377 -23.660  0.00  0.00    +0.074 C 
ATOM     14  C   UNL     1      32.949 -13.304 -21.147  0.00  0.00    +0.191 C 
ATOM     15  C   UNL     1      34.319 -14.496 -22.937  0.00  0.00    +0.110 C 
ATOM     16  C   UNL     1      33.699 -14.523 -21.587  0.00  0.00    +0.236 C 
ENDROOT
BRANCH  15  19
ATOM     17  O   UNL     1      35.337 -15.648 -24.713  0.00  0.00    -0.270 OA
ATOM     18  N   UNL     1      35.387 -16.588 -22.581  0.00  0.00    -0.297 N 
ATOM     19  C   UNL     1      35.060 -15.618 -23.514  0.00  0.00    +0.251 C 
ATOM     20  H   UNL     1      35.108 -16.450 -21.647  0.00  0.00    +0.150 HD
BRANCH  18  21
ATOM     21  C   UNL     1      36.115 -17.794 -22.906  0.00  0.00    +0.119 C 
BRANCH  21  24
ATOM     22  F   UNL     1      38.044 -19.002 -21.225  0.00  0.00    -0.204 F 
ATOM     23  F   UNL     1      34.891 -22.010 -19.380  0.00  0.00    -0.204 F 
ATOM     24  C   UNL     1      35.790 -18.918 -21.965  0.00  0.00    +0.025 C 
ATOM     25  C   UNL     1      36.790 -19.470 -21.164  0.00  0.00    +0.140 C 
ATOM     26  C   UNL     1      34.487 -19.411 -21.893  0.00  0.00    +0.002 C 
ATOM     27  C   UNL     1      36.487 -20.514 -20.290  0.00  0.00    +0.059 C 
ATOM     28  C   UNL     1      34.184 -20.456 -21.021  0.00  0.00    +0.030 C 
ATOM     29  C   UNL     1      35.183 -21.007 -20.218  0.00  0.00    +0.142 C 
ENDBRANCH  21  24
ENDBRANCH  18  21
ENDBRANCH  15  19
BRANCH  14  30
ATOM     30  O   UNL     1      32.362 -13.334 -19.902  0.00  0.00    -0.502 OA
ATOM     31  H   UNL     1      31.537 -12.913 -19.762  0.00  0.00    +0.292 HD
ENDBRANCH  14  30
TORSDOF 4
ENDMDL
MODEL 7
REMARK VINA RESULT:     -10.7      2.799      4.910
REMARK  Name = 54713659
REMARK  4 active torsions:
REMARK  status: ('A' for Active; 'I' for Inactive)
REMARK    1  A    between atoms: C_14  and  O_30
REMARK    2  A    between atoms: C_15  and  C_19
REMARK    3  A    between atoms: N_18  and  C_21
REMARK    4  A    between atoms: C_21  and  C_24
REMARK                            x       y       z     vdW  Elec       q    Type
REMARK                         _______ _______ _______ _____ _____    ______ ____
ROOT
ATOM      1  O   UNL     1      31.955 -23.940 -15.232  0.00  0.00    -0.334 OA
ATOM      2  O   UNL     1      36.478 -23.944 -16.016  0.00  0.00    -0.268 OA
ATOM      3  O   UNL     1      36.945 -20.752 -19.994  0.00  0.00    -0.283 OA
ATOM      4  N   UNL     1      34.216 -23.768 -15.635  0.00  0.00    -0.251 N 
ATOM      5  N   UNL     1      33.854 -22.583 -18.109  0.00  0.00    -0.275 N 
ATOM      6  C   UNL     1      32.937 -23.190 -15.958  0.00  0.00    +0.215 C 
ATOM      7  C   UNL     1      34.086 -24.668 -14.516  0.00  0.00    +0.107 C 
ATOM      8  C   UNL     1      32.722 -23.251 -17.455  0.00  0.00    +0.147 C 
ATOM      9  C   UNL     1      32.627 -25.072 -14.642  0.00  0.00    +0.164 C 
ATOM     10  C   UNL     1      35.373 -23.512 -16.339  0.00  0.00    +0.268 C 
ATOM     11  C   UNL     1      35.160 -22.691 -17.593  0.00  0.00    +0.143 C 
ATOM     12  C   UNL     1      34.385 -23.958 -13.200  0.00  0.00    +0.024 C 
ATOM     13  C   UNL     1      33.662 -21.877 -19.287  0.00  0.00    +0.074 C 
ATOM     14  C   UNL     1      36.227 -22.106 -18.179  0.00  0.00    +0.191 C 
ATOM     15  C   UNL     1      34.627 -21.250 -19.971  0.00  0.00    +0.110 C 
ATOM     16  C   UNL     1      36.011 -21.317 -19.432  0.00  0.00    +0.236 C 
ENDROOT
BRANCH  15  19
ATOM     17  O   UNL     1      33.087 -20.339 -21.492  0.00  0.00    -0.270 OA
ATOM     18  N   UNL     1      35.367 -20.148 -21.941  0.00  0.00    -0.297 N 
ATOM     19  C   UNL     1      34.266 -20.540 -21.198  0.00  0.00    +0.251 C 
ATOM     20  H   UNL     1      36.263 -20.369 -21.599  0.00  0.00    +0.150 HD
BRANCH  18  21
ATOM     21  C   UNL     1      35.270 -19.434 -23.194  0.00  0.00    +0.119 C 
BRANCH  21  24
ATOM     22  F   UNL     1      35.053 -17.595 -25.333  0.00  0.00    -0.204 F 
ATOM     23  F   UNL     1      34.950 -13.865 -22.422  0.00  0.00    -0.204 F 
ATOM     24  C   UNL     1      35.185 -17.949 -22.990  0.00  0.00    +0.025 C 
ATOM     25  C   UNL     1      35.080 -17.097 -24.089  0.00  0.00    +0.140 C 
ATOM     26  C   UNL     1      35.211 -17.421 -21.698  0.00  0.00    +0.002 C 
ATOM     27  C   UNL     1      35.000 -15.718 -23.898  0.00  0.00    +0.059 C 
ATOM     28  C   UNL     1      35.132 -16.042 -21.507  0.00  0.00    +0.030 C 
ATOM     29  C   UNL     1      35.026 -15.190 -22.606  0.00  0.00    +0.142 C 
ENDBRANCH  21  24
ENDBRANCH  18  21
ENDBRANCH  15  19
BRANCH  14  30
ATOM     30  O   UNL     1      37.511 -22.180 -17.687  0.00  0.00    -0.502 OA
ATOM     31  H   UNL     1      37.819 -21.536 -17.082  0.00  0.00    +0.292 HD
ENDBRANCH  14  30
TORSDOF 4
ENDMDL
MODEL 8
REMARK VINA RESULT:     -10.4      9.162     13.321
REMARK  Name = 54713659
REMARK  4 active torsions:
REMARK  status: ('A' for Active; 'I' for Inactive)
REMARK    1  A    between atoms: C_14  and  O_30
REMARK    2  A    between atoms: C_15  and  C_19
REMARK    3  A    between atoms: N_18  and  C_21
REMARK    4  A    between atoms: C_21  and  C_24
REMARK                            x       y       z     vdW  Elec       q    Type
REMARK                         _______ _______ _______ _____ _____    ______ ____
ROOT
ATOM      1  O   UNL     1      35.943 -17.773 -21.964  0.00  0.00    -0.334 OA
ATOM      2  O   UNL     1      33.672 -17.670 -25.952  0.00  0.00    -0.268 OA
ATOM      3  O   UNL     1      33.719 -12.692 -27.159  0.00  0.00    -0.283 OA
ATOM      4  N   UNL     1      34.931 -17.619 -24.027  0.00  0.00    -0.251 N 
ATOM      5  N   UNL     1      34.634 -14.873 -23.862  0.00  0.00    -0.275 N 
ATOM      6  C   UNL     1      35.708 -16.884 -23.064  0.00  0.00    +0.215 C 
ATOM      7  C   UNL     1      34.915 -19.020 -23.688  0.00  0.00    +0.107 C 
ATOM      8  C   UNL     1      34.952 -15.640 -22.651  0.00  0.00    +0.147 C 
ATOM      9  C   UNL     1      35.146 -18.954 -22.188  0.00  0.00    +0.164 C 
ATOM     10  C   UNL     1      34.271 -17.034 -25.087  0.00  0.00    +0.268 C 
ATOM     11  C   UNL     1      34.295 -15.520 -25.066  0.00  0.00    +0.143 C 
ATOM     12  C   UNL     1      36.021 -19.776 -24.417  0.00  0.00    +0.024 C 
ATOM     13  C   UNL     1      34.606 -13.487 -23.823  0.00  0.00    +0.074 C 
ATOM     14  C   UNL     1      33.979 -14.848 -26.193  0.00  0.00    +0.191 C 
ATOM     15  C   UNL     1      34.310 -12.697 -24.863  0.00  0.00    +0.110 C 
ATOM     16  C   UNL     1      33.982 -13.351 -26.157  0.00  0.00    +0.236 C 
ENDROOT
BRANCH  15  19
ATOM     17  O   UNL     1      35.327 -10.581 -24.942  0.00  0.00    -0.270 OA
ATOM     18  N   UNL     1      33.139 -10.754 -24.156  0.00  0.00    -0.297 N 
ATOM     19  C   UNL     1      34.328 -11.248 -24.666  0.00  0.00    +0.251 C 
ATOM     20  H   UNL     1      32.410 -11.391 -23.976  0.00  0.00    +0.150 HD
BRANCH  18  21
ATOM     21  C   UNL     1      32.911  -9.355 -23.874  0.00  0.00    +0.119 C 
BRANCH  21  24
ATOM     22  F   UNL     1      33.424  -6.910 -22.545  0.00  0.00    -0.204 F 
ATOM     23  F   UNL     1      31.621  -8.483 -18.462  0.00  0.00    -0.204 F 
ATOM     24  C   UNL     1      32.568  -9.121 -22.431  0.00  0.00    +0.025 C 
ATOM     25  C   UNL     1      32.849  -7.891 -21.836  0.00  0.00    +0.140 C 
ATOM     26  C   UNL     1      31.967 -10.136 -21.684  0.00  0.00    +0.002 C 
ATOM     27  C   UNL     1      32.529  -7.675 -20.496  0.00  0.00    +0.059 C 
ATOM     28  C   UNL     1      31.649  -9.920 -20.344  0.00  0.00    +0.030 C 
ATOM     29  C   UNL     1      31.928  -8.690 -19.749  0.00  0.00    +0.142 C 
ENDBRANCH  21  24
ENDBRANCH  18  21
ENDBRANCH  15  19
BRANCH  14  30
ATOM     30  O   UNL     1      33.662 -15.454 -27.388  0.00  0.00    -0.502 OA
ATOM     31  H   UNL     1      34.338 -15.666 -28.000  0.00  0.00    +0.292 HD
ENDBRANCH  14  30
TORSDOF 4
ENDMDL
MODEL 9
REMARK VINA RESULT:     -10.2      2.470      4.791
REMARK  Name = 54713659
REMARK  4 active torsions:
REMARK  status: ('A' for Active; 'I' for Inactive)
REMARK    1  A    between atoms: C_14  and  O_30
REMARK    2  A    between atoms: C_15  and  C_19
REMARK    3  A    between atoms: N_18  and  C_21
REMARK    4  A    between atoms: C_21  and  C_24
REMARK                            x       y       z     vdW  Elec       q    Type
REMARK                         _______ _______ _______ _____ _____    ______ ____
ROOT
ATOM      1  O   UNL     1      30.534 -23.829 -16.200  0.00  0.00    -0.334 OA
ATOM      2  O   UNL     1      34.492 -24.538 -13.985  0.00  0.00    -0.268 OA
ATOM      3  O   UNL     1      37.872 -21.960 -16.843  0.00  0.00    -0.283 OA
ATOM      4  N   UNL     1      32.551 -24.013 -15.104  0.00  0.00    -0.251 N 
ATOM      5  N   UNL     1      34.006 -23.110 -17.278  0.00  0.00    -0.275 N 
ATOM      6  C   UNL     1      31.872 -23.314 -16.163  0.00  0.00    +0.215 C 
ATOM      7  C   UNL     1      31.601 -24.741 -14.300  0.00  0.00    +0.107 C 
ATOM      8  C   UNL     1      32.612 -23.532 -17.466  0.00  0.00    +0.147 C 
ATOM      9  C   UNL     1      30.482 -24.957 -15.304  0.00  0.00    +0.164 C 
ATOM     10  C   UNL     1      33.919 -24.005 -14.934  0.00  0.00    +0.268 C 
ATOM     11  C   UNL     1      34.674 -23.327 -16.058  0.00  0.00    +0.143 C 
ATOM     12  C   UNL     1      31.155 -23.919 -13.095  0.00  0.00    +0.024 C 
ATOM     13  C   UNL     1      34.708 -22.537 -18.328  0.00  0.00    +0.074 C 
ATOM     14  C   UNL     1      35.960 -22.969 -15.856  0.00  0.00    +0.191 C 
ATOM     15  C   UNL     1      35.984 -22.136 -18.266  0.00  0.00    +0.110 C 
ATOM     16  C   UNL     1      36.707 -22.320 -16.980  0.00  0.00    +0.236 C 
ENDROOT
BRANCH  15  19
ATOM     17  O   UNL     1      36.872 -22.234 -20.439  0.00  0.00    -0.270 OA
ATOM     18  N   UNL     1      36.788 -20.177 -19.344  0.00  0.00    -0.297 N 
ATOM     19  C   UNL     1      36.588 -21.543 -19.459  0.00  0.00    +0.251 C 
ATOM     20  H   UNL     1      36.519 -19.736 -18.506  0.00  0.00    +0.150 HD
BRANCH  18  21
ATOM     21  C   UNL     1      37.372 -19.366 -20.388  0.00  0.00    +0.119 C 
BRANCH  21  24
ATOM     22  F   UNL     1      38.294 -18.550 -22.935  0.00  0.00    -0.204 F 
ATOM     23  F   UNL     1      33.999 -18.963 -24.878  0.00  0.00    -0.204 F 
ATOM     24  C   UNL     1      36.474 -19.258 -21.586  0.00  0.00    +0.025 C 
ATOM     25  C   UNL     1      36.993 -18.848 -22.814  0.00  0.00    +0.140 C 
ATOM     26  C   UNL     1      35.118 -19.568 -21.470  0.00  0.00    +0.002 C 
ATOM     27  C   UNL     1      36.158 -18.749 -23.926  0.00  0.00    +0.059 C 
ATOM     28  C   UNL     1      34.283 -19.467 -22.582  0.00  0.00    +0.030 C 
ATOM     29  C   UNL     1      34.802 -19.059 -23.811  0.00  0.00    +0.142 C 
ENDBRANCH  21  24
ENDBRANCH  18  21
ENDBRANCH  15  19
BRANCH  14  30
ATOM     30  O   UNL     1      36.633 -23.152 -14.669  0.00  0.00    -0.502 OA
ATOM     31  H   UNL     1      37.541 -23.384 -14.675  0.00  0.00    +0.292 HD
ENDBRANCH  14  30
TORSDOF 4
ENDMDL
