MODEL 1
REMARK VINA RESULT:     -11.4      0.000      0.000
REMARK  Name = 11507920
REMARK  4 active torsions:
REMARK  status: ('A' for Active; 'I' for Inactive)
REMARK    1  A    between atoms: C_1  and  C_8
REMARK    2  A    between atoms: C_2  and  C_17
REMARK    3  A    between atoms: C_17  and  N_18
REMARK    4  A    between atoms: N_18  and  C_21
REMARK                            x       y       z     vdW  Elec       q    Type
REMARK                         _______ _______ _______ _____ _____    ______ ____
ROOT
ATOM      1  C   UNL     1      35.067 -19.278 -22.074  0.00  0.00    -0.000 C 
ATOM      2  C   UNL     1      35.243 -16.988 -22.821  0.00  0.00    -0.003 C 
ATOM      3  C   UNL     1      35.200 -17.921 -21.785  0.00  0.00    -0.003 C 
ATOM      4  C   UNL     1      34.976 -19.705 -23.398  0.00  0.00    -0.000 C 
ATOM      5  C   UNL     1      35.151 -17.414 -24.147  0.00  0.00    -0.003 C 
ATOM      6  C   UNL     1      35.017 -18.772 -24.435  0.00  0.00    -0.000 C 
ENDROOT
BRANCH   1   8
ATOM      7  N   UNL     1      32.734 -22.256 -18.856  0.00  0.00    -0.312 N 
ATOM      8  C   UNL     1      35.021 -20.246 -20.998  0.00  0.00    +0.001 C 
ATOM      9  C   UNL     1      33.784 -21.639 -19.498  0.00  0.00    +0.048 C 
ATOM     10  C   UNL     1      34.960 -22.117 -18.916  0.00  0.00    +0.015 C 
ATOM     11  C   UNL     1      33.783 -20.704 -20.539  0.00  0.00    +0.015 C 
ATOM     12  C   UNL     1      36.211 -20.705 -20.436  0.00  0.00    +0.000 C 
ATOM     13  C   UNL     1      36.197 -21.640 -19.394  0.00  0.00    +0.001 C 
ATOM     14  C   UNL     1      34.578 -23.042 -17.904  0.00  0.00    +0.017 C 
ATOM     15  C   UNL     1      33.204 -23.105 -17.891  0.00  0.00    +0.062 C 
ATOM     16  H   UNL     1      31.782 -22.108 -19.061  0.00  0.00    +0.152 HD
ENDBRANCH   1   8
BRANCH   2  17
ATOM     17  C   UNL     1      35.385 -15.535 -22.514  0.00  0.00    +0.114 C 
BRANCH  17  18
ATOM     18  N   UNL     1      34.416 -14.731 -23.213  0.00  0.00    -0.327 N 
ATOM     19  H   UNL     1      34.324 -14.857 -24.185  0.00  0.00    +0.147 HD
BRANCH  18  21
ATOM     20  N   UNL     1      32.541 -11.598 -22.590  0.00  0.00    -0.228 NA
ATOM     21  C   UNL     1      33.605 -13.788 -22.596  0.00  0.00    +0.077 C 
ATOM     22  C   UNL     1      33.326 -12.541 -23.158  0.00  0.00    +0.139 C 
ATOM     23  C   UNL     1      33.018 -14.060 -21.353  0.00  0.00    +0.019 C 
ATOM     24  C   UNL     1      32.206 -13.115 -20.737  0.00  0.00    +0.022 C 
ATOM     25  C   UNL     1      32.000 -11.910 -21.390  0.00  0.00    +0.100 C 
ATOM     26  N   UNL     1      33.910 -12.243 -24.415  0.00  0.00    -0.342 N 
ATOM     27  H   UNL     1      33.736 -11.373 -24.844  0.00  0.00    +0.144 HD
ATOM     28  H   UNL     1      34.487 -12.904 -24.860  0.00  0.00    +0.144 HD
ENDBRANCH  18  21
ENDBRANCH  17  18
ENDBRANCH   2  17
TORSDOF 4
ENDMDL
MODEL 2
REMARK VINA RESULT:     -11.3      2.382      8.736
REMARK  Name = 11507920
REMARK  4 active torsions:
REMARK  status: ('A' for Active; 'I' for Inactive)
REMARK    1  A    between atoms: C_1  and  C_8
REMARK    2  A    between atoms: C_2  and  C_17
REMARK    3  A    between atoms: C_17  and  N_18
REMARK    4  A    between atoms: N_18  and  C_21
REMARK                            x       y       z     vdW  Elec       q    Type
REMARK                         _______ _______ _______ _____ _____    ______ ____
ROOT
ATOM      1  C   UNL     1      35.567 -20.190 -21.012  0.00  0.00    -0.000 C 
ATOM      2  C   UNL     1      34.751 -22.022 -19.666  0.00  0.00    -0.003 C 
ATOM      3  C   UNL     1      34.567 -21.113 -20.709  0.00  0.00    -0.003 C 
ATOM      4  C   UNL     1      36.750 -20.173 -20.275  0.00  0.00    -0.000 C 
ATOM      5  C   UNL     1      35.934 -22.006 -18.927  0.00  0.00    -0.003 C 
ATOM      6  C   UNL     1      36.934 -21.081 -19.231  0.00  0.00    -0.000 C 
ENDROOT
BRANCH   1   8
ATOM      7  N   UNL     1      35.317 -15.623 -22.949  0.00  0.00    -0.312 N 
ATOM      8  C   UNL     1      35.376 -19.246 -22.094  0.00  0.00    +0.001 C 
ATOM      9  C   UNL     1      35.281 -16.999 -22.907  0.00  0.00    +0.048 C 
ATOM     10  C   UNL     1      35.002 -17.441 -24.202  0.00  0.00    +0.015 C 
ATOM     11  C   UNL     1      35.473 -17.876 -21.835  0.00  0.00    +0.015 C 
ATOM     12  C   UNL     1      35.098 -19.717 -23.376  0.00  0.00    +0.000 C 
ATOM     13  C   UNL     1      34.908 -18.827 -24.440  0.00  0.00    +0.001 C 
ATOM     14  C   UNL     1      34.872 -16.284 -25.020  0.00  0.00    +0.017 C 
ATOM     15  C   UNL     1      35.071 -15.183 -24.220  0.00  0.00    +0.062 C 
ATOM     16  H   UNL     1      35.495 -15.041 -22.175  0.00  0.00    +0.152 HD
ENDBRANCH   1   8
BRANCH   2  17
ATOM     17  C   UNL     1      33.682 -23.009 -19.339  0.00  0.00    +0.114 C 
BRANCH  17  18
ATOM     18  N   UNL     1      32.743 -22.499 -18.374  0.00  0.00    -0.327 N 
ATOM     19  H   UNL     1      32.167 -21.746 -18.640  0.00  0.00    +0.147 HD
BRANCH  18  21
ATOM     20  N   UNL     1      31.186 -23.646 -15.215  0.00  0.00    -0.228 NA
ATOM     21  C   UNL     1      32.602 -23.008 -17.090  0.00  0.00    +0.077 C 
ATOM     22  C   UNL     1      31.364 -23.154 -16.461  0.00  0.00    +0.139 C 
ATOM     23  C   UNL     1      33.726 -23.409 -16.357  0.00  0.00    +0.019 C 
ATOM     24  C   UNL     1      33.584 -23.919 -15.071  0.00  0.00    +0.022 C 
ATOM     25  C   UNL     1      32.303 -24.017 -14.550  0.00  0.00    +0.100 C 
ATOM     26  N   UNL     1      30.211 -22.754 -17.183  0.00  0.00    -0.342 N 
ATOM     27  H   UNL     1      29.320 -22.841 -16.774  0.00  0.00    +0.144 HD
ATOM     28  H   UNL     1      30.300 -22.391 -18.093  0.00  0.00    +0.144 HD
ENDBRANCH  18  21
ENDBRANCH  17  18
ENDBRANCH   2  17
TORSDOF 4
ENDMDL
MODEL 3
REMARK VINA RESULT:     -11.3      1.225      1.993
REMARK  Name = 11507920
REMARK  4 active torsions:
REMARK  status: ('A' for Active; 'I' for Inactive)
REMARK    1  A    between atoms: C_1  and  C_8
REMARK    2  A    between atoms: C_2  and  C_17
REMARK    3  A    between atoms: C_17  and  N_18
REMARK    4  A    between atoms: N_18  and  C_21
REMARK                            x       y       z     vdW  Elec       q    Type
REMARK                         _______ _______ _______ _____ _____    ______ ____
ROOT
ATOM      1  C   UNL     1      35.256 -17.778 -23.290  0.00  0.00    -0.000 C 
ATOM      2  C   UNL     1      34.834 -15.502 -23.980  0.00  0.00    -0.003 C 
ATOM      3  C   UNL     1      35.207 -16.417 -22.994  0.00  0.00    -0.003 C 
ATOM      4  C   UNL     1      34.930 -18.228 -24.569  0.00  0.00    -0.000 C 
ATOM      5  C   UNL     1      34.508 -15.951 -25.259  0.00  0.00    -0.003 C 
ATOM      6  C   UNL     1      34.555 -17.315 -25.554  0.00  0.00    -0.000 C 
ENDROOT
BRANCH   1   8
ATOM      7  N   UNL     1      34.398 -21.484 -20.096  0.00  0.00    -0.312 N 
ATOM      8  C   UNL     1      35.643 -18.727 -22.266  0.00  0.00    +0.001 C 
ATOM      9  C   UNL     1      35.105 -20.513 -20.769  0.00  0.00    +0.048 C 
ATOM     10  C   UNL     1      36.415 -20.552 -20.288  0.00  0.00    +0.015 C 
ATOM     11  C   UNL     1      34.690 -19.613 -21.756  0.00  0.00    +0.015 C 
ATOM     12  C   UNL     1      36.958 -18.743 -21.805  0.00  0.00    +0.000 C 
ATOM     13  C   UNL     1      37.359 -19.649 -20.816  0.00  0.00    +0.001 C 
ATOM     14  C   UNL     1      36.468 -21.580 -19.305  0.00  0.00    +0.017 C 
ATOM     15  C   UNL     1      35.213 -22.133 -19.210  0.00  0.00    +0.062 C 
ATOM     16  H   UNL     1      33.443 -21.683 -20.234  0.00  0.00    +0.152 HD
ENDBRANCH   1   8
BRANCH   2  17
ATOM     17  C   UNL     1      34.781 -14.045 -23.665  0.00  0.00    +0.114 C 
BRANCH  17  18
ATOM     18  N   UNL     1      33.432 -13.574 -23.483  0.00  0.00    -0.327 N 
ATOM     19  H   UNL     1      32.835 -13.564 -24.265  0.00  0.00    +0.147 HD
BRANCH  18  21
ATOM     20  N   UNL     1      32.005 -11.351 -20.887  0.00  0.00    -0.228 NA
ATOM     21  C   UNL     1      32.926 -13.132 -22.268  0.00  0.00    +0.077 C 
ATOM     22  C   UNL     1      32.503 -11.819 -22.053  0.00  0.00    +0.139 C 
ATOM     23  C   UNL     1      32.816 -14.010 -21.182  0.00  0.00    +0.019 C 
ATOM     24  C   UNL     1      32.308 -13.566 -19.966  0.00  0.00    +0.022 C 
ATOM     25  C   UNL     1      31.919 -12.240 -19.871  0.00  0.00    +0.100 C 
ATOM     26  N   UNL     1      32.607 -10.911 -23.137  0.00  0.00    -0.342 N 
ATOM     27  H   UNL     1      32.319  -9.976 -23.024  0.00  0.00    +0.144 HD
ATOM     28  H   UNL     1      32.965 -11.214 -24.002  0.00  0.00    +0.144 HD
ENDBRANCH  18  21
ENDBRANCH  17  18
ENDBRANCH   2  17
TORSDOF 4
ENDMDL
MODEL 4
REMARK VINA RESULT:     -11.2      1.644      2.650
REMARK  Name = 11507920
REMARK  4 active torsions:
REMARK  status: ('A' for Active; 'I' for Inactive)
REMARK    1  A    between atoms: C_1  and  C_8
REMARK    2  A    between atoms: C_2  and  C_17
REMARK    3  A    between atoms: C_17  and  N_18
REMARK    4  A    between atoms: N_18  and  C_21
REMARK                            x       y       z     vdW  Elec       q    Type
REMARK                         _______ _______ _______ _____ _____    ______ ____
ROOT
ATOM      1  C   UNL     1      35.596 -20.035 -21.191  0.00  0.00    -0.000 C 
ATOM      2  C   UNL     1      35.656 -18.756 -23.240  0.00  0.00    -0.003 C 
ATOM      3  C   UNL     1      34.955 -19.548 -22.329  0.00  0.00    -0.003 C 
ATOM      4  C   UNL     1      36.938 -19.733 -20.962  0.00  0.00    -0.000 C 
ATOM      5  C   UNL     1      36.998 -18.453 -23.011  0.00  0.00    -0.003 C 
ATOM      6  C   UNL     1      37.640 -18.943 -21.873  0.00  0.00    -0.000 C 
ENDROOT
BRANCH   1   8
ATOM      7  N   UNL     1      35.247 -23.138 -17.330  0.00  0.00    -0.312 N 
ATOM      8  C   UNL     1      34.868 -20.857 -20.247  0.00  0.00    +0.001 C 
ATOM      9  C   UNL     1      34.831 -22.348 -18.377  0.00  0.00    +0.048 C 
ATOM     10  C   UNL     1      33.438 -22.441 -18.434  0.00  0.00    +0.015 C 
ATOM     11  C   UNL     1      35.572 -21.565 -19.269  0.00  0.00    +0.015 C 
ATOM     12  C   UNL     1      33.479 -20.931 -20.329  0.00  0.00    +0.000 C 
ATOM     13  C   UNL     1      32.750 -21.719 -19.430  0.00  0.00    +0.001 C 
ATOM     14  C   UNL     1      33.036 -23.314 -17.385  0.00  0.00    +0.017 C 
ATOM     15  C   UNL     1      34.170 -23.726 -16.725  0.00  0.00    +0.062 C 
ATOM     16  H   UNL     1      36.185 -23.263 -17.056  0.00  0.00    +0.152 HD
ENDBRANCH   1   8
BRANCH   2  17
ATOM     17  C   UNL     1      34.971 -18.234 -24.458  0.00  0.00    +0.114 C 
BRANCH  17  18
ATOM     18  N   UNL     1      35.389 -16.896 -24.788  0.00  0.00    -0.327 N 
ATOM     19  H   UNL     1      36.136 -16.785 -25.419  0.00  0.00    +0.147 HD
BRANCH  18  21
ATOM     20  N   UNL     1      33.374 -13.797 -24.545  0.00  0.00    -0.228 NA
ATOM     21  C   UNL     1      34.798 -15.752 -24.267  0.00  0.00    +0.077 C 
ATOM     22  C   UNL     1      33.967 -14.917 -25.017  0.00  0.00    +0.139 C 
ATOM     23  C   UNL     1      35.017 -15.383 -22.933  0.00  0.00    +0.019 C 
ATOM     24  C   UNL     1      34.424 -14.238 -22.413  0.00  0.00    +0.022 C 
ATOM     25  C   UNL     1      33.618 -13.486 -23.252  0.00  0.00    +0.100 C 
ATOM     26  N   UNL     1      33.732 -15.268 -26.369  0.00  0.00    -0.342 N 
ATOM     27  H   UNL     1      33.151 -14.704 -26.930  0.00  0.00    +0.144 HD
ATOM     28  H   UNL     1      34.147 -16.076 -26.748  0.00  0.00    +0.144 HD
ENDBRANCH  18  21
ENDBRANCH  17  18
ENDBRANCH   2  17
TORSDOF 4
ENDMDL
MODEL 5
REMARK VINA RESULT:     -11.2      2.421      8.940
REMARK  Name = 11507920
REMARK  4 active torsions:
REMARK  status: ('A' for Active; 'I' for Inactive)
REMARK    1  A    between atoms: C_1  and  C_8
REMARK    2  A    between atoms: C_2  and  C_17
REMARK    3  A    between atoms: C_17  and  N_18
REMARK    4  A    between atoms: N_18  and  C_21
REMARK                            x       y       z     vdW  Elec       q    Type
REMARK                         _______ _______ _______ _____ _____    ______ ____
ROOT
ATOM      1  C   UNL     1      35.421 -20.197 -21.012  0.00  0.00    -0.000 C 
ATOM      2  C   UNL     1      34.417 -21.729 -19.438  0.00  0.00    -0.003 C 
ATOM      3  C   UNL     1      34.290 -20.823 -20.491  0.00  0.00    -0.003 C 
ATOM      4  C   UNL     1      36.680 -20.474 -20.482  0.00  0.00    -0.000 C 
ATOM      5  C   UNL     1      35.677 -22.007 -18.906  0.00  0.00    -0.003 C 
ATOM      6  C   UNL     1      36.809 -21.379 -19.428  0.00  0.00    -0.000 C 
ENDROOT
BRANCH   1   8
ATOM      7  N   UNL     1      35.323 -15.636 -22.977  0.00  0.00    -0.312 N 
ATOM      8  C   UNL     1      35.288 -19.255 -22.105  0.00  0.00    +0.001 C 
ATOM      9  C   UNL     1      35.263 -17.011 -22.931  0.00  0.00    +0.048 C 
ATOM     10  C   UNL     1      35.027 -17.455 -24.234  0.00  0.00    +0.015 C 
ATOM     11  C   UNL     1      35.397 -17.886 -21.848  0.00  0.00    +0.015 C 
ATOM     12  C   UNL     1      35.052 -19.728 -23.395  0.00  0.00    +0.000 C 
ATOM     13  C   UNL     1      34.919 -18.841 -24.469  0.00  0.00    +0.001 C 
ATOM     14  C   UNL     1      34.949 -16.300 -25.061  0.00  0.00    +0.017 C 
ATOM     15  C   UNL     1      35.134 -15.198 -24.259  0.00  0.00    +0.062 C 
ATOM     16  H   UNL     1      35.480 -15.053 -22.199  0.00  0.00    +0.152 HD
ENDBRANCH   1   8
BRANCH   2  17
ATOM     17  C   UNL     1      33.208 -22.400 -18.879  0.00  0.00    +0.114 C 
BRANCH  17  18
ATOM     18  N   UNL     1      33.542 -23.396 -17.893  0.00  0.00    -0.327 N 
ATOM     19  H   UNL     1      34.198 -24.088 -18.137  0.00  0.00    +0.147 HD
BRANCH  18  21
ATOM     20  N   UNL     1      33.197 -23.937 -14.245  0.00  0.00    -0.228 NA
ATOM     21  C   UNL     1      32.991 -23.436 -16.619  0.00  0.00    +0.077 C 
ATOM     22  C   UNL     1      33.697 -23.884 -15.500  0.00  0.00    +0.139 C 
ATOM     23  C   UNL     1      31.673 -23.016 -16.401  0.00  0.00    +0.019 C 
ATOM     24  C   UNL     1      31.123 -23.057 -15.124  0.00  0.00    +0.022 C 
ATOM     25  C   UNL     1      31.919 -23.522 -14.089  0.00  0.00    +0.100 C 
ATOM     26  N   UNL     1      35.033 -24.315 -15.696  0.00  0.00    -0.342 N 
ATOM     27  H   UNL     1      35.562 -24.638 -14.932  0.00  0.00    +0.144 HD
ATOM     28  H   UNL     1      35.432 -24.291 -16.596  0.00  0.00    +0.144 HD
ENDBRANCH  18  21
ENDBRANCH  17  18
ENDBRANCH   2  17
TORSDOF 4
ENDMDL
MODEL 6
REMARK VINA RESULT:     -11.2      1.640      2.282
REMARK  Name = 11507920
REMARK  4 active torsions:
REMARK  status: ('A' for Active; 'I' for Inactive)
REMARK    1  A    between atoms: C_1  and  C_8
REMARK    2  A    between atoms: C_2  and  C_17
REMARK    3  A    between atoms: C_17  and  N_18
REMARK    4  A    between atoms: N_18  and  C_21
REMARK                            x       y       z     vdW  Elec       q    Type
REMARK                         _______ _______ _______ _____ _____    ______ ____
ROOT
ATOM      1  C   UNL     1      35.072 -19.280 -22.420  0.00  0.00    -0.000 C 
ATOM      2  C   UNL     1      35.215 -17.042 -23.318  0.00  0.00    -0.003 C 
ATOM      3  C   UNL     1      35.196 -17.905 -22.222  0.00  0.00    -0.003 C 
ATOM      4  C   UNL     1      34.966 -19.793 -23.712  0.00  0.00    -0.000 C 
ATOM      5  C   UNL     1      35.109 -17.554 -24.611  0.00  0.00    -0.003 C 
ATOM      6  C   UNL     1      34.984 -18.930 -24.808  0.00  0.00    -0.000 C 
ENDROOT
BRANCH   1   8
ATOM      7  N   UNL     1      32.822 -22.167 -19.064  0.00  0.00    -0.312 N 
ATOM      8  C   UNL     1      35.051 -20.175 -21.282  0.00  0.00    +0.001 C 
ATOM      9  C   UNL     1      33.853 -21.535 -19.721  0.00  0.00    +0.048 C 
ATOM     10  C   UNL     1      35.037 -21.905 -19.080  0.00  0.00    +0.015 C 
ATOM     11  C   UNL     1      33.829 -20.673 -20.823  0.00  0.00    +0.015 C 
ATOM     12  C   UNL     1      36.249 -20.527 -20.662  0.00  0.00    +0.000 C 
ATOM     13  C   UNL     1      36.258 -21.391 -19.561  0.00  0.00    +0.001 C 
ATOM     14  C   UNL     1      34.680 -22.781 -18.017  0.00  0.00    +0.017 C 
ATOM     15  C   UNL     1      33.312 -22.922 -18.033  0.00  0.00    +0.062 C 
ATOM     16  H   UNL     1      31.870 -22.088 -19.301  0.00  0.00    +0.152 HD
ENDBRANCH   1   8
BRANCH   2  17
ATOM     17  C   UNL     1      35.348 -15.571 -23.108  0.00  0.00    +0.114 C 
BRANCH  17  18
ATOM     18  N   UNL     1      34.151 -14.857 -23.471  0.00  0.00    -0.327 N 
ATOM     19  H   UNL     1      33.407 -14.840 -22.827  0.00  0.00    +0.147 HD
BRANCH  18  21
ATOM     20  N   UNL     1      34.008 -12.129 -25.973  0.00  0.00    -0.228 NA
ATOM     21  C   UNL     1      33.986 -14.192 -24.679  0.00  0.00    +0.077 C 
ATOM     22  C   UNL     1      34.158 -12.813 -24.816  0.00  0.00    +0.139 C 
ATOM     23  C   UNL     1      33.633 -14.897 -25.837  0.00  0.00    +0.019 C 
ATOM     24  C   UNL     1      33.469 -14.229 -27.045  0.00  0.00    +0.022 C 
ATOM     25  C   UNL     1      33.666 -12.857 -27.061  0.00  0.00    +0.100 C 
ATOM     26  N   UNL     1      34.513 -12.077 -23.658  0.00  0.00    -0.342 N 
ATOM     27  H   UNL     1      34.644 -11.103 -23.715  0.00  0.00    +0.144 HD
ATOM     28  H   UNL     1      34.632 -12.540 -22.797  0.00  0.00    +0.144 HD
ENDBRANCH  18  21
ENDBRANCH  17  18
ENDBRANCH   2  17
TORSDOF 4
ENDMDL
MODEL 7
REMARK VINA RESULT:     -10.8      7.199     10.408
REMARK  Name = 11507920
REMARK  4 active torsions:
REMARK  status: ('A' for Active; 'I' for Inactive)
REMARK    1  A    between atoms: C_1  and  C_8
REMARK    2  A    between atoms: C_2  and  C_17
REMARK    3  A    between atoms: C_17  and  N_18
REMARK    4  A    between atoms: N_18  and  C_21
REMARK                            x       y       z     vdW  Elec       q    Type
REMARK                         _______ _______ _______ _____ _____    ______ ____
ROOT
ATOM      1  C   UNL     1      34.222 -22.795 -17.339  0.00  0.00    -0.000 C 
ATOM      2  C   UNL     1      36.586 -22.359 -17.103  0.00  0.00    -0.003 C 
ATOM      3  C   UNL     1      35.368 -22.754 -16.547  0.00  0.00    -0.003 C 
ATOM      4  C   UNL     1      34.289 -22.441 -18.686  0.00  0.00    -0.000 C 
ATOM      5  C   UNL     1      36.654 -22.005 -18.451  0.00  0.00    -0.003 C 
ATOM      6  C   UNL     1      35.506 -22.045 -19.242  0.00  0.00    -0.000 C 
ENDROOT
BRANCH   1   8
ATOM      7  N   UNL     1      29.262 -22.929 -17.111  0.00  0.00    -0.312 N 
ATOM      8  C   UNL     1      32.958 -23.204 -16.761  0.00  0.00    +0.001 C 
ATOM      9  C   UNL     1      30.566 -23.191 -16.758  0.00  0.00    +0.048 C 
ATOM     10  C   UNL     1      30.528 -24.008 -15.625  0.00  0.00    +0.015 C 
ATOM     11  C   UNL     1      31.765 -22.774 -17.347  0.00  0.00    +0.015 C 
ATOM     12  C   UNL     1      32.951 -24.019 -15.630  0.00  0.00    +0.000 C 
ATOM     13  C   UNL     1      31.745 -24.429 -15.051  0.00  0.00    +0.001 C 
ATOM     14  C   UNL     1      29.157 -24.225 -15.314  0.00  0.00    +0.017 C 
ATOM     15  C   UNL     1      28.404 -23.549 -16.245  0.00  0.00    +0.062 C 
ATOM     16  H   UNL     1      28.987 -22.375 -17.877  0.00  0.00    +0.152 HD
ENDBRANCH   1   8
BRANCH   2  17
ATOM     17  C   UNL     1      37.813 -22.314 -16.258  0.00  0.00    +0.114 C 
BRANCH  17  18
ATOM     18  N   UNL     1      38.451 -23.601 -16.151  0.00  0.00    -0.327 N 
ATOM     19  H   UNL     1      38.959 -23.933 -16.927  0.00  0.00    +0.147 HD
BRANCH  18  21
ATOM     20  N   UNL     1      39.287 -26.218 -13.666  0.00  0.00    -0.228 NA
ATOM     21  C   UNL     1      38.391 -24.402 -15.019  0.00  0.00    +0.077 C 
ATOM     22  C   UNL     1      39.311 -25.419 -14.757  0.00  0.00    +0.139 C 
ATOM     23  C   UNL     1      37.379 -24.214 -14.068  0.00  0.00    +0.019 C 
ATOM     24  C   UNL     1      37.321 -25.016 -12.934  0.00  0.00    +0.022 C 
ATOM     25  C   UNL     1      38.290 -25.995 -12.781  0.00  0.00    +0.100 C 
ATOM     26  N   UNL     1      40.344 -25.629 -15.705  0.00  0.00    -0.342 N 
ATOM     27  H   UNL     1      41.012 -26.337 -15.556  0.00  0.00    +0.144 HD
ATOM     28  H   UNL     1      40.394 -25.068 -16.512  0.00  0.00    +0.144 HD
ENDBRANCH  18  21
ENDBRANCH  17  18
ENDBRANCH   2  17
TORSDOF 4
ENDMDL
MODEL 8
REMARK VINA RESULT:     -10.8      4.868      8.901
REMARK  Name = 11507920
REMARK  4 active torsions:
REMARK  status: ('A' for Active; 'I' for Inactive)
REMARK    1  A    between atoms: C_1  and  C_8
REMARK    2  A    between atoms: C_2  and  C_17
REMARK    3  A    between atoms: C_17  and  N_18
REMARK    4  A    between atoms: N_18  and  C_21
REMARK                            x       y       z     vdW  Elec       q    Type
REMARK                         _______ _______ _______ _____ _____    ______ ____
ROOT
ATOM      1  C   UNL     1      34.746 -24.211 -14.738  0.00  0.00    -0.000 C 
ATOM      2  C   UNL     1      33.155 -23.325 -16.325  0.00  0.00    -0.003 C 
ATOM      3  C   UNL     1      34.452 -23.733 -16.015  0.00  0.00    -0.003 C 
ATOM      4  C   UNL     1      33.744 -24.281 -13.771  0.00  0.00    -0.000 C 
ATOM      5  C   UNL     1      32.152 -23.394 -15.357  0.00  0.00    -0.003 C 
ATOM      6  C   UNL     1      32.447 -23.872 -14.080  0.00  0.00    -0.000 C 
ENDROOT
BRANCH   1   8
ATOM      7  N   UNL     1      39.535 -25.007 -15.784  0.00  0.00    -0.312 N 
ATOM      8  C   UNL     1      36.093 -24.634 -14.416  0.00  0.00    +0.001 C 
ATOM      9  C   UNL     1      38.377 -24.973 -15.041  0.00  0.00    +0.048 C 
ATOM     10  C   UNL     1      38.690 -25.457 -13.769  0.00  0.00    +0.015 C 
ATOM     11  C   UNL     1      37.089 -24.555 -15.393  0.00  0.00    +0.015 C 
ATOM     12  C   UNL     1      36.376 -25.113 -13.138  0.00  0.00    +0.000 C 
ATOM     13  C   UNL     1      37.669 -25.528 -12.800  0.00  0.00    +0.001 C 
ATOM     14  C   UNL     1      40.075 -25.782 -13.776  0.00  0.00    +0.017 C 
ATOM     15  C   UNL     1      40.566 -25.495 -15.028  0.00  0.00    +0.062 C 
ATOM     16  H   UNL     1      39.611 -24.722 -16.723  0.00  0.00    +0.152 HD
ENDBRANCH   1   8
BRANCH   2  17
ATOM     17  C   UNL     1      32.839 -22.813 -17.690  0.00  0.00    +0.114 C 
BRANCH  17  18
ATOM     18  N   UNL     1      33.971 -22.888 -18.577  0.00  0.00    -0.327 N 
ATOM     19  H   UNL     1      34.513 -23.709 -18.570  0.00  0.00    +0.147 HD
BRANCH  18  21
ATOM     20  N   UNL     1      36.057 -20.418 -20.385  0.00  0.00    -0.228 NA
ATOM     21  C   UNL     1      34.342 -21.867 -19.442  0.00  0.00    +0.077 C 
ATOM     22  C   UNL     1      35.656 -21.407 -19.555  0.00  0.00    +0.139 C 
ATOM     23  C   UNL     1      33.389 -21.245 -20.259  0.00  0.00    +0.019 C 
ATOM     24  C   UNL     1      33.763 -20.224 -21.126  0.00  0.00    +0.022 C 
ATOM     25  C   UNL     1      35.098 -19.851 -21.151  0.00  0.00    +0.100 C 
ATOM     26  N   UNL     1      36.638 -22.020 -18.737  0.00  0.00    -0.342 N 
ATOM     27  H   UNL     1      37.576 -21.722 -18.788  0.00  0.00    +0.144 HD
ATOM     28  H   UNL     1      36.385 -22.743 -18.120  0.00  0.00    +0.144 HD
ENDBRANCH  18  21
ENDBRANCH  17  18
ENDBRANCH   2  17
TORSDOF 4
ENDMDL
MODEL 9
REMARK VINA RESULT:     -10.8      1.707      8.572
REMARK  Name = 11507920
REMARK  4 active torsions:
REMARK  status: ('A' for Active; 'I' for Inactive)
REMARK    1  A    between atoms: C_1  and  C_8
REMARK    2  A    between atoms: C_2  and  C_17
REMARK    3  A    between atoms: C_17  and  N_18
REMARK    4  A    between atoms: N_18  and  C_21
REMARK                            x       y       z     vdW  Elec       q    Type
REMARK                         _______ _______ _______ _____ _____    ______ ____
ROOT
ATOM      1  C   UNL     1      34.411 -14.990 -23.945  0.00  0.00    -0.000 C 
ATOM      2  C   UNL     1      35.248 -17.092 -23.097  0.00  0.00    -0.003 C 
ATOM      3  C   UNL     1      34.799 -15.790 -22.870  0.00  0.00    -0.003 C 
ATOM      4  C   UNL     1      34.473 -15.489 -25.245  0.00  0.00    -0.000 C 
ATOM      5  C   UNL     1      35.310 -17.591 -24.398  0.00  0.00    -0.003 C 
ATOM      6  C   UNL     1      34.923 -16.789 -25.472  0.00  0.00    -0.000 C 
ENDROOT
BRANCH   1   8
ATOM      7  N   UNL     1      31.779 -11.542 -21.527  0.00  0.00    -0.312 N 
ATOM      8  C   UNL     1      33.946 -13.639 -23.709  0.00  0.00    +0.001 C 
ATOM      9  C   UNL     1      32.634 -12.073 -22.465  0.00  0.00    +0.048 C 
ATOM     10  C   UNL     1      33.061 -11.018 -23.276  0.00  0.00    +0.015 C 
ATOM     11  C   UNL     1      33.059 -13.392 -22.658  0.00  0.00    +0.015 C 
ATOM     12  C   UNL     1      34.389 -12.607 -24.534  0.00  0.00    +0.000 C 
ATOM     13  C   UNL     1      33.955 -11.291 -24.330  0.00  0.00    +0.001 C 
ATOM     14  C   UNL     1      32.433  -9.838 -22.789  0.00  0.00    +0.017 C 
ATOM     15  C   UNL     1      31.651 -10.192 -21.715  0.00  0.00    +0.062 C 
ATOM     16  H   UNL     1      31.325 -12.058 -20.822  0.00  0.00    +0.152 HD
ENDBRANCH   1   8
BRANCH   2  17
ATOM     17  C   UNL     1      35.663 -17.949 -21.949  0.00  0.00    +0.114 C 
BRANCH  17  18
ATOM     18  N   UNL     1      35.020 -19.237 -21.968  0.00  0.00    -0.327 N 
ATOM     19  H   UNL     1      34.434 -19.452 -22.730  0.00  0.00    +0.147 HD
BRANCH  18  21
ATOM     20  N   UNL     1      34.215 -21.825 -19.443  0.00  0.00    -0.228 NA
ATOM     21  C   UNL     1      35.176 -20.193 -20.974  0.00  0.00    +0.077 C 
ATOM     22  C   UNL     1      34.103 -20.887 -20.410  0.00  0.00    +0.139 C 
ATOM     23  C   UNL     1      36.451 -20.509 -20.485  0.00  0.00    +0.019 C 
ATOM     24  C   UNL     1      36.606 -21.467 -19.490  0.00  0.00    +0.022 C 
ATOM     25  C   UNL     1      35.467 -22.091 -19.006  0.00  0.00    +0.100 C 
ATOM     26  N   UNL     1      32.803 -20.584 -20.887  0.00  0.00    -0.342 N 
ATOM     27  H   UNL     1      32.021 -21.052 -20.515  0.00  0.00    +0.144 HD
ATOM     28  H   UNL     1      32.682 -19.907 -21.591  0.00  0.00    +0.144 HD
ENDBRANCH  18  21
ENDBRANCH  17  18
ENDBRANCH   2  17
TORSDOF 4
ENDMDL
