MODEL 1
REMARK VINA RESULT:     -12.0      0.000      0.000
REMARK  Name = 24771824
REMARK  4 active torsions:
REMARK  status: ('A' for Active; 'I' for Inactive)
REMARK    1  A    between atoms: C_11  and  C_18
REMARK    2  A    between atoms: C_21  and  O_24
REMARK    3  A    between atoms: O_24  and  C_26
REMARK    4  A    between atoms: C_28  and  C_34
REMARK                            x       y       z     vdW  Elec       q    Type
REMARK                         _______ _______ _______ _____ _____    ______ ____
ROOT
ATOM      1  O   UNL     1      33.990 -23.400 -16.972  0.00  0.00    -0.252 OA
ATOM      2  N   UNL     1      34.052 -21.826 -18.666  0.00  0.00    -0.263 N 
ATOM      3  N   UNL     1      31.987 -22.586 -17.811  0.00  0.00    -0.252 N 
ATOM      4  N   UNL     1      31.508 -24.146 -16.073  0.00  0.00    -0.133 NA
ATOM      5  N   UNL     1      30.613 -24.821 -15.301  0.00  0.00    -0.145 NA
ATOM      6  C   UNL     1      36.083 -22.034 -20.079  0.00  0.00    +0.044 C 
ATOM      7  C   UNL     1      33.955 -21.057 -21.031  0.00  0.00    +0.044 C 
ATOM      8  C   UNL     1      35.522 -21.812 -18.675  0.00  0.00    +0.099 C 
ATOM      9  C   UNL     1      33.416 -20.883 -19.606  0.00  0.00    +0.099 C 
ATOM     10  C   UNL     1      35.460 -21.060 -21.041  0.00  0.00    -0.041 C 
ATOM     11  C   UNL     1      36.183 -20.248 -21.825  0.00  0.00    -0.008 C 
ATOM     12  C   UNL     1      33.377 -22.672 -17.758  0.00  0.00    +0.309 C 
ATOM     13  C   UNL     1      31.052 -23.286 -17.009  0.00  0.00    +0.157 C 
ATOM     14  C   UNL     1      29.708 -23.055 -17.224  0.00  0.00    +0.038 C 
ATOM     15  C   UNL     1      28.799 -23.742 -16.439  0.00  0.00    +0.025 C 
ATOM     16  C   UNL     1      29.294 -24.615 -15.491  0.00  0.00    +0.122 C 
ATOM     17  H   UNL     1      31.613 -21.969 -18.481  0.00  0.00    +0.158 HD
ENDROOT
BRANCH  11  18
ATOM     18  C   UNL     1      35.640 -19.275 -22.786  0.00  0.00    +0.002 C 
ATOM     19  C   UNL     1      35.927 -17.917 -22.639  0.00  0.00    +0.038 C 
ATOM     20  C   UNL     1      34.841 -19.708 -23.842  0.00  0.00    +0.000 C 
ATOM     21  C   UNL     1      35.414 -16.994 -23.551  0.00  0.00    +0.147 C 
ATOM     22  C   UNL     1      34.327 -18.786 -24.753  0.00  0.00    +0.003 C 
ATOM     23  C   UNL     1      34.614 -17.428 -24.608  0.00  0.00    +0.038 C 
BRANCH  21  24
ATOM     24  O   UNL     1      35.693 -15.670 -23.408  0.00  0.00    -0.436 OA
BRANCH  24  26
ATOM     25  N   UNL     1      34.207 -13.879 -23.256  0.00  0.00    -0.210 NA
ATOM     26  C   UNL     1      34.829 -14.908 -22.640  0.00  0.00    +0.230 C 
ATOM     27  C   UNL     1      34.651 -15.236 -21.306  0.00  0.00    +0.058 C 
ATOM     28  C   UNL     1      33.117 -13.389 -21.155  0.00  0.00    +0.091 C 
ATOM     29  C   UNL     1      33.777 -14.457 -20.555  0.00  0.00    +0.010 C 
ATOM     30  C   UNL     1      33.365 -13.144 -22.496  0.00  0.00    +0.106 C 
BRANCH  28  34
ATOM     31  F   UNL     1      32.614 -11.250 -20.208  0.00  0.00    -0.166 F 
ATOM     32  F   UNL     1      30.942 -12.417 -20.948  0.00  0.00    -0.166 F 
ATOM     33  F   UNL     1      31.953 -13.011 -19.116  0.00  0.00    -0.166 F 
ATOM     34  C   UNL     1      32.178 -12.536 -20.378  0.00  0.00    +0.420 C 
ENDBRANCH  28  34
ENDBRANCH  24  26
ENDBRANCH  21  24
ENDBRANCH  11  18
TORSDOF 4
ENDMDL
MODEL 2
REMARK VINA RESULT:     -11.0      3.329      4.464
REMARK  Name = 24771824
REMARK  4 active torsions:
REMARK  status: ('A' for Active; 'I' for Inactive)
REMARK    1  A    between atoms: C_11  and  C_18
REMARK    2  A    between atoms: C_21  and  O_24
REMARK    3  A    between atoms: O_24  and  C_26
REMARK    4  A    between atoms: C_28  and  C_34
REMARK                            x       y       z     vdW  Elec       q    Type
REMARK                         _______ _______ _______ _____ _____    ______ ____
ROOT
ATOM      1  O   UNL     1      33.764 -24.525 -15.384  0.00  0.00    -0.252 OA
ATOM      2  N   UNL     1      34.736 -23.299 -17.088  0.00  0.00    -0.263 N 
ATOM      3  N   UNL     1      35.765 -23.430 -14.968  0.00  0.00    -0.252 N 
ATOM      4  N   UNL     1      35.111 -24.599 -12.995  0.00  0.00    -0.133 NA
ATOM      5  N   UNL     1      35.334 -24.955 -11.702  0.00  0.00    -0.145 NA
ATOM      6  C   UNL     1      33.061 -22.414 -18.693  0.00  0.00    +0.044 C 
ATOM      7  C   UNL     1      35.262 -21.219 -18.350  0.00  0.00    +0.044 C 
ATOM      8  C   UNL     1      33.663 -23.651 -18.029  0.00  0.00    +0.099 C 
ATOM      9  C   UNL     1      35.816 -22.471 -17.660  0.00  0.00    +0.099 C 
ATOM     10  C   UNL     1      34.151 -21.576 -19.302  0.00  0.00    -0.041 C 
ATOM     11  C   UNL     1      34.147 -21.196 -20.588  0.00  0.00    -0.008 C 
ATOM     12  C   UNL     1      34.685 -23.799 -15.768  0.00  0.00    +0.309 C 
ATOM     13  C   UNL     1      36.002 -23.800 -13.621  0.00  0.00    +0.157 C 
ATOM     14  C   UNL     1      37.141 -23.321 -13.006  0.00  0.00    +0.038 C 
ATOM     15  C   UNL     1      37.369 -23.685 -11.690  0.00  0.00    +0.025 C 
ATOM     16  C   UNL     1      36.440 -24.502 -11.076  0.00  0.00    +0.122 C 
ATOM     17  H   UNL     1      36.439 -22.847 -15.386  0.00  0.00    +0.158 HD
ENDROOT
BRANCH  11  18
ATOM     18  C   UNL     1      35.178 -20.379 -21.245  0.00  0.00    +0.002 C 
ATOM     19  C   UNL     1      34.917 -19.795 -22.485  0.00  0.00    +0.038 C 
ATOM     20  C   UNL     1      36.414 -20.187 -20.630  0.00  0.00    +0.000 C 
ATOM     21  C   UNL     1      35.894 -19.018 -23.108  0.00  0.00    +0.147 C 
ATOM     22  C   UNL     1      37.391 -19.410 -21.253  0.00  0.00    +0.003 C 
ATOM     23  C   UNL     1      37.131 -18.826 -22.493  0.00  0.00    +0.038 C 
BRANCH  21  24
ATOM     24  O   UNL     1      35.641 -18.448 -24.318  0.00  0.00    -0.436 OA
BRANCH  24  26
ATOM     25  N   UNL     1      35.358 -16.421 -23.199  0.00  0.00    -0.210 NA
ATOM     26  C   UNL     1      35.188 -17.139 -24.331  0.00  0.00    +0.230 C 
ATOM     27  C   UNL     1      34.599 -16.644 -25.483  0.00  0.00    +0.058 C 
ATOM     28  C   UNL     1      34.311 -14.556 -24.325  0.00  0.00    +0.091 C 
ATOM     29  C   UNL     1      34.154 -15.327 -25.472  0.00  0.00    +0.010 C 
ATOM     30  C   UNL     1      34.913 -15.145 -23.225  0.00  0.00    +0.106 C 
BRANCH  28  34
ATOM     31  F   UNL     1      34.727 -12.288 -23.684  0.00  0.00    -0.166 F 
ATOM     32  F   UNL     1      33.607 -12.603 -25.514  0.00  0.00    -0.166 F 
ATOM     33  F   UNL     1      32.673 -12.997 -23.590  0.00  0.00    -0.166 F 
ATOM     34  C   UNL     1      33.843 -13.144 -24.281  0.00  0.00    +0.420 C 
ENDBRANCH  28  34
ENDBRANCH  24  26
ENDBRANCH  21  24
ENDBRANCH  11  18
TORSDOF 4
ENDMDL
MODEL 3
REMARK VINA RESULT:     -10.9      4.379     10.237
REMARK  Name = 24771824
REMARK  4 active torsions:
REMARK  status: ('A' for Active; 'I' for Inactive)
REMARK    1  A    between atoms: C_11  and  C_18
REMARK    2  A    between atoms: C_21  and  O_24
REMARK    3  A    between atoms: O_24  and  C_26
REMARK    4  A    between atoms: C_28  and  C_34
REMARK                            x       y       z     vdW  Elec       q    Type
REMARK                         _______ _______ _______ _____ _____    ______ ____
ROOT
ATOM      1  O   UNL     1      33.077 -12.009 -23.884  0.00  0.00    -0.252 OA
ATOM      2  N   UNL     1      33.609 -14.073 -22.983  0.00  0.00    -0.263 N 
ATOM      3  N   UNL     1      32.978 -12.279 -21.583  0.00  0.00    -0.252 N 
ATOM      4  N   UNL     1      32.333 -10.047 -22.117  0.00  0.00    -0.133 NA
ATOM      5  N   UNL     1      31.921  -8.809 -21.730  0.00  0.00    -0.145 NA
ATOM      6  C   UNL     1      35.222 -15.332 -24.387  0.00  0.00    +0.044 C 
ATOM      7  C   UNL     1      35.106 -15.737 -21.895  0.00  0.00    +0.044 C 
ATOM      8  C   UNL     1      33.857 -14.651 -24.311  0.00  0.00    +0.099 C 
ATOM      9  C   UNL     1      33.753 -15.017 -21.857  0.00  0.00    +0.099 C 
ATOM     10  C   UNL     1      35.370 -16.316 -23.259  0.00  0.00    -0.041 C 
ATOM     11  C   UNL     1      35.687 -17.604 -23.453  0.00  0.00    -0.008 C 
ATOM     12  C   UNL     1      33.217 -12.719 -22.884  0.00  0.00    +0.309 C 
ATOM     13  C   UNL     1      32.549 -10.992 -21.176  0.00  0.00    +0.157 C 
ATOM     14  C   UNL     1      32.372 -10.761 -19.826  0.00  0.00    +0.038 C 
ATOM     15  C   UNL     1      31.953  -9.502 -19.434  0.00  0.00    +0.025 C 
ATOM     16  C   UNL     1      31.740  -8.556 -20.418  0.00  0.00    +0.122 C 
ATOM     17  H   UNL     1      33.125 -12.938 -20.865  0.00  0.00    +0.158 HD
ENDROOT
BRANCH  11  18
ATOM     18  C   UNL     1      35.847 -18.617 -22.398  0.00  0.00    +0.002 C 
ATOM     19  C   UNL     1      34.770 -19.431 -22.045  0.00  0.00    +0.038 C 
ATOM     20  C   UNL     1      37.074 -18.765 -21.752  0.00  0.00    +0.000 C 
ATOM     21  C   UNL     1      34.922 -20.393 -21.046  0.00  0.00    +0.147 C 
ATOM     22  C   UNL     1      37.225 -19.726 -20.753  0.00  0.00    +0.003 C 
ATOM     23  C   UNL     1      36.148 -20.541 -20.400  0.00  0.00    +0.038 C 
BRANCH  21  24
ATOM     24  O   UNL     1      33.871 -21.187 -20.702  0.00  0.00    -0.436 OA
BRANCH  24  26
ATOM     25  N   UNL     1      32.764 -22.198 -18.915  0.00  0.00    -0.210 NA
ATOM     26  C   UNL     1      33.938 -21.853 -19.490  0.00  0.00    +0.230 C 
ATOM     27  C   UNL     1      35.180 -22.128 -18.942  0.00  0.00    +0.058 C 
ATOM     28  C   UNL     1      34.034 -23.171 -17.102  0.00  0.00    +0.091 C 
ATOM     29  C   UNL     1      35.221 -22.799 -17.724  0.00  0.00    +0.010 C 
ATOM     30  C   UNL     1      32.842 -22.849 -17.733  0.00  0.00    +0.106 C 
BRANCH  28  34
ATOM     31  F   UNL     1      32.812 -24.331 -15.404  0.00  0.00    -0.166 F 
ATOM     32  F   UNL     1      34.840 -24.998 -15.787  0.00  0.00    -0.166 F 
ATOM     33  F   UNL     1      34.495 -23.107 -14.771  0.00  0.00    -0.166 F 
ATOM     34  C   UNL     1      34.044 -23.887 -15.799  0.00  0.00    +0.420 C 
ENDBRANCH  28  34
ENDBRANCH  24  26
ENDBRANCH  21  24
ENDBRANCH  11  18
TORSDOF 4
ENDMDL
MODEL 4
REMARK VINA RESULT:     -10.9      5.461     12.158
REMARK  Name = 24771824
REMARK  4 active torsions:
REMARK  status: ('A' for Active; 'I' for Inactive)
REMARK    1  A    between atoms: C_11  and  C_18
REMARK    2  A    between atoms: C_21  and  O_24
REMARK    3  A    between atoms: O_24  and  C_26
REMARK    4  A    between atoms: C_28  and  C_34
REMARK                            x       y       z     vdW  Elec       q    Type
REMARK                         _______ _______ _______ _____ _____    ______ ____
ROOT
ATOM      1  O   UNL     1      32.027  -7.638 -21.627  0.00  0.00    -0.252 OA
ATOM      2  N   UNL     1      32.956  -9.569 -22.500  0.00  0.00    -0.263 N 
ATOM      3  N   UNL     1      32.959  -7.566 -23.749  0.00  0.00    -0.252 N 
ATOM      4  N   UNL     1      32.147  -5.393 -23.199  0.00  0.00    -0.133 NA
ATOM      5  N   UNL     1      31.950  -4.086 -23.521  0.00  0.00    -0.145 NA
ATOM      6  C   UNL     1      31.891 -11.623 -21.599  0.00  0.00    +0.044 C 
ATOM      7  C   UNL     1      32.967 -11.635 -23.886  0.00  0.00    +0.044 C 
ATOM      8  C   UNL     1      32.647 -10.334 -21.283  0.00  0.00    +0.099 C 
ATOM      9  C   UNL     1      33.680 -10.323 -23.541  0.00  0.00    +0.099 C 
ATOM     10  C   UNL     1      32.635 -12.413 -22.641  0.00  0.00    -0.041 C 
ATOM     11  C   UNL     1      32.992 -13.693 -22.467  0.00  0.00    -0.008 C 
ATOM     12  C   UNL     1      32.594  -8.204 -22.565  0.00  0.00    +0.309 C 
ATOM     13  C   UNL     1      32.757  -6.205 -24.088  0.00  0.00    +0.157 C 
ATOM     14  C   UNL     1      33.196  -5.770 -25.323  0.00  0.00    +0.038 C 
ATOM     15  C   UNL     1      32.996  -4.441 -25.650  0.00  0.00    +0.025 C 
ATOM     16  C   UNL     1      32.369  -3.634 -24.721  0.00  0.00    +0.122 C 
ATOM     17  H   UNL     1      33.407  -8.123 -24.426  0.00  0.00    +0.158 HD
ENDROOT
BRANCH  11  18
ATOM     18  C   UNL     1      33.719 -14.522 -23.441  0.00  0.00    +0.002 C 
ATOM     19  C   UNL     1      34.775 -15.329 -23.019  0.00  0.00    +0.038 C 
ATOM     20  C   UNL     1      33.350 -14.502 -24.786  0.00  0.00    +0.000 C 
ATOM     21  C   UNL     1      35.463 -16.117 -23.942  0.00  0.00    +0.147 C 
ATOM     22  C   UNL     1      34.038 -15.289 -25.709  0.00  0.00    +0.003 C 
ATOM     23  C   UNL     1      35.095 -16.097 -25.287  0.00  0.00    +0.038 C 
BRANCH  21  24
ATOM     24  O   UNL     1      36.494 -16.904 -23.530  0.00  0.00    -0.436 OA
BRANCH  24  26
ATOM     25  N   UNL     1      37.108 -18.296 -21.762  0.00  0.00    -0.210 NA
ATOM     26  C   UNL     1      36.196 -17.977 -22.708  0.00  0.00    +0.230 C 
ATOM     27  C   UNL     1      35.002 -18.654 -22.894  0.00  0.00    +0.058 C 
ATOM     28  C   UNL     1      35.639 -20.086 -21.069  0.00  0.00    +0.091 C 
ATOM     29  C   UNL     1      34.725 -19.729 -22.055  0.00  0.00    +0.010 C 
ATOM     30  C   UNL     1      36.805 -19.345 -20.965  0.00  0.00    +0.106 C 
BRANCH  28  34
ATOM     31  F   UNL     1      34.069 -21.325 -19.756  0.00  0.00    -0.166 F 
ATOM     32  F   UNL     1      35.661 -22.450 -20.706  0.00  0.00    -0.166 F 
ATOM     33  F   UNL     1      36.104 -21.170 -19.005  0.00  0.00    -0.166 F 
ATOM     34  C   UNL     1      35.373 -21.232 -20.158  0.00  0.00    +0.420 C 
ENDBRANCH  28  34
ENDBRANCH  24  26
ENDBRANCH  21  24
ENDBRANCH  11  18
TORSDOF 4
ENDMDL
MODEL 5
REMARK VINA RESULT:     -10.8      6.558     13.945
REMARK  Name = 24771824
REMARK  4 active torsions:
REMARK  status: ('A' for Active; 'I' for Inactive)
REMARK    1  A    between atoms: C_11  and  C_18
REMARK    2  A    between atoms: C_21  and  O_24
REMARK    3  A    between atoms: O_24  and  C_26
REMARK    4  A    between atoms: C_28  and  C_34
REMARK                            x       y       z     vdW  Elec       q    Type
REMARK                         _______ _______ _______ _____ _____    ______ ____
ROOT
ATOM      1  O   UNL     1      32.505  -4.781 -24.601  0.00  0.00    -0.252 OA
ATOM      2  N   UNL     1      32.936  -6.892 -23.758  0.00  0.00    -0.263 N 
ATOM      3  N   UNL     1      34.433  -5.879 -25.277  0.00  0.00    -0.252 N 
ATOM      4  N   UNL     1      34.366  -3.739 -26.327  0.00  0.00    -0.133 NA
ATOM      5  N   UNL     1      34.914  -2.810 -27.155  0.00  0.00    -0.145 NA
ATOM      6  C   UNL     1      30.860  -8.120 -23.172  0.00  0.00    +0.044 C 
ATOM      7  C   UNL     1      32.954  -9.380 -23.816  0.00  0.00    +0.044 C 
ATOM      8  C   UNL     1      31.715  -6.876 -22.940  0.00  0.00    +0.099 C 
ATOM      9  C   UNL     1      33.770  -8.100 -23.605  0.00  0.00    +0.099 C 
ATOM     10  C   UNL     1      31.694  -9.358 -22.992  0.00  0.00    -0.041 C 
ATOM     11  C   UNL     1      31.358 -10.348 -22.153  0.00  0.00    -0.008 C 
ATOM     12  C   UNL     1      33.239  -5.773 -24.565  0.00  0.00    +0.309 C 
ATOM     13  C   UNL     1      35.008  -4.913 -26.139  0.00  0.00    +0.157 C 
ATOM     14  C   UNL     1      36.206  -5.219 -26.752  0.00  0.00    +0.038 C 
ATOM     15  C   UNL     1      36.764  -4.272 -27.594  0.00  0.00    +0.025 C 
ATOM     16  C   UNL     1      36.085  -3.082 -27.767  0.00  0.00    +0.122 C 
ATOM     17  H   UNL     1      34.933  -6.720 -25.168  0.00  0.00    +0.158 HD
ENDROOT
BRANCH  11  18
ATOM     18  C   UNL     1      32.126 -11.583 -21.930  0.00  0.00    +0.002 C 
ATOM     19  C   UNL     1      32.992 -12.052 -22.917  0.00  0.00    +0.038 C 
ATOM     20  C   UNL     1      31.989 -12.283 -20.732  0.00  0.00    +0.000 C 
ATOM     21  C   UNL     1      33.722 -13.222 -22.705  0.00  0.00    +0.147 C 
ATOM     22  C   UNL     1      32.718 -13.452 -20.520  0.00  0.00    +0.003 C 
ATOM     23  C   UNL     1      33.585 -13.922 -21.507  0.00  0.00    +0.038 C 
BRANCH  21  24
ATOM     24  O   UNL     1      34.567 -13.681 -23.669  0.00  0.00    -0.436 OA
BRANCH  24  26
ATOM     25  N   UNL     1      35.249 -15.664 -22.647  0.00  0.00    -0.210 NA
ATOM     26  C   UNL     1      34.769 -15.048 -23.751  0.00  0.00    +0.230 C 
ATOM     27  C   UNL     1      34.473 -15.700 -24.936  0.00  0.00    +0.058 C 
ATOM     28  C   UNL     1      35.176 -17.743 -23.878  0.00  0.00    +0.091 C 
ATOM     29  C   UNL     1      34.684 -17.074 -24.994  0.00  0.00    +0.010 C 
ATOM     30  C   UNL     1      35.441 -16.999 -22.740  0.00  0.00    +0.106 C 
BRANCH  28  34
ATOM     31  F   UNL     1      36.729 -19.560 -23.770  0.00  0.00    -0.166 F 
ATOM     32  F   UNL     1      34.761 -19.896 -22.923  0.00  0.00    -0.166 F 
ATOM     33  F   UNL     1      35.008 -19.787 -25.080  0.00  0.00    -0.166 F 
ATOM     34  C   UNL     1      35.414 -19.211 -23.909  0.00  0.00    +0.420 C 
ENDBRANCH  28  34
ENDBRANCH  24  26
ENDBRANCH  21  24
ENDBRANCH  11  18
TORSDOF 4
ENDMDL
MODEL 6
REMARK VINA RESULT:     -10.7      6.132     11.035
REMARK  Name = 24771824
REMARK  4 active torsions:
REMARK  status: ('A' for Active; 'I' for Inactive)
REMARK    1  A    between atoms: C_11  and  C_18
REMARK    2  A    between atoms: C_21  and  O_24
REMARK    3  A    between atoms: O_24  and  C_26
REMARK    4  A    between atoms: C_28  and  C_34
REMARK                            x       y       z     vdW  Elec       q    Type
REMARK                         _______ _______ _______ _____ _____    ______ ____
ROOT
ATOM      1  O   UNL     1      35.645 -15.455 -24.469  0.00  0.00    -0.252 OA
ATOM      2  N   UNL     1      35.379 -17.137 -22.904  0.00  0.00    -0.263 N 
ATOM      3  N   UNL     1      34.313 -15.051 -22.614  0.00  0.00    -0.252 N 
ATOM      4  N   UNL     1      34.309 -13.106 -23.993  0.00  0.00    -0.133 NA
ATOM      5  N   UNL     1      33.900 -11.833 -24.242  0.00  0.00    -0.145 NA
ATOM      6  C   UNL     1      37.334 -18.664 -22.813  0.00  0.00    +0.044 C 
ATOM      7  C   UNL     1      35.870 -18.335 -20.779  0.00  0.00    +0.044 C 
ATOM      8  C   UNL     1      36.224 -18.062 -23.672  0.00  0.00    +0.099 C 
ATOM      9  C   UNL     1      34.796 -17.706 -21.673  0.00  0.00    +0.099 C 
ATOM     10  C   UNL     1      36.748 -19.270 -21.567  0.00  0.00    -0.041 C 
ATOM     11  C   UNL     1      36.970 -20.541 -21.201  0.00  0.00    -0.008 C 
ATOM     12  C   UNL     1      35.152 -15.836 -23.404  0.00  0.00    +0.309 C 
ATOM     13  C   UNL     1      33.885 -13.725 -22.870  0.00  0.00    +0.157 C 
ATOM     14  C   UNL     1      33.048 -13.123 -21.952  0.00  0.00    +0.038 C 
ATOM     15  C   UNL     1      32.632 -11.827 -22.207  0.00  0.00    +0.025 C 
ATOM     16  C   UNL     1      33.082 -11.220 -23.362  0.00  0.00    +0.122 C 
ATOM     17  H   UNL     1      33.981 -15.465 -21.784  0.00  0.00    +0.158 HD
ENDROOT
BRANCH  11  18
ATOM     18  C   UNL     1      36.429 -21.195 -19.999  0.00  0.00    +0.002 C 
ATOM     19  C   UNL     1      37.112 -21.096 -18.786  0.00  0.00    +0.038 C 
ATOM     20  C   UNL     1      35.236 -21.912 -20.071  0.00  0.00    +0.000 C 
ATOM     21  C   UNL     1      36.599 -21.715 -17.646  0.00  0.00    +0.147 C 
ATOM     22  C   UNL     1      34.723 -22.531 -18.932  0.00  0.00    +0.003 C 
ATOM     23  C   UNL     1      35.405 -22.432 -17.718  0.00  0.00    +0.038 C 
BRANCH  21  24
ATOM     24  O   UNL     1      37.264 -21.619 -16.462  0.00  0.00    -0.436 OA
BRANCH  24  26
ATOM     25  N   UNL     1      38.443 -23.502 -15.752  0.00  0.00    -0.210 NA
ATOM     26  C   UNL     1      37.324 -22.748 -15.664  0.00  0.00    +0.230 C 
ATOM     27  C   UNL     1      36.256 -23.039 -14.831  0.00  0.00    +0.058 C 
ATOM     28  C   UNL     1      37.476 -24.979 -14.101  0.00  0.00    +0.091 C 
ATOM     29  C   UNL     1      36.341 -24.179 -14.038  0.00  0.00    +0.010 C 
ATOM     30  C   UNL     1      38.490 -24.601 -14.966  0.00  0.00    +0.106 C 
BRANCH  28  34
ATOM     31  F   UNL     1      37.266 -27.356 -13.928  0.00  0.00    -0.166 F 
ATOM     32  F   UNL     1      38.856 -26.424 -12.786  0.00  0.00    -0.166 F 
ATOM     33  F   UNL     1      36.787 -26.176 -12.165  0.00  0.00    -0.166 F 
ATOM     34  C   UNL     1      37.596 -26.206 -13.267  0.00  0.00    +0.420 C 
ENDBRANCH  28  34
ENDBRANCH  24  26
ENDBRANCH  21  24
ENDBRANCH  11  18
TORSDOF 4
ENDMDL
MODEL 7
REMARK VINA RESULT:     -10.3      4.351     10.207
REMARK  Name = 24771824
REMARK  4 active torsions:
REMARK  status: ('A' for Active; 'I' for Inactive)
REMARK    1  A    between atoms: C_11  and  C_18
REMARK    2  A    between atoms: C_21  and  O_24
REMARK    3  A    between atoms: O_24  and  C_26
REMARK    4  A    between atoms: C_28  and  C_34
REMARK                            x       y       z     vdW  Elec       q    Type
REMARK                         _______ _______ _______ _____ _____    ______ ____
ROOT
ATOM      1  O   UNL     1      35.704 -15.453 -24.495  0.00  0.00    -0.252 OA
ATOM      2  N   UNL     1      35.391 -17.123 -22.925  0.00  0.00    -0.263 N 
ATOM      3  N   UNL     1      34.327 -15.031 -22.677  0.00  0.00    -0.252 N 
ATOM      4  N   UNL     1      34.366 -13.096 -24.070  0.00  0.00    -0.133 NA
ATOM      5  N   UNL     1      33.969 -11.823 -24.339  0.00  0.00    -0.145 NA
ATOM      6  C   UNL     1      37.337 -18.657 -22.773  0.00  0.00    +0.044 C 
ATOM      7  C   UNL     1      35.824 -18.307 -20.779  0.00  0.00    +0.044 C 
ATOM      8  C   UNL     1      36.252 -18.057 -23.665  0.00  0.00    +0.099 C 
ATOM      9  C   UNL     1      34.775 -17.680 -21.705  0.00  0.00    +0.099 C 
ATOM     10  C   UNL     1      36.718 -19.251 -21.538  0.00  0.00    -0.041 C 
ATOM     11  C   UNL     1      36.925 -20.520 -21.158  0.00  0.00    -0.008 C 
ATOM     12  C   UNL     1      35.182 -15.824 -23.440  0.00  0.00    +0.309 C 
ATOM     13  C   UNL     1      33.911 -13.705 -22.954  0.00  0.00    +0.157 C 
ATOM     14  C   UNL     1      33.053 -13.093 -22.062  0.00  0.00    +0.038 C 
ATOM     15  C   UNL     1      32.650 -11.797 -22.336  0.00  0.00    +0.025 C 
ATOM     16  C   UNL     1      33.131 -11.201 -23.484  0.00  0.00    +0.122 C 
ATOM     17  H   UNL     1      33.972 -15.437 -21.853  0.00  0.00    +0.158 HD
ENDROOT
BRANCH  11  18
ATOM     18  C   UNL     1      36.352 -21.163 -19.965  0.00  0.00    +0.002 C 
ATOM     19  C   UNL     1      35.016 -21.564 -19.964  0.00  0.00    +0.038 C 
ATOM     20  C   UNL     1      37.144 -21.372 -18.836  0.00  0.00    +0.000 C 
ATOM     21  C   UNL     1      34.473 -22.176 -18.834  0.00  0.00    +0.147 C 
ATOM     22  C   UNL     1      36.601 -21.983 -17.707  0.00  0.00    +0.003 C 
ATOM     23  C   UNL     1      35.265 -22.385 -17.706  0.00  0.00    +0.038 C 
BRANCH  21  24
ATOM     24  O   UNL     1      33.169 -22.568 -18.833  0.00  0.00    -0.436 OA
BRANCH  24  26
ATOM     25  N   UNL     1      31.371 -22.682 -17.352  0.00  0.00    -0.210 NA
ATOM     26  C   UNL     1      32.640 -23.042 -17.645  0.00  0.00    +0.230 C 
ATOM     27  C   UNL     1      33.425 -23.847 -16.834  0.00  0.00    +0.058 C 
ATOM     28  C   UNL     1      31.567 -23.963 -15.312  0.00  0.00    +0.091 C 
ATOM     29  C   UNL     1      32.871 -24.312 -15.646  0.00  0.00    +0.010 C 
ATOM     30  C   UNL     1      30.865 -23.153 -16.190  0.00  0.00    +0.106 C 
BRANCH  28  34
ATOM     31  F   UNL     1      30.825 -23.473 -13.090  0.00  0.00    -0.166 F 
ATOM     32  F   UNL     1      29.684 -24.941 -14.207  0.00  0.00    -0.166 F 
ATOM     33  F   UNL     1      31.661 -25.447 -13.456  0.00  0.00    -0.166 F 
ATOM     34  C   UNL     1      30.947 -24.443 -14.047  0.00  0.00    +0.420 C 
ENDBRANCH  28  34
ENDBRANCH  24  26
ENDBRANCH  21  24
ENDBRANCH  11  18
TORSDOF 4
ENDMDL
MODEL 8
REMARK VINA RESULT:     -10.0      4.896     10.451
REMARK  Name = 24771824
REMARK  4 active torsions:
REMARK  status: ('A' for Active; 'I' for Inactive)
REMARK    1  A    between atoms: C_11  and  C_18
REMARK    2  A    between atoms: C_21  and  O_24
REMARK    3  A    between atoms: O_24  and  C_26
REMARK    4  A    between atoms: C_28  and  C_34
REMARK                            x       y       z     vdW  Elec       q    Type
REMARK                         _______ _______ _______ _____ _____    ______ ____
ROOT
ATOM      1  O   UNL     1      34.252 -12.756 -24.523  0.00  0.00    -0.252 OA
ATOM      2  N   UNL     1      34.173 -14.783 -23.409  0.00  0.00    -0.263 N 
ATOM      3  N   UNL     1      33.262 -12.839 -22.427  0.00  0.00    -0.252 N 
ATOM      4  N   UNL     1      33.116 -10.607 -23.251  0.00  0.00    -0.133 NA
ATOM      5  N   UNL     1      32.728  -9.312 -23.099  0.00  0.00    -0.145 NA
ATOM      6  C   UNL     1      36.048 -16.283 -24.040  0.00  0.00    +0.044 C 
ATOM      7  C   UNL     1      34.955 -16.484 -21.770  0.00  0.00    +0.044 C 
ATOM      8  C   UNL     1      34.839 -15.481 -24.518  0.00  0.00    +0.099 C 
ATOM      9  C   UNL     1      33.777 -15.647 -22.280  0.00  0.00    +0.099 C 
ATOM     10  C   UNL     1      35.649 -17.187 -22.905  0.00  0.00    -0.041 C 
ATOM     11  C   UNL     1      35.872 -18.509 -22.914  0.00  0.00    -0.008 C 
ATOM     12  C   UNL     1      33.924 -13.397 -23.520  0.00  0.00    +0.309 C 
ATOM     13  C   UNL     1      32.856 -11.492 -22.265  0.00  0.00    +0.157 C 
ATOM     14  C   UNL     1      32.209 -11.143 -21.096  0.00  0.00    +0.038 C 
ATOM     15  C   UNL     1      31.814  -9.826 -20.942  0.00  0.00    +0.025 C 
ATOM     16  C   UNL     1      32.094  -8.944 -21.967  0.00  0.00    +0.122 C 
ATOM     17  H   UNL     1      33.053 -13.451 -21.684  0.00  0.00    +0.158 HD
ENDROOT
BRANCH  11  18
ATOM     18  C   UNL     1      35.509 -19.448 -21.841  0.00  0.00    +0.002 C 
ATOM     19  C   UNL     1      36.502 -19.990 -21.025  0.00  0.00    +0.038 C 
ATOM     20  C   UNL     1      34.174 -19.794 -21.639  0.00  0.00    +0.000 C 
ATOM     21  C   UNL     1      36.158 -20.879 -20.006  0.00  0.00    +0.147 C 
ATOM     22  C   UNL     1      33.830 -20.683 -20.621  0.00  0.00    +0.003 C 
ATOM     23  C   UNL     1      34.823 -21.226 -19.804  0.00  0.00    +0.038 C 
BRANCH  21  24
ATOM     24  O   UNL     1      37.126 -21.409 -19.210  0.00  0.00    -0.436 OA
BRANCH  24  26
ATOM     25  N   UNL     1      35.490 -22.536 -17.988  0.00  0.00    -0.210 NA
ATOM     26  C   UNL     1      36.731 -22.002 -18.023  0.00  0.00    +0.230 C 
ATOM     27  C   UNL     1      37.612 -22.017 -16.954  0.00  0.00    +0.058 C 
ATOM     28  C   UNL     1      35.922 -23.180 -15.699  0.00  0.00    +0.091 C 
ATOM     29  C   UNL     1      37.193 -22.619 -15.773  0.00  0.00    +0.010 C 
ATOM     30  C   UNL     1      35.117 -23.113 -16.824  0.00  0.00    +0.106 C 
BRANCH  28  34
ATOM     31  F   UNL     1      34.094 -23.725 -14.256  0.00  0.00    -0.166 F 
ATOM     32  F   UNL     1      35.707 -25.169 -14.387  0.00  0.00    -0.166 F 
ATOM     33  F   UNL     1      36.012 -23.296 -13.326  0.00  0.00    -0.166 F 
ATOM     34  C   UNL     1      35.443 -23.829 -14.449  0.00  0.00    +0.420 C 
ENDBRANCH  28  34
ENDBRANCH  24  26
ENDBRANCH  21  24
ENDBRANCH  11  18
TORSDOF 4
ENDMDL
MODEL 9
REMARK VINA RESULT:      -9.9      1.977      2.855
REMARK  Name = 24771824
REMARK  4 active torsions:
REMARK  status: ('A' for Active; 'I' for Inactive)
REMARK    1  A    between atoms: C_11  and  C_18
REMARK    2  A    between atoms: C_21  and  O_24
REMARK    3  A    between atoms: O_24  and  C_26
REMARK    4  A    between atoms: C_28  and  C_34
REMARK                            x       y       z     vdW  Elec       q    Type
REMARK                         _______ _______ _______ _____ _____    ______ ____
ROOT
ATOM      1  O   UNL     1      36.787 -21.729 -18.791  0.00  0.00    -0.252 OA
ATOM      2  N   UNL     1      35.892 -20.206 -20.285  0.00  0.00    -0.263 N 
ATOM      3  N   UNL     1      34.482 -21.609 -19.014  0.00  0.00    -0.252 N 
ATOM      4  N   UNL     1      35.004 -23.256 -17.371  0.00  0.00    -0.133 NA
ATOM      5  N   UNL     1      34.609 -24.193 -16.468  0.00  0.00    -0.145 NA
ATOM      6  C   UNL     1      37.423 -19.725 -22.178  0.00  0.00    +0.044 C 
ATOM      7  C   UNL     1      34.923 -19.490 -22.462  0.00  0.00    +0.044 C 
ATOM      8  C   UNL     1      37.223 -19.711 -20.664  0.00  0.00    +0.099 C 
ATOM      9  C   UNL     1      34.763 -19.515 -20.938  0.00  0.00    +0.099 C 
ATOM     10  C   UNL     1      36.292 -19.000 -22.853  0.00  0.00    -0.041 C 
ATOM     11  C   UNL     1      36.483 -17.988 -23.712  0.00  0.00    -0.008 C 
ATOM     12  C   UNL     1      35.788 -21.235 -19.322  0.00  0.00    +0.309 C 
ATOM     13  C   UNL     1      34.066 -22.584 -18.073  0.00  0.00    +0.157 C 
ATOM     14  C   UNL     1      32.712 -22.804 -17.919  0.00  0.00    +0.038 C 
ATOM     15  C   UNL     1      32.312 -23.758 -17.000  0.00  0.00    +0.025 C 
ATOM     16  C   UNL     1      33.292 -24.429 -16.296  0.00  0.00    +0.122 C 
ATOM     17  H   UNL     1      33.766 -21.142 -19.504  0.00  0.00    +0.158 HD
ENDROOT
BRANCH  11  18
ATOM     18  C   UNL     1      35.424 -17.238 -24.405  0.00  0.00    +0.002 C 
ATOM     19  C   UNL     1      35.307 -15.861 -24.213  0.00  0.00    +0.038 C 
ATOM     20  C   UNL     1      34.540 -17.902 -25.254  0.00  0.00    +0.000 C 
ATOM     21  C   UNL     1      34.304 -15.149 -24.872  0.00  0.00    +0.147 C 
ATOM     22  C   UNL     1      33.537 -17.190 -25.912  0.00  0.00    +0.003 C 
ATOM     23  C   UNL     1      33.419 -15.813 -25.721  0.00  0.00    +0.038 C 
BRANCH  21  24
ATOM     24  O   UNL     1      34.189 -13.806 -24.685  0.00  0.00    -0.436 OA
BRANCH  24  26
ATOM     25  N   UNL     1      33.687 -14.211 -22.444  0.00  0.00    -0.210 NA
ATOM     26  C   UNL     1      33.630 -13.366 -23.497  0.00  0.00    +0.230 C 
ATOM     27  C   UNL     1      33.055 -12.107 -23.451  0.00  0.00    +0.058 C 
ATOM     28  C   UNL     1      32.540 -12.530 -21.140  0.00  0.00    +0.091 C 
ATOM     29  C   UNL     1      32.500 -11.688 -22.246  0.00  0.00    +0.010 C 
ATOM     30  C   UNL     1      33.139 -13.770 -21.289  0.00  0.00    +0.106 C 
BRANCH  28  34
ATOM     31  F   UNL     1      30.669 -11.652 -19.934  0.00  0.00    -0.166 F 
ATOM     32  F   UNL     1      31.903 -13.113 -18.909  0.00  0.00    -0.166 F 
ATOM     33  F   UNL     1      32.656 -11.100 -19.243  0.00  0.00    -0.166 F 
ATOM     34  C   UNL     1      31.954 -12.111 -19.838  0.00  0.00    +0.420 C 
ENDBRANCH  28  34
ENDBRANCH  24  26
ENDBRANCH  21  24
ENDBRANCH  11  18
TORSDOF 4
ENDMDL
