MODEL 1
REMARK VINA RESULT:     -11.2      0.000      0.000
REMARK  Name = 5287459
REMARK  5 active torsions:
REMARK  status: ('A' for Active; 'I' for Inactive)
REMARK    1  A    between atoms: C_1  and  C_7
REMARK    2  A    between atoms: C_4  and  C_21
REMARK    3  A    between atoms: C_5  and  C_25
REMARK    4  A    between atoms: C_8  and  C_13
REMARK    5  A    between atoms: C_25  and  O_26
REMARK                            x       y       z     vdW  Elec       q    Type
REMARK                         _______ _______ _______ _____ _____    ______ ____
ROOT
ATOM      1  C   UNL     1      37.493 -23.939 -15.315  0.00  0.00    +0.000 C 
ATOM      2  C   UNL     1      36.930 -23.894 -14.040  0.00  0.00    +0.005 C 
ATOM      3  C   UNL     1      38.676 -24.646 -15.530  0.00  0.00    +0.006 C 
ATOM      4  C   UNL     1      37.550 -24.558 -12.980  0.00  0.00    +0.053 C 
ATOM      5  C   UNL     1      39.296 -25.309 -14.471  0.00  0.00    +0.076 C 
ATOM      6  C   UNL     1      38.732 -25.264 -13.196  0.00  0.00    +0.011 C 
ENDROOT
BRANCH   1   7
ATOM      7  C   UNL     1      36.851 -23.251 -16.414  0.00  0.00    +0.000 C 
ATOM      8  C   UNL     1      35.614 -21.924 -18.533  0.00  0.00    +0.000 C 
ATOM      9  C   UNL     1      37.588 -22.381 -17.217  0.00  0.00    +0.000 C 
ATOM     10  C   UNL     1      35.496 -23.458 -16.670  0.00  0.00    +0.000 C 
ATOM     11  C   UNL     1      36.969 -21.717 -18.277  0.00  0.00    +0.000 C 
ATOM     12  C   UNL     1      34.877 -22.794 -17.729  0.00  0.00    +0.000 C 
BRANCH   8  13
ATOM     13  C   UNL     1      34.971 -21.235 -19.631  0.00  0.00    +0.000 C 
ATOM     14  C   UNL     1      33.583 -21.268 -19.759  0.00  0.00    +0.000 C 
ATOM     15  C   UNL     1      35.741 -20.538 -20.561  0.00  0.00    +0.000 C 
ATOM     16  C   UNL     1      32.964 -20.603 -20.817  0.00  0.00    +0.000 C 
ATOM     17  C   UNL     1      35.123 -19.873 -21.620  0.00  0.00    +0.000 C 
ATOM     18  C   UNL     1      33.734 -19.905 -21.749  0.00  0.00    +0.000 C 
ENDBRANCH   8  13
ENDBRANCH   1   7
BRANCH   4  21
ATOM     19  O   UNL     1      36.233 -25.428 -11.232  0.00  0.00    -0.270 OA
ATOM     20  N   UNL     1      37.257 -23.412 -10.849  0.00  0.00    -0.325 N 
ATOM     21  C   UNL     1      36.962 -24.511 -11.650  0.00  0.00    +0.243 C 
ATOM     22  H   UNL     1      36.877 -23.345  -9.944  0.00  0.00    +0.145 HD
ATOM     23  H   UNL     1      37.846 -22.699 -11.189  0.00  0.00    +0.145 HD
ENDBRANCH   4  21
BRANCH   5  25
ATOM     24  O   UNL     1      41.222 -26.568 -13.817  0.00  0.00    -0.245 OA
ATOM     25  C   UNL     1      40.529 -26.045 -14.696  0.00  0.00    +0.338 C 
BRANCH  25  26
ATOM     26  O   UNL     1      40.863 -26.111 -16.015  0.00  0.00    -0.477 OA
ATOM     27  H   UNL     1      40.368 -26.652 -16.597  0.00  0.00    +0.295 HD
ENDBRANCH  25  26
ENDBRANCH   5  25
TORSDOF 5
ENDMDL
MODEL 2
REMARK VINA RESULT:     -10.9      2.288      4.105
REMARK  Name = 5287459
REMARK  5 active torsions:
REMARK  status: ('A' for Active; 'I' for Inactive)
REMARK    1  A    between atoms: C_1  and  C_7
REMARK    2  A    between atoms: C_4  and  C_21
REMARK    3  A    between atoms: C_5  and  C_25
REMARK    4  A    between atoms: C_8  and  C_13
REMARK    5  A    between atoms: C_25  and  O_26
REMARK                            x       y       z     vdW  Elec       q    Type
REMARK                         _______ _______ _______ _____ _____    ______ ____
ROOT
ATOM      1  C   UNL     1      35.648 -23.323 -16.307  0.00  0.00    +0.000 C 
ATOM      2  C   UNL     1      36.802 -23.894 -15.772  0.00  0.00    +0.005 C 
ATOM      3  C   UNL     1      34.417 -23.521 -15.682  0.00  0.00    +0.006 C 
ATOM      4  C   UNL     1      36.725 -24.662 -14.610  0.00  0.00    +0.053 C 
ATOM      5  C   UNL     1      34.340 -24.290 -14.521  0.00  0.00    +0.076 C 
ATOM      6  C   UNL     1      35.494 -24.860 -13.985  0.00  0.00    +0.011 C 
ENDROOT
BRANCH   1   7
ATOM      7  C   UNL     1      35.727 -22.526 -17.512  0.00  0.00    +0.000 C 
ATOM      8  C   UNL     1      35.881 -20.988 -19.835  0.00  0.00    +0.000 C 
ATOM      9  C   UNL     1      36.895 -21.821 -17.807  0.00  0.00    +0.000 C 
ATOM     10  C   UNL     1      34.637 -22.462 -18.380  0.00  0.00    +0.000 C 
ATOM     11  C   UNL     1      36.971 -21.052 -18.968  0.00  0.00    +0.000 C 
ATOM     12  C   UNL     1      34.713 -21.693 -19.541  0.00  0.00    +0.000 C 
BRANCH   8  13
ATOM     13  C   UNL     1      35.960 -20.191 -21.040  0.00  0.00    +0.000 C 
ATOM     14  C   UNL     1      37.095 -19.423 -21.296  0.00  0.00    +0.000 C 
ATOM     15  C   UNL     1      34.899 -20.190 -21.945  0.00  0.00    +0.000 C 
ATOM     16  C   UNL     1      37.171 -18.654 -22.458  0.00  0.00    +0.000 C 
ATOM     17  C   UNL     1      34.973 -19.422 -23.107  0.00  0.00    +0.000 C 
ATOM     18  C   UNL     1      36.109 -18.653 -23.364  0.00  0.00    +0.000 C 
ENDBRANCH   8  13
ENDBRANCH   1   7
BRANCH   4  21
ATOM     19  O   UNL     1      38.866 -24.554 -13.633  0.00  0.00    -0.270 OA
ATOM     20  N   UNL     1      37.993 -26.646 -13.983  0.00  0.00    -0.325 N 
ATOM     21  C   UNL     1      37.929 -25.258 -14.052  0.00  0.00    +0.243 C 
ATOM     22  H   UNL     1      38.793 -27.085 -13.612  0.00  0.00    +0.145 HD
ATOM     23  H   UNL     1      37.239 -27.191 -14.306  0.00  0.00    +0.145 HD
ENDBRANCH   4  21
BRANCH   5  25
ATOM     24  O   UNL     1      32.480 -23.678 -13.145  0.00  0.00    -0.245 OA
ATOM     25  C   UNL     1      33.056 -24.496 -13.869  0.00  0.00    +0.338 C 
BRANCH  25  26
ATOM     26  O   UNL     1      32.526 -25.720 -14.142  0.00  0.00    -0.477 OA
ATOM     27  H   UNL     1      32.077 -26.197 -13.472  0.00  0.00    +0.295 HD
ENDBRANCH  25  26
ENDBRANCH   5  25
TORSDOF 5
ENDMDL
MODEL 3
REMARK VINA RESULT:     -10.8      3.216      5.586
REMARK  Name = 5287459
REMARK  5 active torsions:
REMARK  status: ('A' for Active; 'I' for Inactive)
REMARK    1  A    between atoms: C_1  and  C_7
REMARK    2  A    between atoms: C_4  and  C_21
REMARK    3  A    between atoms: C_5  and  C_25
REMARK    4  A    between atoms: C_8  and  C_13
REMARK    5  A    between atoms: C_25  and  O_26
REMARK                            x       y       z     vdW  Elec       q    Type
REMARK                         _______ _______ _______ _____ _____    ______ ____
ROOT
ATOM      1  C   UNL     1      33.746 -22.783 -17.726  0.00  0.00    +0.000 C 
ATOM      2  C   UNL     1      34.785 -23.373 -17.007  0.00  0.00    +0.005 C 
ATOM      3  C   UNL     1      32.422 -23.019 -17.359  0.00  0.00    +0.006 C 
ATOM      4  C   UNL     1      34.500 -24.198 -15.919  0.00  0.00    +0.053 C 
ATOM      5  C   UNL     1      32.136 -23.845 -16.271  0.00  0.00    +0.076 C 
ATOM      6  C   UNL     1      33.176 -24.434 -15.551  0.00  0.00    +0.011 C 
ENDROOT
BRANCH   1   7
ATOM      7  C   UNL     1      34.041 -21.928 -18.855  0.00  0.00    +0.000 C 
ATOM      8  C   UNL     1      34.613 -20.279 -21.032  0.00  0.00    +0.000 C 
ATOM      9  C   UNL     1      35.363 -21.738 -19.259  0.00  0.00    +0.000 C 
ATOM     10  C   UNL     1      33.005 -21.294 -19.541  0.00  0.00    +0.000 C 
ATOM     11  C   UNL     1      35.649 -20.913 -20.347  0.00  0.00    +0.000 C 
ATOM     12  C   UNL     1      33.291 -20.469 -20.628  0.00  0.00    +0.000 C 
BRANCH   8  13
ATOM     13  C   UNL     1      34.908 -19.422 -22.160  0.00  0.00    +0.000 C 
ATOM     14  C   UNL     1      34.436 -19.752 -23.430  0.00  0.00    +0.000 C 
ATOM     15  C   UNL     1      35.666 -18.266 -21.977  0.00  0.00    +0.000 C 
ATOM     16  C   UNL     1      34.720 -18.926 -24.517  0.00  0.00    +0.000 C 
ATOM     17  C   UNL     1      35.951 -17.439 -23.063  0.00  0.00    +0.000 C 
ATOM     18  C   UNL     1      35.478 -17.769 -24.334  0.00  0.00    +0.000 C 
ENDBRANCH   8  13
ENDBRANCH   1   7
BRANCH   4  21
ATOM     19  O   UNL     1      36.632 -25.180 -15.730  0.00  0.00    -0.270 OA
ATOM     20  N   UNL     1      35.419 -24.963 -13.795  0.00  0.00    -0.325 N 
ATOM     21  C   UNL     1      35.583 -24.813 -15.169  0.00  0.00    +0.243 C 
ATOM     22  H   UNL     1      36.131 -25.376 -13.256  0.00  0.00    +0.145 HD
ATOM     23  H   UNL     1      34.589 -24.656 -13.363  0.00  0.00    +0.145 HD
ENDBRANCH   4  21
BRANCH   5  25
ATOM     24  O   UNL     1      30.170 -25.176 -15.972  0.00  0.00    -0.245 OA
ATOM     25  C   UNL     1      30.755 -24.091 -15.887  0.00  0.00    +0.338 C 
BRANCH  25  26
ATOM     26  O   UNL     1      30.142 -22.974 -15.407  0.00  0.00    -0.477 OA
ATOM     27  H   UNL     1      29.731 -22.989 -14.566  0.00  0.00    +0.295 HD
ENDBRANCH  25  26
ENDBRANCH   5  25
TORSDOF 5
ENDMDL
MODEL 4
REMARK VINA RESULT:     -10.8      3.161      4.921
REMARK  Name = 5287459
REMARK  5 active torsions:
REMARK  status: ('A' for Active; 'I' for Inactive)
REMARK    1  A    between atoms: C_1  and  C_7
REMARK    2  A    between atoms: C_4  and  C_21
REMARK    3  A    between atoms: C_5  and  C_25
REMARK    4  A    between atoms: C_8  and  C_13
REMARK    5  A    between atoms: C_25  and  O_26
REMARK                            x       y       z     vdW  Elec       q    Type
REMARK                         _______ _______ _______ _____ _____    ______ ____
ROOT
ATOM      1  C   UNL     1      33.966 -22.774 -17.697  0.00  0.00    +0.000 C 
ATOM      2  C   UNL     1      32.656 -23.081 -17.331  0.00  0.00    +0.005 C 
ATOM      3  C   UNL     1      35.034 -23.289 -16.964  0.00  0.00    +0.006 C 
ATOM      4  C   UNL     1      32.414 -23.905 -16.232  0.00  0.00    +0.053 C 
ATOM      5  C   UNL     1      34.793 -24.112 -15.864  0.00  0.00    +0.076 C 
ATOM      6  C   UNL     1      33.482 -24.420 -15.499  0.00  0.00    +0.011 C 
ENDROOT
BRANCH   1   7
ATOM      7  C   UNL     1      34.217 -21.918 -18.837  0.00  0.00    +0.000 C 
ATOM      8  C   UNL     1      34.699 -20.270 -21.036  0.00  0.00    +0.000 C 
ATOM      9  C   UNL     1      33.147 -21.361 -19.539  0.00  0.00    +0.000 C 
ATOM     10  C   UNL     1      35.527 -21.651 -19.234  0.00  0.00    +0.000 C 
ATOM     11  C   UNL     1      33.389 -20.537 -20.639  0.00  0.00    +0.000 C 
ATOM     12  C   UNL     1      35.768 -20.827 -20.334  0.00  0.00    +0.000 C 
BRANCH   8  13
ATOM     13  C   UNL     1      34.950 -19.416 -22.176  0.00  0.00    +0.000 C 
ATOM     14  C   UNL     1      34.502 -19.792 -23.442  0.00  0.00    +0.000 C 
ATOM     15  C   UNL     1      35.641 -18.216 -22.009  0.00  0.00    +0.000 C 
ATOM     16  C   UNL     1      34.744 -18.968 -24.541  0.00  0.00    +0.000 C 
ATOM     17  C   UNL     1      35.884 -17.391 -23.108  0.00  0.00    +0.000 C 
ATOM     18  C   UNL     1      35.435 -17.767 -24.374  0.00  0.00    +0.000 C 
ENDBRANCH   8  13
ENDBRANCH   1   7
BRANCH   4  21
ATOM     19  O   UNL     1      30.076 -23.666 -16.389  0.00  0.00    -0.270 OA
ATOM     20  N   UNL     1      30.858 -25.196 -14.871  0.00  0.00    -0.325 N 
ATOM     21  C   UNL     1      31.048 -24.226 -15.850  0.00  0.00    +0.243 C 
ATOM     22  H   UNL     1      29.947 -25.438 -14.586  0.00  0.00    +0.145 HD
ATOM     23  H   UNL     1      31.636 -25.640 -14.461  0.00  0.00    +0.145 HD
ENDBRANCH   4  21
BRANCH   5  25
ATOM     24  O   UNL     1      35.899 -24.877 -13.886  0.00  0.00    -0.245 OA
ATOM     25  C   UNL     1      35.907 -24.650 -15.099  0.00  0.00    +0.338 C 
BRANCH  25  26
ATOM     26  O   UNL     1      37.001 -24.889 -15.873  0.00  0.00    -0.477 OA
ATOM     27  H   UNL     1      36.896 -25.143 -16.769  0.00  0.00    +0.295 HD
ENDBRANCH  25  26
ENDBRANCH   5  25
TORSDOF 5
ENDMDL
MODEL 5
REMARK VINA RESULT:     -10.6      2.922      4.375
REMARK  Name = 5287459
REMARK  5 active torsions:
REMARK  status: ('A' for Active; 'I' for Inactive)
REMARK    1  A    between atoms: C_1  and  C_7
REMARK    2  A    between atoms: C_4  and  C_21
REMARK    3  A    between atoms: C_5  and  C_25
REMARK    4  A    between atoms: C_8  and  C_13
REMARK    5  A    between atoms: C_25  and  O_26
REMARK                            x       y       z     vdW  Elec       q    Type
REMARK                         _______ _______ _______ _____ _____    ______ ____
ROOT
ATOM      1  C   UNL     1      34.265 -23.279 -16.839  0.00  0.00    +0.000 C 
ATOM      2  C   UNL     1      32.932 -23.541 -16.529  0.00  0.00    +0.005 C 
ATOM      3  C   UNL     1      35.282 -23.797 -16.037  0.00  0.00    +0.006 C 
ATOM      4  C   UNL     1      32.614 -24.324 -15.419  0.00  0.00    +0.053 C 
ATOM      5  C   UNL     1      34.966 -24.578 -14.926  0.00  0.00    +0.076 C 
ATOM      6  C   UNL     1      33.631 -24.842 -14.618  0.00  0.00    +0.011 C 
ENDROOT
BRANCH   1   7
ATOM      7  C   UNL     1      34.595 -22.467 -17.990  0.00  0.00    +0.000 C 
ATOM      8  C   UNL     1      35.231 -20.902 -20.210  0.00  0.00    +0.000 C 
ATOM      9  C   UNL     1      35.916 -22.080 -18.216  0.00  0.00    +0.000 C 
ATOM     10  C   UNL     1      33.592 -22.072 -18.875  0.00  0.00    +0.000 C 
ATOM     11  C   UNL     1      36.234 -21.297 -19.325  0.00  0.00    +0.000 C 
ATOM     12  C   UNL     1      33.910 -21.289 -19.985  0.00  0.00    +0.000 C 
BRANCH   8  13
ATOM     13  C   UNL     1      35.560 -20.089 -21.362  0.00  0.00    +0.000 C 
ATOM     14  C   UNL     1      36.782 -19.420 -21.418  0.00  0.00    +0.000 C 
ATOM     15  C   UNL     1      34.653 -19.974 -22.415  0.00  0.00    +0.000 C 
ATOM     16  C   UNL     1      37.099 -18.638 -22.528  0.00  0.00    +0.000 C 
ATOM     17  C   UNL     1      34.969 -19.191 -23.525  0.00  0.00    +0.000 C 
ATOM     18  C   UNL     1      36.192 -18.523 -23.582  0.00  0.00    +0.000 C 
ENDBRANCH   8  13
ENDBRANCH   1   7
BRANCH   4  21
ATOM     19  O   UNL     1      30.857 -25.721 -14.708  0.00  0.00    -0.270 OA
ATOM     20  N   UNL     1      30.311 -23.553 -15.219  0.00  0.00    -0.325 N 
ATOM     21  C   UNL     1      31.223 -24.597 -15.096  0.00  0.00    +0.243 C 
ATOM     22  H   UNL     1      29.360 -23.702 -15.010  0.00  0.00    +0.145 HD
ATOM     23  H   UNL     1      30.616 -22.666 -15.516  0.00  0.00    +0.145 HD
ENDBRANCH   4  21
BRANCH   5  25
ATOM     24  O   UNL     1      37.186 -25.334 -14.456  0.00  0.00    -0.245 OA
ATOM     25  C   UNL     1      36.026 -25.119 -14.091  0.00  0.00    +0.338 C 
BRANCH  25  26
ATOM     26  O   UNL     1      35.607 -25.374 -12.820  0.00  0.00    -0.477 OA
ATOM     27  H   UNL     1      36.159 -25.850 -12.232  0.00  0.00    +0.295 HD
ENDBRANCH  25  26
ENDBRANCH   5  25
TORSDOF 5
ENDMDL
MODEL 6
REMARK VINA RESULT:     -10.3      2.770      4.364
REMARK  Name = 5287459
REMARK  5 active torsions:
REMARK  status: ('A' for Active; 'I' for Inactive)
REMARK    1  A    between atoms: C_1  and  C_7
REMARK    2  A    between atoms: C_4  and  C_21
REMARK    3  A    between atoms: C_5  and  C_25
REMARK    4  A    between atoms: C_8  and  C_13
REMARK    5  A    between atoms: C_25  and  O_26
REMARK                            x       y       z     vdW  Elec       q    Type
REMARK                         _______ _______ _______ _____ _____    ______ ____
ROOT
ATOM      1  C   UNL     1      35.137 -22.361 -17.921  0.00  0.00    +0.000 C 
ATOM      2  C   UNL     1      33.944 -22.865 -17.406  0.00  0.00    +0.005 C 
ATOM      3  C   UNL     1      36.346 -22.643 -17.286  0.00  0.00    +0.006 C 
ATOM      4  C   UNL     1      33.959 -23.653 -16.255  0.00  0.00    +0.053 C 
ATOM      5  C   UNL     1      36.362 -23.431 -16.134  0.00  0.00    +0.076 C 
ATOM      6  C   UNL     1      35.167 -23.935 -15.619  0.00  0.00    +0.011 C 
ENDROOT
BRANCH   1   7
ATOM      7  C   UNL     1      35.122 -21.543 -19.115  0.00  0.00    +0.000 C 
ATOM      8  C   UNL     1      35.093 -19.966 -21.416  0.00  0.00    +0.000 C 
ATOM      9  C   UNL     1      36.317 -21.049 -19.637  0.00  0.00    +0.000 C 
ATOM     10  C   UNL     1      33.912 -21.250 -19.744  0.00  0.00    +0.000 C 
ATOM     11  C   UNL     1      36.303 -20.260 -20.787  0.00  0.00    +0.000 C 
ATOM     12  C   UNL     1      33.897 -20.461 -20.894  0.00  0.00    +0.000 C 
BRANCH   8  13
ATOM     13  C   UNL     1      35.076 -19.147 -22.609  0.00  0.00    +0.000 C 
ATOM     14  C   UNL     1      34.519 -19.642 -23.788  0.00  0.00    +0.000 C 
ATOM     15  C   UNL     1      35.618 -17.863 -22.579  0.00  0.00    +0.000 C 
ATOM     16  C   UNL     1      34.503 -18.852 -24.937  0.00  0.00    +0.000 C 
ATOM     17  C   UNL     1      35.603 -17.072 -23.728  0.00  0.00    +0.000 C 
ATOM     18  C   UNL     1      35.046 -17.566 -24.908  0.00  0.00    +0.000 C 
ENDBRANCH   8  13
ENDBRANCH   1   7
BRANCH   4  21
ATOM     19  O   UNL     1      32.695 -24.862 -14.677  0.00  0.00    -0.270 OA
ATOM     20  N   UNL     1      31.536 -23.879 -16.395  0.00  0.00    -0.325 N 
ATOM     21  C   UNL     1      32.714 -24.179 -15.717  0.00  0.00    +0.243 C 
ATOM     22  H   UNL     1      30.675 -24.218 -16.061  0.00  0.00    +0.145 HD
ATOM     23  H   UNL     1      31.565 -23.327 -17.210  0.00  0.00    +0.145 HD
ENDBRANCH   4  21
BRANCH   5  25
ATOM     24  O   UNL     1      38.739 -23.375 -15.867  0.00  0.00    -0.245 OA
ATOM     25  C   UNL     1      37.622 -23.725 -15.472  0.00  0.00    +0.338 C 
BRANCH  25  26
ATOM     26  O   UNL     1      37.453 -24.449 -14.331  0.00  0.00    -0.477 OA
ATOM     27  H   UNL     1      36.738 -24.259 -13.757  0.00  0.00    +0.295 HD
ENDBRANCH  25  26
ENDBRANCH   5  25
TORSDOF 5
ENDMDL
MODEL 7
REMARK VINA RESULT:     -10.2     10.722     14.463
REMARK  Name = 5287459
REMARK  5 active torsions:
REMARK  status: ('A' for Active; 'I' for Inactive)
REMARK    1  A    between atoms: C_1  and  C_7
REMARK    2  A    between atoms: C_4  and  C_21
REMARK    3  A    between atoms: C_5  and  C_25
REMARK    4  A    between atoms: C_8  and  C_13
REMARK    5  A    between atoms: C_25  and  O_26
REMARK                            x       y       z     vdW  Elec       q    Type
REMARK                         _______ _______ _______ _____ _____    ______ ____
ROOT
ATOM      1  C   UNL     1      33.811 -13.240 -23.465  0.00  0.00    +0.000 C 
ATOM      2  C   UNL     1      34.226 -13.970 -22.352  0.00  0.00    +0.005 C 
ATOM      3  C   UNL     1      33.812 -13.833 -24.727  0.00  0.00    +0.006 C 
ATOM      4  C   UNL     1      34.641 -15.293 -22.500  0.00  0.00    +0.053 C 
ATOM      5  C   UNL     1      34.228 -15.156 -24.877  0.00  0.00    +0.076 C 
ATOM      6  C   UNL     1      34.642 -15.886 -23.762  0.00  0.00    +0.011 C 
ENDROOT
BRANCH   1   7
ATOM      7  C   UNL     1      33.381 -11.867 -23.311  0.00  0.00    +0.000 C 
ATOM      8  C   UNL     1      32.550  -9.221 -23.014  0.00  0.00    +0.000 C 
ATOM      9  C   UNL     1      32.336 -11.557 -22.440  0.00  0.00    +0.000 C 
ATOM     10  C   UNL     1      34.010 -10.854 -24.034  0.00  0.00    +0.000 C 
ATOM     11  C   UNL     1      31.921 -10.234 -22.292  0.00  0.00    +0.000 C 
ATOM     12  C   UNL     1      33.595  -9.530 -23.885  0.00  0.00    +0.000 C 
BRANCH   8  13
ATOM     13  C   UNL     1      32.119  -7.848 -22.861  0.00  0.00    +0.000 C 
ATOM     14  C   UNL     1      32.141  -7.245 -21.604  0.00  0.00    +0.000 C 
ATOM     15  C   UNL     1      31.683  -7.127 -23.973  0.00  0.00    +0.000 C 
ATOM     16  C   UNL     1      31.726  -5.921 -21.458  0.00  0.00    +0.000 C 
ATOM     17  C   UNL     1      31.268  -5.804 -23.827  0.00  0.00    +0.000 C 
ATOM     18  C   UNL     1      31.289  -5.200 -22.570  0.00  0.00    +0.000 C 
ENDBRANCH   8  13
ENDBRANCH   1   7
BRANCH   4  21
ATOM     19  O   UNL     1      34.951 -15.602 -20.186  0.00  0.00    -0.270 OA
ATOM     20  N   UNL     1      35.616 -17.318 -21.556  0.00  0.00    -0.325 N 
ATOM     21  C   UNL     1      35.073 -16.054 -21.339  0.00  0.00    +0.243 C 
ATOM     22  H   UNL     1      35.920 -17.861 -20.794  0.00  0.00    +0.145 HD
ATOM     23  H   UNL     1      35.695 -17.668 -22.473  0.00  0.00    +0.145 HD
ENDBRANCH   4  21
BRANCH   5  25
ATOM     24  O   UNL     1      33.827 -15.244 -27.234  0.00  0.00    -0.245 OA
ATOM     25  C   UNL     1      34.229 -15.774 -26.193  0.00  0.00    +0.338 C 
BRANCH  25  26
ATOM     26  O   UNL     1      34.735 -17.038 -26.173  0.00  0.00    -0.477 OA
ATOM     27  H   UNL     1      35.623 -17.184 -25.915  0.00  0.00    +0.295 HD
ENDBRANCH  25  26
ENDBRANCH   5  25
TORSDOF 5
ENDMDL
MODEL 8
REMARK VINA RESULT:      -9.5     10.785     14.583
REMARK  Name = 5287459
REMARK  5 active torsions:
REMARK  status: ('A' for Active; 'I' for Inactive)
REMARK    1  A    between atoms: C_1  and  C_7
REMARK    2  A    between atoms: C_4  and  C_21
REMARK    3  A    between atoms: C_5  and  C_25
REMARK    4  A    between atoms: C_8  and  C_13
REMARK    5  A    between atoms: C_25  and  O_26
REMARK                            x       y       z     vdW  Elec       q    Type
REMARK                         _______ _______ _______ _____ _____    ______ ____
ROOT
ATOM      1  C   UNL     1      33.770 -13.277 -23.431  0.00  0.00    +0.000 C 
ATOM      2  C   UNL     1      33.726 -13.906 -24.674  0.00  0.00    +0.005 C 
ATOM      3  C   UNL     1      34.215 -13.977 -22.310  0.00  0.00    +0.006 C 
ATOM      4  C   UNL     1      34.129 -15.236 -24.798  0.00  0.00    +0.053 C 
ATOM      5  C   UNL     1      34.617 -15.308 -22.433  0.00  0.00    +0.076 C 
ATOM      6  C   UNL     1      34.574 -15.936 -23.678  0.00  0.00    +0.011 C 
ENDROOT
BRANCH   1   7
ATOM      7  C   UNL     1      33.352 -11.897 -23.302  0.00  0.00    +0.000 C 
ATOM      8  C   UNL     1      32.545  -9.238 -23.054  0.00  0.00    +0.000 C 
ATOM      9  C   UNL     1      32.346 -11.555 -22.398  0.00  0.00    +0.000 C 
ATOM     10  C   UNL     1      33.955 -10.910 -24.082  0.00  0.00    +0.000 C 
ATOM     11  C   UNL     1      31.943 -10.225 -22.274  0.00  0.00    +0.000 C 
ATOM     12  C   UNL     1      33.551  -9.581 -23.958  0.00  0.00    +0.000 C 
BRANCH   8  13
ATOM     13  C   UNL     1      32.127  -7.859 -22.927  0.00  0.00    +0.000 C 
ATOM     14  C   UNL     1      32.026  -7.274 -21.665  0.00  0.00    +0.000 C 
ATOM     15  C   UNL     1      31.825  -7.115 -24.067  0.00  0.00    +0.000 C 
ATOM     16  C   UNL     1      31.623  -5.944 -21.543  0.00  0.00    +0.000 C 
ATOM     17  C   UNL     1      31.422  -5.785 -23.946  0.00  0.00    +0.000 C 
ATOM     18  C   UNL     1      31.320  -5.199 -22.684  0.00  0.00    +0.000 C 
ENDBRANCH   8  13
ENDBRANCH   1   7
BRANCH   4  21
ATOM     19  O   UNL     1      33.876 -15.248 -27.140  0.00  0.00    -0.270 OA
ATOM     20  N   UNL     1      34.295 -17.266 -26.135  0.00  0.00    -0.325 N 
ATOM     21  C   UNL     1      34.082 -15.892 -26.095  0.00  0.00    +0.243 C 
ATOM     22  H   UNL     1      34.270 -17.744 -26.996  0.00  0.00    +0.145 HD
ATOM     23  H   UNL     1      34.470 -17.761 -25.302  0.00  0.00    +0.145 HD
ENDBRANCH   4  21
BRANCH   5  25
ATOM     24  O   UNL     1      35.651 -17.134 -21.285  0.00  0.00    -0.245 OA
ATOM     25  C   UNL     1      35.081 -16.038 -21.265  0.00  0.00    +0.338 C 
BRANCH  25  26
ATOM     26  O   UNL     1      34.821 -15.379 -20.102  0.00  0.00    -0.477 OA
ATOM     27  H   UNL     1      34.955 -14.453 -20.048  0.00  0.00    +0.295 HD
ENDBRANCH  25  26
ENDBRANCH   5  25
TORSDOF 5
ENDMDL
MODEL 9
REMARK VINA RESULT:      -9.2     16.045     20.099
REMARK  Name = 5287459
REMARK  5 active torsions:
REMARK  status: ('A' for Active; 'I' for Inactive)
REMARK    1  A    between atoms: C_1  and  C_7
REMARK    2  A    between atoms: C_4  and  C_21
REMARK    3  A    between atoms: C_5  and  C_25
REMARK    4  A    between atoms: C_8  and  C_13
REMARK    5  A    between atoms: C_25  and  O_26
REMARK                            x       y       z     vdW  Elec       q    Type
REMARK                         _______ _______ _______ _____ _____    ______ ____
ROOT
ATOM      1  C   UNL     1      32.496  -5.691 -23.885  0.00  0.00    +0.000 C 
ATOM      2  C   UNL     1      33.398  -5.622 -24.946  0.00  0.00    +0.005 C 
ATOM      3  C   UNL     1      31.692  -4.594 -23.581  0.00  0.00    +0.006 C 
ATOM      4  C   UNL     1      33.495  -4.455 -25.704  0.00  0.00    +0.053 C 
ATOM      5  C   UNL     1      31.789  -3.426 -24.338  0.00  0.00    +0.076 C 
ATOM      6  C   UNL     1      32.692  -3.357 -25.400  0.00  0.00    +0.011 C 
ENDROOT
BRANCH   1   7
ATOM      7  C   UNL     1      32.395  -6.902 -23.099  0.00  0.00    +0.000 C 
ATOM      8  C   UNL     1      32.199  -9.237 -21.584  0.00  0.00    +0.000 C 
ATOM      9  C   UNL     1      31.975  -8.090 -23.699  0.00  0.00    +0.000 C 
ATOM     10  C   UNL     1      32.717  -6.881 -21.742  0.00  0.00    +0.000 C 
ATOM     11  C   UNL     1      31.877  -9.257 -22.941  0.00  0.00    +0.000 C 
ATOM     12  C   UNL     1      32.619  -8.048 -20.984  0.00  0.00    +0.000 C 
BRANCH   8  13
ATOM     13  C   UNL     1      32.097 -10.447 -20.797  0.00  0.00    +0.000 C 
ATOM     14  C   UNL     1      32.288 -11.689 -21.400  0.00  0.00    +0.000 C 
ATOM     15  C   UNL     1      31.808 -10.369 -19.435  0.00  0.00    +0.000 C 
ATOM     16  C   UNL     1      32.190 -12.856 -20.641  0.00  0.00    +0.000 C 
ATOM     17  C   UNL     1      31.710 -11.535 -18.675  0.00  0.00    +0.000 C 
ATOM     18  C   UNL     1      31.900 -12.778 -19.278  0.00  0.00    +0.000 C 
ENDBRANCH   8  13
ENDBRANCH   1   7
BRANCH   4  21
ATOM     19  O   UNL     1      34.137  -3.825 -27.881  0.00  0.00    -0.270 OA
ATOM     20  N   UNL     1      35.697  -4.945 -26.628  0.00  0.00    -0.325 N 
ATOM     21  C   UNL     1      34.437  -4.383 -26.810  0.00  0.00    +0.243 C 
ATOM     22  H   UNL     1      36.360  -4.916 -27.355  0.00  0.00    +0.145 HD
ATOM     23  H   UNL     1      35.925  -5.373 -25.770  0.00  0.00    +0.145 HD
ENDBRANCH   4  21
BRANCH   5  25
ATOM     24  O   UNL     1      30.101  -1.786 -24.768  0.00  0.00    -0.245 OA
ATOM     25  C   UNL     1      30.951  -2.281 -24.021  0.00  0.00    +0.338 C 
BRANCH  25  26
ATOM     26  O   UNL     1      31.196  -1.786 -22.776  0.00  0.00    -0.477 OA
ATOM     27  H   UNL     1      32.058  -1.503 -22.545  0.00  0.00    +0.295 HD
ENDBRANCH  25  26
ENDBRANCH   5  25
TORSDOF 5
ENDMDL
