MODEL 1
REMARK VINA RESULT:     -12.5      0.000      0.000
REMARK  Name = 119057475
REMARK  5 active torsions:
REMARK  status: ('A' for Active; 'I' for Inactive)
REMARK    1  A    between atoms: N_1  and  C_22
REMARK    2  A    between atoms: C_2  and  N_8
REMARK    3  A    between atoms: N_8  and  C_11
REMARK    4  A    between atoms: C_11  and  C_16
REMARK    5  A    between atoms: C_22  and  C_26
REMARK                            x       y       z     vdW  Elec       q    Type
REMARK                         _______ _______ _______ _____ _____    ______ ____
ROOT
ATOM      1  N   UNL     1      34.544 -15.021 -22.988  0.00  0.00    +0.387 N 
ATOM      2  C   UNL     1      35.647 -17.730 -22.925  0.00  0.00    -0.066 C 
ATOM      3  C   UNL     1      35.216 -15.523 -21.782  0.00  0.00    -0.079 C 
ATOM      4  C   UNL     1      35.113 -15.621 -24.203  0.00  0.00    -0.079 C 
ATOM      5  C   UNL     1      35.093 -17.045 -21.674  0.00  0.00    -0.044 C 
ATOM      6  C   UNL     1      34.987 -17.147 -24.177  0.00  0.00    -0.044 C 
ATOM      7  H   UNL     1      33.562 -15.290 -22.936  0.00  0.00    -0.080 HD
ENDROOT
BRANCH   2   8
ATOM      8  N   UNL     1      35.436 -19.174 -22.847  0.00  0.00    +0.389 N 
ATOM      9  H   UNL     1      35.756 -19.605 -23.715  0.00  0.00    -0.084 HD
ATOM     10  H   UNL     1      34.441 -19.353 -22.708  0.00  0.00    -0.084 HD
BRANCH   8  11
ATOM     11  C   UNL     1      36.173 -19.745 -21.730  0.00  0.00    -0.032 C 
BRANCH  11  16
ATOM     12  O   UNL     1      35.486 -22.768 -17.991  0.00  0.00    -0.467 OA
ATOM     13  O   UNL     1      32.657 -22.557 -18.471  0.00  0.00    -0.453 OA
ATOM     14  N   UNL     1      33.945 -20.406 -20.998  0.00  0.00    -0.151 NA
ATOM     15  N   UNL     1      33.092 -21.095 -20.192  0.00  0.00    -0.107 NA
ATOM     16  C   UNL     1      35.275 -20.524 -20.805  0.00  0.00    +0.062 C 
ATOM     17  C   UNL     1      35.822 -21.310 -19.811  0.00  0.00    +0.056 C 
ATOM     18  C   UNL     1      34.951 -21.999 -18.985  0.00  0.00    +0.194 C 
ATOM     19  C   UNL     1      33.592 -21.883 -19.216  0.00  0.00    +0.278 C 
ATOM     20  C   UNL     1      34.499 -23.164 -17.033  0.00  0.00    +0.253 C 
ATOM     21  C   UNL     1      33.242 -23.635 -17.737  0.00  0.00    +0.254 C 
ENDBRANCH  11  16
ENDBRANCH   8  11
ENDBRANCH   2   8
BRANCH   1  22
ATOM     22  C   UNL     1      34.626 -13.562 -23.051  0.00  0.00    -0.071 C 
BRANCH  22  26
ATOM     23  F   UNL     1      32.733 -14.660 -20.604  0.00  0.00    -0.204 F 
ATOM     24  O   UNL     1      32.799  -8.601 -24.064  0.00  0.00    -0.270 OA
ATOM     25  N   UNL     1      32.750 -10.570 -22.850  0.00  0.00    -0.255 N 
ATOM     26  C   UNL     1      33.239 -12.936 -23.082  0.00  0.00    +0.025 C 
ATOM     27  C   UNL     1      33.234 -11.563 -23.818  0.00  0.00    +0.101 C 
ATOM     28  C   UNL     1      32.735 -12.566 -21.714  0.00  0.00    +0.018 C 
ATOM     29  C   UNL     1      32.472 -11.209 -21.651  0.00  0.00    +0.052 C 
ATOM     30  C   UNL     1      31.995 -10.552 -20.535  0.00  0.00    +0.014 C 
ATOM     31  C   UNL     1      32.504 -13.341 -20.594  0.00  0.00    +0.137 C 
ATOM     32  C   UNL     1      32.570  -9.216 -23.026  0.00  0.00    +0.253 C 
ATOM     33  C   UNL     1      31.763 -11.325 -19.401  0.00  0.00    +0.004 C 
ATOM     34  C   UNL     1      32.018 -12.712 -19.434  0.00  0.00    +0.029 C 
ATOM     35  C   UNL     1      31.782  -9.113 -20.659  0.00  0.00    +0.006 C 
ATOM     36  C   UNL     1      32.049  -8.486 -21.818  0.00  0.00    +0.058 C 
ENDBRANCH  22  26
ENDBRANCH   1  22
TORSDOF 5
ENDMDL
MODEL 2
REMARK VINA RESULT:     -12.3      3.033      4.587
REMARK  Name = 119057475
REMARK  5 active torsions:
REMARK  status: ('A' for Active; 'I' for Inactive)
REMARK    1  A    between atoms: N_1  and  C_22
REMARK    2  A    between atoms: C_2  and  N_8
REMARK    3  A    between atoms: N_8  and  C_11
REMARK    4  A    between atoms: C_11  and  C_16
REMARK    5  A    between atoms: C_22  and  C_26
REMARK                            x       y       z     vdW  Elec       q    Type
REMARK                         _______ _______ _______ _____ _____    ______ ____
ROOT
ATOM      1  N   UNL     1      36.277 -19.145 -22.568  0.00  0.00    +0.387 N 
ATOM      2  C   UNL     1      35.776 -20.585 -20.071  0.00  0.00    -0.066 C 
ATOM      3  C   UNL     1      34.901 -19.421 -22.131  0.00  0.00    -0.079 C 
ATOM      4  C   UNL     1      37.176 -18.976 -21.419  0.00  0.00    -0.079 C 
ATOM      5  C   UNL     1      34.837 -20.688 -21.275  0.00  0.00    -0.044 C 
ATOM      6  C   UNL     1      37.190 -20.229 -20.539  0.00  0.00    -0.044 C 
ATOM      7  H   UNL     1      36.601 -19.949 -23.106  0.00  0.00    -0.080 HD
ENDROOT
BRANCH   2   8
ATOM      8  N   UNL     1      35.774 -21.837 -19.318  0.00  0.00    +0.389 N 
ATOM      9  H   UNL     1      35.801 -21.626 -18.320  0.00  0.00    -0.084 HD
ATOM     10  H   UNL     1      36.592 -22.383 -19.588  0.00  0.00    -0.084 HD
BRANCH   8  11
ATOM     11  C   UNL     1      34.578 -22.614 -19.609  0.00  0.00    -0.032 C 
BRANCH  11  16
ATOM     12  O   UNL     1      34.091 -24.184 -15.038  0.00  0.00    -0.467 OA
ATOM     13  O   UNL     1      31.315 -23.442 -15.187  0.00  0.00    -0.453 OA
ATOM     14  N   UNL     1      32.457 -22.481 -18.419  0.00  0.00    -0.151 NA
ATOM     15  N   UNL     1      31.667 -22.683 -17.328  0.00  0.00    -0.107 NA
ATOM     16  C   UNL     1      33.752 -22.855 -18.374  0.00  0.00    +0.062 C 
ATOM     17  C   UNL     1      34.327 -23.432 -17.259  0.00  0.00    +0.056 C 
ATOM     18  C   UNL     1      33.524 -23.626 -16.148  0.00  0.00    +0.194 C 
ATOM     19  C   UNL     1      32.193 -23.256 -16.225  0.00  0.00    +0.278 C 
ATOM     20  C   UNL     1      33.258 -24.039 -13.883  0.00  0.00    +0.253 C 
ATOM     21  C   UNL     1      31.820 -24.374 -14.227  0.00  0.00    +0.254 C 
ENDBRANCH  11  16
ENDBRANCH   8  11
ENDBRANCH   2   8
BRANCH   1  22
ATOM     22  C   UNL     1      36.314 -17.961 -23.426  0.00  0.00    -0.071 C 
BRANCH  22  26
ATOM     23  F   UNL     1      35.297 -16.497 -20.669  0.00  0.00    -0.204 F 
ATOM     24  O   UNL     1      33.851 -15.268 -27.384  0.00  0.00    -0.270 OA
ATOM     25  N   UNL     1      34.320 -15.596 -25.142  0.00  0.00    -0.255 N 
ATOM     26  C   UNL     1      34.926 -17.355 -23.583  0.00  0.00    +0.025 C 
ATOM     27  C   UNL     1      34.594 -17.037 -25.071  0.00  0.00    +0.101 C 
ATOM     28  C   UNL     1      34.802 -16.005 -22.933  0.00  0.00    +0.018 C 
ATOM     29  C   UNL     1      34.451 -15.051 -23.872  0.00  0.00    +0.052 C 
ATOM     30  C   UNL     1      34.256 -13.713 -23.599  0.00  0.00    +0.014 C 
ATOM     31  C   UNL     1      34.967 -15.613 -21.618  0.00  0.00    +0.137 C 
ATOM     32  C   UNL     1      33.981 -14.838 -26.241  0.00  0.00    +0.253 C 
ATOM     33  C   UNL     1      34.424 -13.310 -22.278  0.00  0.00    +0.004 C 
ATOM     34  C   UNL     1      34.777 -14.259 -21.295  0.00  0.00    +0.029 C 
ATOM     35  C   UNL     1      33.893 -12.857 -24.725  0.00  0.00    +0.006 C 
ATOM     36  C   UNL     1      33.764 -13.377 -25.957  0.00  0.00    +0.058 C 
ENDBRANCH  22  26
ENDBRANCH   1  22
TORSDOF 5
ENDMDL
MODEL 3
REMARK VINA RESULT:     -12.2      3.269      4.900
REMARK  Name = 119057475
REMARK  5 active torsions:
REMARK  status: ('A' for Active; 'I' for Inactive)
REMARK    1  A    between atoms: N_1  and  C_22
REMARK    2  A    between atoms: C_2  and  N_8
REMARK    3  A    between atoms: N_8  and  C_11
REMARK    4  A    between atoms: C_11  and  C_16
REMARK    5  A    between atoms: C_22  and  C_26
REMARK                            x       y       z     vdW  Elec       q    Type
REMARK                         _______ _______ _______ _____ _____    ______ ____
ROOT
ATOM      1  N   UNL     1      36.325 -19.027 -22.741  0.00  0.00    +0.387 N 
ATOM      2  C   UNL     1      35.763 -20.456 -20.250  0.00  0.00    -0.066 C 
ATOM      3  C   UNL     1      34.947 -19.396 -22.390  0.00  0.00    -0.079 C 
ATOM      4  C   UNL     1      37.131 -18.772 -21.539  0.00  0.00    -0.079 C 
ATOM      5  C   UNL     1      34.918 -20.650 -21.511  0.00  0.00    -0.044 C 
ATOM      6  C   UNL     1      37.176 -20.004 -20.632  0.00  0.00    -0.044 C 
ATOM      7  H   UNL     1      36.743 -19.813 -23.238  0.00  0.00    -0.080 HD
ENDROOT
BRANCH   2   8
ATOM      8  N   UNL     1      35.802 -21.692 -19.471  0.00  0.00    +0.389 N 
ATOM      9  H   UNL     1      35.946 -22.480 -20.103  0.00  0.00    -0.084 HD
ATOM     10  H   UNL     1      34.917 -21.793 -18.975  0.00  0.00    -0.084 HD
BRANCH   8  11
ATOM     11  C   UNL     1      36.882 -21.657 -18.498  0.00  0.00    -0.032 C 
BRANCH  11  16
ATOM     12  O   UNL     1      37.882 -23.136 -13.981  0.00  0.00    -0.467 OA
ATOM     13  O   UNL     1      35.427 -24.635 -14.037  0.00  0.00    -0.453 OA
ATOM     14  N   UNL     1      35.377 -23.113 -17.255  0.00  0.00    -0.151 NA
ATOM     15  N   UNL     1      35.027 -23.836 -16.155  0.00  0.00    -0.107 NA
ATOM     16  C   UNL     1      36.542 -22.433 -17.254  0.00  0.00    +0.062 C 
ATOM     17  C   UNL     1      37.404 -22.425 -16.176  0.00  0.00    +0.056 C 
ATOM     18  C   UNL     1      37.039 -23.151 -15.055  0.00  0.00    +0.194 C 
ATOM     19  C   UNL     1      35.851 -23.860 -15.087  0.00  0.00    +0.278 C 
ATOM     20  C   UNL     1      37.255 -23.651 -12.802  0.00  0.00    +0.253 C 
ATOM     21  C   UNL     1      36.491 -24.921 -13.125  0.00  0.00    +0.254 C 
ENDBRANCH  11  16
ENDBRANCH   8  11
ENDBRANCH   2   8
BRANCH   1  22
ATOM     22  C   UNL     1      36.334 -17.859 -23.621  0.00  0.00    -0.071 C 
BRANCH  22  26
ATOM     23  F   UNL     1      35.304 -16.479 -20.825  0.00  0.00    -0.204 F 
ATOM     24  O   UNL     1      33.826 -15.098 -27.503  0.00  0.00    -0.270 OA
ATOM     25  N   UNL     1      34.304 -15.477 -25.271  0.00  0.00    -0.255 N 
ATOM     26  C   UNL     1      34.938 -17.268 -23.760  0.00  0.00    +0.025 C 
ATOM     27  C   UNL     1      34.597 -16.916 -25.238  0.00  0.00    +0.101 C 
ATOM     28  C   UNL     1      34.797 -15.936 -23.075  0.00  0.00    +0.018 C 
ATOM     29  C   UNL     1      34.431 -14.964 -23.989  0.00  0.00    +0.052 C 
ATOM     30  C   UNL     1      34.219 -13.635 -23.681  0.00  0.00    +0.014 C 
ATOM     31  C   UNL     1      34.960 -15.576 -21.751  0.00  0.00    +0.137 C 
ATOM     32  C   UNL     1      33.953 -14.696 -26.350  0.00  0.00    +0.253 C 
ATOM     33  C   UNL     1      34.385 -13.264 -22.350  0.00  0.00    +0.004 C 
ATOM     34  C   UNL     1      34.753 -14.233 -21.392  0.00  0.00    +0.029 C 
ATOM     35  C   UNL     1      33.842 -12.755 -24.783  0.00  0.00    +0.006 C 
ATOM     36  C   UNL     1      33.717 -13.245 -26.028  0.00  0.00    +0.058 C 
ENDBRANCH  22  26
ENDBRANCH   1  22
TORSDOF 5
ENDMDL
MODEL 4
REMARK VINA RESULT:     -12.2      4.169     10.902
REMARK  Name = 119057475
REMARK  5 active torsions:
REMARK  status: ('A' for Active; 'I' for Inactive)
REMARK    1  A    between atoms: N_1  and  C_22
REMARK    2  A    between atoms: C_2  and  N_8
REMARK    3  A    between atoms: N_8  and  C_11
REMARK    4  A    between atoms: C_11  and  C_16
REMARK    5  A    between atoms: C_22  and  C_26
REMARK                            x       y       z     vdW  Elec       q    Type
REMARK                         _______ _______ _______ _____ _____    ______ ____
ROOT
ATOM      1  N   UNL     1      35.100 -21.797 -19.444  0.00  0.00    +0.387 N 
ATOM      2  C   UNL     1      34.885 -19.810 -21.582  0.00  0.00    -0.066 C 
ATOM      3  C   UNL     1      36.271 -21.004 -19.844  0.00  0.00    -0.079 C 
ATOM      4  C   UNL     1      33.855 -21.040 -19.634  0.00  0.00    -0.079 C 
ATOM      5  C   UNL     1      36.178 -20.583 -21.313  0.00  0.00    -0.044 C 
ATOM      6  C   UNL     1      33.680 -20.621 -21.096  0.00  0.00    -0.044 C 
ATOM      7  H   UNL     1      35.061 -22.622 -20.044  0.00  0.00    -0.080 HD
ENDROOT
BRANCH   2   8
ATOM      8  N   UNL     1      34.768 -19.499 -23.005  0.00  0.00    +0.389 N 
ATOM      9  H   UNL     1      33.868 -19.049 -23.174  0.00  0.00    -0.084 HD
ATOM     10  H   UNL     1      34.836 -20.367 -23.536  0.00  0.00    -0.084 HD
BRANCH   8  11
ATOM     11  C   UNL     1      35.836 -18.607 -23.429  0.00  0.00    -0.032 C 
BRANCH  11  16
ATOM     12  O   UNL     1      33.990 -15.552 -26.724  0.00  0.00    -0.467 OA
ATOM     13  O   UNL     1      33.973 -13.523 -24.685  0.00  0.00    -0.453 OA
ATOM     14  N   UNL     1      35.265 -16.304 -22.876  0.00  0.00    -0.151 NA
ATOM     15  N   UNL     1      34.802 -15.063 -23.192  0.00  0.00    -0.107 NA
ATOM     16  C   UNL     1      35.310 -17.255 -23.832  0.00  0.00    +0.062 C 
ATOM     17  C   UNL     1      34.895 -17.033 -25.130  0.00  0.00    +0.056 C 
ATOM     18  C   UNL     1      34.414 -15.774 -25.445  0.00  0.00    +0.194 C 
ATOM     19  C   UNL     1      34.399 -14.807 -24.455  0.00  0.00    +0.278 C 
ATOM     20  C   UNL     1      33.238 -14.340 -26.835  0.00  0.00    +0.253 C 
ATOM     21  C   UNL     1      33.931 -13.221 -26.082  0.00  0.00    +0.254 C 
ENDBRANCH  11  16
ENDBRANCH   8  11
ENDBRANCH   2   8
BRANCH   1  22
ATOM     22  C   UNL     1      35.227 -22.234 -18.054  0.00  0.00    -0.071 C 
BRANCH  22  26
ATOM     23  F   UNL     1      36.504 -24.365 -15.907  0.00  0.00    -0.204 F 
ATOM     24  O   UNL     1      29.911 -22.525 -17.262  0.00  0.00    -0.270 OA
ATOM     25  N   UNL     1      32.075 -23.150 -16.735  0.00  0.00    -0.255 N 
ATOM     26  C   UNL     1      34.269 -23.376 -17.750  0.00  0.00    +0.025 C 
ATOM     27  C   UNL     1      32.785 -22.978 -18.009  0.00  0.00    +0.101 C 
ATOM     28  C   UNL     1      34.249 -23.749 -16.293  0.00  0.00    +0.018 C 
ATOM     29  C   UNL     1      32.973 -23.603 -15.779  0.00  0.00    +0.052 C 
ATOM     30  C   UNL     1      32.617 -23.865 -14.471  0.00  0.00    +0.014 C 
ATOM     31  C   UNL     1      35.255 -24.197 -15.458  0.00  0.00    +0.137 C 
ATOM     32  C   UNL     1      30.746 -22.924 -16.455  0.00  0.00    +0.253 C 
ATOM     33  C   UNL     1      33.625 -24.313 -13.623  0.00  0.00    +0.004 C 
ATOM     34  C   UNL     1      34.936 -24.477 -14.118  0.00  0.00    +0.029 C 
ATOM     35  C   UNL     1      31.219 -23.647 -14.112  0.00  0.00    +0.006 C 
ATOM     36  C   UNL     1      30.344 -23.208 -15.033  0.00  0.00    +0.058 C 
ENDBRANCH  22  26
ENDBRANCH   1  22
TORSDOF 5
ENDMDL
MODEL 5
REMARK VINA RESULT:     -12.1      4.171     11.161
REMARK  Name = 119057475
REMARK  5 active torsions:
REMARK  status: ('A' for Active; 'I' for Inactive)
REMARK    1  A    between atoms: N_1  and  C_22
REMARK    2  A    between atoms: C_2  and  N_8
REMARK    3  A    between atoms: N_8  and  C_11
REMARK    4  A    between atoms: C_11  and  C_16
REMARK    5  A    between atoms: C_22  and  C_26
REMARK                            x       y       z     vdW  Elec       q    Type
REMARK                         _______ _______ _______ _____ _____    ______ ____
ROOT
ATOM      1  N   UNL     1      34.604 -22.428 -19.748  0.00  0.00    +0.387 N 
ATOM      2  C   UNL     1      35.448 -19.925 -21.007  0.00  0.00    -0.066 C 
ATOM      3  C   UNL     1      35.962 -21.908 -19.534  0.00  0.00    -0.079 C 
ATOM      4  C   UNL     1      33.642 -21.336 -19.952  0.00  0.00    -0.079 C 
ATOM      5  C   UNL     1      36.426 -21.068 -20.727  0.00  0.00    -0.044 C 
ATOM      6  C   UNL     1      34.028 -20.476 -21.159  0.00  0.00    -0.044 C 
ATOM      7  H   UNL     1      34.616 -22.997 -20.595  0.00  0.00    -0.080 HD
ENDROOT
BRANCH   2   8
ATOM      8  N   UNL     1      35.855 -19.192 -22.204  0.00  0.00    +0.389 N 
ATOM      9  H   UNL     1      35.289 -19.502 -22.994  0.00  0.00    -0.084 HD
ATOM     10  H   UNL     1      36.843 -19.377 -22.381  0.00  0.00    -0.084 HD
BRANCH   8  11
ATOM     11  C   UNL     1      35.675 -17.760 -22.020  0.00  0.00    -0.032 C 
BRANCH  11  16
ATOM     12  O   UNL     1      34.160 -13.843 -24.461  0.00  0.00    -0.467 OA
ATOM     13  O   UNL     1      33.929 -15.512 -26.794  0.00  0.00    -0.453 OA
ATOM     14  N   UNL     1      35.126 -17.851 -24.391  0.00  0.00    -0.151 NA
ATOM     15  N   UNL     1      34.702 -17.290 -25.557  0.00  0.00    -0.107 NA
ATOM     16  C   UNL     1      35.206 -17.087 -23.282  0.00  0.00    +0.062 C 
ATOM     17  C   UNL     1      34.885 -15.745 -23.272  0.00  0.00    +0.056 C 
ATOM     18  C   UNL     1      34.466 -15.174 -24.462  0.00  0.00    +0.194 C 
ATOM     19  C   UNL     1      34.369 -15.982 -25.582  0.00  0.00    +0.278 C 
ATOM     20  C   UNL     1      34.050 -13.320 -25.788  0.00  0.00    +0.253 C 
ATOM     21  C   UNL     1      33.246 -14.263 -26.661  0.00  0.00    +0.254 C 
ENDBRANCH  11  16
ENDBRANCH   8  11
ENDBRANCH   2   8
BRANCH   1  22
ATOM     22  C   UNL     1      34.194 -23.269 -18.624  0.00  0.00    -0.071 C 
BRANCH  22  26
ATOM     23  F   UNL     1      31.298 -22.826 -17.141  0.00  0.00    -0.204 F 
ATOM     24  O   UNL     1      37.764 -23.491 -14.601  0.00  0.00    -0.270 OA
ATOM     25  N   UNL     1      35.591 -23.305 -15.374  0.00  0.00    -0.255 N 
ATOM     26  C   UNL     1      34.340 -22.526 -17.304  0.00  0.00    +0.025 C 
ATOM     27  C   UNL     1      35.765 -22.689 -16.697  0.00  0.00    +0.101 C 
ATOM     28  C   UNL     1      33.465 -23.089 -16.218  0.00  0.00    +0.018 C 
ATOM     29  C   UNL     1      34.237 -23.508 -15.149  0.00  0.00    +0.052 C 
ATOM     30  C   UNL     1      33.739 -24.070 -13.991  0.00  0.00    +0.014 C 
ATOM     31  C   UNL     1      32.092 -23.225 -16.140  0.00  0.00    +0.137 C 
ATOM     32  C   UNL     1      36.555 -23.649 -14.453  0.00  0.00    +0.253 C 
ATOM     33  C   UNL     1      32.357 -24.214 -13.906  0.00  0.00    +0.004 C 
ATOM     34  C   UNL     1      31.541 -23.792 -14.977  0.00  0.00    +0.029 C 
ATOM     35  C   UNL     1      34.713 -24.456 -12.974  0.00  0.00    +0.006 C 
ATOM     36  C   UNL     1      36.026 -24.262 -13.185  0.00  0.00    +0.058 C 
ENDBRANCH  22  26
ENDBRANCH   1  22
TORSDOF 5
ENDMDL
MODEL 6
REMARK VINA RESULT:     -11.8      3.547     11.494
REMARK  Name = 119057475
REMARK  5 active torsions:
REMARK  status: ('A' for Active; 'I' for Inactive)
REMARK    1  A    between atoms: N_1  and  C_22
REMARK    2  A    between atoms: C_2  and  N_8
REMARK    3  A    between atoms: N_8  and  C_11
REMARK    4  A    between atoms: C_11  and  C_16
REMARK    5  A    between atoms: C_22  and  C_26
REMARK                            x       y       z     vdW  Elec       q    Type
REMARK                         _______ _______ _______ _____ _____    ______ ____
ROOT
ATOM      1  N   UNL     1      35.004 -21.666 -18.988  0.00  0.00    +0.387 N 
ATOM      2  C   UNL     1      35.065 -20.392 -21.622  0.00  0.00    -0.066 C 
ATOM      3  C   UNL     1      33.813 -21.678 -19.848  0.00  0.00    -0.079 C 
ATOM      4  C   UNL     1      36.238 -21.668 -19.788  0.00  0.00    -0.079 C 
ATOM      5  C   UNL     1      33.791 -20.461 -20.778  0.00  0.00    -0.044 C 
ATOM      6  C   UNL     1      36.298 -20.451 -20.715  0.00  0.00    -0.044 C 
ATOM      7  H   UNL     1      34.987 -20.806 -18.440  0.00  0.00    -0.080 HD
ENDROOT
BRANCH   2   8
ATOM      8  N   UNL     1      35.070 -19.177 -22.433  0.00  0.00    +0.389 N 
ATOM      9  H   UNL     1      34.109 -18.861 -22.566  0.00  0.00    -0.084 HD
ATOM     10  H   UNL     1      35.503 -19.385 -23.332  0.00  0.00    -0.084 HD
BRANCH   8  11
ATOM     11  C   UNL     1      35.833 -18.123 -21.781  0.00  0.00    -0.032 C 
BRANCH  11  16
ATOM     12  O   UNL     1      34.525 -14.803 -25.077  0.00  0.00    -0.467 OA
ATOM     13  O   UNL     1      33.995 -12.998 -22.900  0.00  0.00    -0.453 OA
ATOM     14  N   UNL     1      35.043 -15.910 -21.139  0.00  0.00    -0.151 NA
ATOM     15  N   UNL     1      34.588 -14.658 -21.423  0.00  0.00    -0.107 NA
ATOM     16  C   UNL     1      35.328 -16.754 -22.152  0.00  0.00    +0.062 C 
ATOM     17  C   UNL     1      35.170 -16.412 -23.480  0.00  0.00    +0.056 C 
ATOM     18  C   UNL     1      34.696 -15.142 -23.765  0.00  0.00    +0.194 C 
ATOM     19  C   UNL     1      34.433 -14.285 -22.711  0.00  0.00    +0.278 C 
ATOM     20  C   UNL     1      33.749 -13.610 -25.223  0.00  0.00    +0.253 C 
ATOM     21  C   UNL     1      34.217 -12.554 -24.240  0.00  0.00    +0.254 C 
ENDBRANCH  11  16
ENDBRANCH   8  11
ENDBRANCH   2   8
BRANCH   1  22
ATOM     22  C   UNL     1      34.986 -22.806 -18.072  0.00  0.00    -0.071 C 
BRANCH  22  26
ATOM     23  F   UNL     1      32.626 -22.578 -15.801  0.00  0.00    -0.204 F 
ATOM     24  O   UNL     1      39.391 -24.217 -15.318  0.00  0.00    -0.270 OA
ATOM     25  N   UNL     1      37.133 -23.722 -15.414  0.00  0.00    -0.255 N 
ATOM     26  C   UNL     1      35.544 -22.422 -16.709  0.00  0.00    +0.025 C 
ATOM     27  C   UNL     1      37.046 -22.811 -16.563  0.00  0.00    +0.101 C 
ATOM     28  C   UNL     1      34.906 -23.184 -15.581  0.00  0.00    +0.018 C 
ATOM     29  C   UNL     1      35.864 -23.898 -14.882  0.00  0.00    +0.052 C 
ATOM     30  C   UNL     1      35.605 -24.699 -13.788  0.00  0.00    +0.014 C 
ATOM     31  C   UNL     1      33.590 -23.256 -15.167  0.00  0.00    +0.137 C 
ATOM     32  C   UNL     1      38.247 -24.338 -14.888  0.00  0.00    +0.253 C 
ATOM     33  C   UNL     1      34.281 -24.780 -13.368  0.00  0.00    +0.004 C 
ATOM     34  C   UNL     1      33.281 -24.060 -14.056  0.00  0.00    +0.029 C 
ATOM     35  C   UNL     1      36.748 -25.378 -13.185  0.00  0.00    +0.006 C 
ATOM     36  C   UNL     1      37.980 -25.213 -13.694  0.00  0.00    +0.058 C 
ENDBRANCH  22  26
ENDBRANCH   1  22
TORSDOF 5
ENDMDL
MODEL 7
REMARK VINA RESULT:     -11.6      1.875      2.675
REMARK  Name = 119057475
REMARK  5 active torsions:
REMARK  status: ('A' for Active; 'I' for Inactive)
REMARK    1  A    between atoms: N_1  and  C_22
REMARK    2  A    between atoms: C_2  and  N_8
REMARK    3  A    between atoms: N_8  and  C_11
REMARK    4  A    between atoms: C_11  and  C_16
REMARK    5  A    between atoms: C_22  and  C_26
REMARK                            x       y       z     vdW  Elec       q    Type
REMARK                         _______ _______ _______ _____ _____    ______ ____
ROOT
ATOM      1  N   UNL     1      34.359 -15.739 -24.047  0.00  0.00    +0.387 N 
ATOM      2  C   UNL     1      35.735 -18.298 -23.694  0.00  0.00    -0.066 C 
ATOM      3  C   UNL     1      35.411 -15.885 -23.031  0.00  0.00    -0.079 C 
ATOM      4  C   UNL     1      34.608 -16.616 -25.200  0.00  0.00    -0.079 C 
ATOM      5  C   UNL     1      35.501 -17.330 -22.533  0.00  0.00    -0.044 C 
ATOM      6  C   UNL     1      34.671 -18.085 -24.775  0.00  0.00    -0.044 C 
ATOM      7  H   UNL     1      33.474 -16.021 -23.624  0.00  0.00    -0.080 HD
ENDROOT
BRANCH   2   8
ATOM      8  N   UNL     1      35.724 -19.677 -23.213  0.00  0.00    +0.389 N 
ATOM      9  H   UNL     1      36.282 -20.255 -23.844  0.00  0.00    -0.084 HD
ATOM     10  H   UNL     1      34.760 -20.008 -23.190  0.00  0.00    -0.084 HD
BRANCH   8  11
ATOM     11  C   UNL     1      36.280 -19.762 -21.871  0.00  0.00    -0.032 C 
BRANCH  11  16
ATOM     12  O   UNL     1      35.541 -22.714 -18.085  0.00  0.00    -0.467 OA
ATOM     13  O   UNL     1      32.716 -22.455 -18.564  0.00  0.00    -0.453 OA
ATOM     14  N   UNL     1      34.041 -20.369 -21.127  0.00  0.00    -0.151 NA
ATOM     15  N   UNL     1      33.176 -21.029 -20.308  0.00  0.00    -0.107 NA
ATOM     16  C   UNL     1      35.369 -20.509 -20.934  0.00  0.00    +0.062 C 
ATOM     17  C   UNL     1      35.902 -21.290 -19.928  0.00  0.00    +0.056 C 
ATOM     18  C   UNL     1      35.019 -21.950 -19.090  0.00  0.00    +0.194 C 
ATOM     19  C   UNL     1      33.662 -21.811 -19.321  0.00  0.00    +0.278 C 
ATOM     20  C   UNL     1      34.548 -23.076 -17.120  0.00  0.00    +0.253 C 
ATOM     21  C   UNL     1      33.281 -23.533 -17.815  0.00  0.00    +0.254 C 
ENDBRANCH  11  16
ENDBRANCH   8  11
ENDBRANCH   2   8
BRANCH   1  22
ATOM     22  C   UNL     1      34.251 -14.346 -24.477  0.00  0.00    -0.071 C 
BRANCH  22  26
ATOM     23  F   UNL     1      34.869 -11.294 -25.520  0.00  0.00    -0.204 F 
ATOM     24  O   UNL     1      32.071 -13.699 -19.597  0.00  0.00    -0.270 OA
ATOM     25  N   UNL     1      32.953 -12.834 -21.553  0.00  0.00    -0.255 N 
ATOM     26  C   UNL     1      34.521 -13.394 -23.320  0.00  0.00    +0.025 C 
ATOM     27  C   UNL     1      33.875 -13.890 -21.993  0.00  0.00    +0.101 C 
ATOM     28  C   UNL     1      33.873 -12.050 -23.507  0.00  0.00    +0.018 C 
ATOM     29  C   UNL     1      32.998 -11.791 -22.467  0.00  0.00    +0.052 C 
ATOM     30  C   UNL     1      32.246 -10.641 -22.339  0.00  0.00    +0.014 C 
ATOM     31  C   UNL     1      34.028 -11.099 -24.497  0.00  0.00    +0.137 C 
ATOM     32  C   UNL     1      32.149 -12.806 -20.436  0.00  0.00    +0.253 C 
ATOM     33  C   UNL     1      32.394  -9.680 -23.335  0.00  0.00    +0.004 C 
ATOM     34  C   UNL     1      33.282  -9.911 -24.407  0.00  0.00    +0.029 C 
ATOM     35  C   UNL     1      31.373 -10.550 -21.173  0.00  0.00    +0.006 C 
ATOM     36  C   UNL     1      31.324 -11.557 -20.284  0.00  0.00    +0.058 C 
ENDBRANCH  22  26
ENDBRANCH   1  22
TORSDOF 5
ENDMDL
MODEL 8
REMARK VINA RESULT:     -11.4      2.832      4.844
REMARK  Name = 119057475
REMARK  5 active torsions:
REMARK  status: ('A' for Active; 'I' for Inactive)
REMARK    1  A    between atoms: N_1  and  C_22
REMARK    2  A    between atoms: C_2  and  N_8
REMARK    3  A    between atoms: N_8  and  C_11
REMARK    4  A    between atoms: C_11  and  C_16
REMARK    5  A    between atoms: C_22  and  C_26
REMARK                            x       y       z     vdW  Elec       q    Type
REMARK                         _______ _______ _______ _____ _____    ______ ____
ROOT
ATOM      1  N   UNL     1      35.302 -18.806 -22.060  0.00  0.00    +0.387 N 
ATOM      2  C   UNL     1      35.466 -21.179 -20.356  0.00  0.00    -0.066 C 
ATOM      3  C   UNL     1      36.598 -19.448 -21.801  0.00  0.00    -0.079 C 
ATOM      4  C   UNL     1      34.209 -19.789 -22.045  0.00  0.00    -0.079 C 
ATOM      5  C   UNL     1      36.601 -20.157 -20.444  0.00  0.00    -0.044 C 
ATOM      6  C   UNL     1      34.131 -20.510 -20.697  0.00  0.00    -0.044 C 
ATOM      7  H   UNL     1      35.129 -18.134 -21.312  0.00  0.00    -0.080 HD
ENDROOT
BRANCH   2   8
ATOM      8  N   UNL     1      35.426 -21.779 -19.024  0.00  0.00    +0.389 N 
ATOM      9  H   UNL     1      34.984 -21.124 -18.377  0.00  0.00    -0.084 HD
ATOM     10  H   UNL     1      36.380 -21.982 -18.728  0.00  0.00    -0.084 HD
BRANCH   8  11
ATOM     11  C   UNL     1      34.667 -23.020 -19.038  0.00  0.00    -0.032 C 
BRANCH  11  16
ATOM     12  O   UNL     1      33.148 -23.973 -14.524  0.00  0.00    -0.467 OA
ATOM     13  O   UNL     1      30.549 -23.018 -15.306  0.00  0.00    -0.453 OA
ATOM     14  N   UNL     1      32.385 -22.560 -18.322  0.00  0.00    -0.151 NA
ATOM     15  N   UNL     1      31.384 -22.559 -17.399  0.00  0.00    -0.107 NA
ATOM     16  C   UNL     1      33.599 -23.037 -17.977  0.00  0.00    +0.062 C 
ATOM     17  C   UNL     1      33.885 -23.521 -16.717  0.00  0.00    +0.056 C 
ATOM     18  C   UNL     1      32.868 -23.507 -15.777  0.00  0.00    +0.194 C 
ATOM     19  C   UNL     1      31.624 -23.036 -16.159  0.00  0.00    +0.278 C 
ATOM     20  C   UNL     1      32.130 -23.617 -13.582  0.00  0.00    +0.253 C 
ATOM     21  C   UNL     1      30.757 -23.866 -14.174  0.00  0.00    +0.254 C 
ENDBRANCH  11  16
ENDBRANCH   8  11
ENDBRANCH   2   8
BRANCH   1  22
ATOM     22  C   UNL     1      35.330 -18.090 -23.335  0.00  0.00    -0.071 C 
BRANCH  22  26
ATOM     23  F   UNL     1      35.719 -16.508 -26.186  0.00  0.00    -0.204 F 
ATOM     24  O   UNL     1      33.497 -14.340 -19.936  0.00  0.00    -0.270 OA
ATOM     25  N   UNL     1      34.185 -15.002 -22.043  0.00  0.00    -0.255 N 
ATOM     26  C   UNL     1      35.641 -16.615 -23.128  0.00  0.00    +0.025 C 
ATOM     27  C   UNL     1      35.121 -16.097 -21.753  0.00  0.00    +0.101 C 
ATOM     28  C   UNL     1      34.916 -15.724 -24.098  0.00  0.00    +0.018 C 
ATOM     29  C   UNL     1      34.110 -14.828 -23.418  0.00  0.00    +0.052 C 
ATOM     30  C   UNL     1      33.315 -13.872 -24.017  0.00  0.00    +0.014 C 
ATOM     31  C   UNL     1      34.949 -15.671 -25.479  0.00  0.00    +0.137 C 
ATOM     32  C   UNL     1      33.467 -14.229 -21.159  0.00  0.00    +0.253 C 
ATOM     33  C   UNL     1      33.340 -13.816 -25.408  0.00  0.00    +0.004 C 
ATOM     34  C   UNL     1      34.155 -14.712 -26.131  0.00  0.00    +0.029 C 
ATOM     35  C   UNL     1      32.529 -13.019 -23.131  0.00  0.00    +0.006 C 
ATOM     36  C   UNL     1      32.597 -13.181 -21.799  0.00  0.00    +0.058 C 
ENDBRANCH  22  26
ENDBRANCH   1  22
TORSDOF 5
ENDMDL
MODEL 9
REMARK VINA RESULT:     -11.4      3.092      5.205
REMARK  Name = 119057475
REMARK  5 active torsions:
REMARK  status: ('A' for Active; 'I' for Inactive)
REMARK    1  A    between atoms: N_1  and  C_22
REMARK    2  A    between atoms: C_2  and  N_8
REMARK    3  A    between atoms: N_8  and  C_11
REMARK    4  A    between atoms: C_11  and  C_16
REMARK    5  A    between atoms: C_22  and  C_26
REMARK                            x       y       z     vdW  Elec       q    Type
REMARK                         _______ _______ _______ _____ _____    ______ ____
ROOT
ATOM      1  N   UNL     1      35.430 -18.831 -21.935  0.00  0.00    +0.387 N 
ATOM      2  C   UNL     1      36.376 -21.025 -20.245  0.00  0.00    -0.066 C 
ATOM      3  C   UNL     1      36.869 -19.089 -21.786  0.00  0.00    -0.079 C 
ATOM      4  C   UNL     1      34.653 -20.073 -21.824  0.00  0.00    -0.079 C 
ATOM      5  C   UNL     1      37.177 -19.735 -20.432  0.00  0.00    -0.044 C 
ATOM      6  C   UNL     1      34.886 -20.753 -20.472  0.00  0.00    -0.044 C 
ATOM      7  H   UNL     1      35.143 -18.212 -21.177  0.00  0.00    -0.080 HD
ENDROOT
BRANCH   2   8
ATOM      8  N   UNL     1      36.609 -21.577 -18.913  0.00  0.00    +0.389 N 
ATOM      9  H   UNL     1      36.981 -20.844 -18.308  0.00  0.00    -0.084 HD
ATOM     10  H   UNL     1      37.275 -22.346 -18.989  0.00  0.00    -0.084 HD
BRANCH   8  11
ATOM     11  C   UNL     1      35.373 -22.087 -18.339  0.00  0.00    -0.032 C 
BRANCH  11  16
ATOM     12  O   UNL     1      37.888 -23.040 -14.295  0.00  0.00    -0.467 OA
ATOM     13  O   UNL     1      36.122 -25.266 -13.843  0.00  0.00    -0.453 OA
ATOM     14  N   UNL     1      34.782 -23.927 -16.857  0.00  0.00    -0.151 NA
ATOM     15  N   UNL     1      34.971 -24.697 -15.750  0.00  0.00    -0.107 NA
ATOM     16  C   UNL     1      35.624 -22.901 -17.099  0.00  0.00    +0.062 C 
ATOM     17  C   UNL     1      36.675 -22.581 -16.263  0.00  0.00    +0.056 C 
ATOM     18  C   UNL     1      36.857 -23.359 -15.132  0.00  0.00    +0.194 C 
ATOM     19  C   UNL     1      35.996 -24.421 -14.917  0.00  0.00    +0.278 C 
ATOM     20  C   UNL     1      37.776 -23.703 -13.032  0.00  0.00    +0.253 C 
ATOM     21  C   UNL     1      37.412 -25.161 -13.235  0.00  0.00    +0.254 C 
ENDBRANCH  11  16
ENDBRANCH   8  11
ENDBRANCH   2   8
BRANCH   1  22
ATOM     22  C   UNL     1      35.158 -18.168 -23.210  0.00  0.00    -0.071 C 
BRANCH  22  26
ATOM     23  F   UNL     1      35.486 -16.885 -26.215  0.00  0.00    -0.204 F 
ATOM     24  O   UNL     1      33.704 -14.015 -20.110  0.00  0.00    -0.270 OA
ATOM     25  N   UNL     1      34.249 -14.911 -22.172  0.00  0.00    -0.255 N 
ATOM     26  C   UNL     1      35.558 -16.701 -23.160  0.00  0.00    +0.025 C 
ATOM     27  C   UNL     1      35.137 -16.026 -21.820  0.00  0.00    +0.101 C 
ATOM     28  C   UNL     1      34.834 -15.864 -24.179  0.00  0.00    +0.018 C 
ATOM     29  C   UNL     1      34.113 -14.862 -23.552  0.00  0.00    +0.052 C 
ATOM     30  C   UNL     1      33.341 -13.922 -24.204  0.00  0.00    +0.014 C 
ATOM     31  C   UNL     1      34.800 -15.943 -25.558  0.00  0.00    +0.137 C 
ATOM     32  C   UNL     1      33.619 -14.017 -21.335  0.00  0.00    +0.253 C 
ATOM     33  C   UNL     1      33.299 -13.998 -25.593  0.00  0.00    +0.004 C 
ATOM     34  C   UNL     1      34.027 -15.004 -26.263  0.00  0.00    +0.029 C 
ATOM     35  C   UNL     1      32.649 -12.945 -23.370  0.00  0.00    +0.006 C 
ATOM     36  C   UNL     1      32.775 -12.986 -22.032  0.00  0.00    +0.058 C 
ENDBRANCH  22  26
ENDBRANCH   1  22
TORSDOF 5
ENDMDL
