MODEL 1
REMARK VINA RESULT:     -11.8      0.000      0.000
REMARK  Name = 24883488
REMARK  8 active torsions:
REMARK  status: ('A' for Active; 'I' for Inactive)
REMARK    1  A    between atoms: N_2  and  C_11
REMARK    2  A    between atoms: C_3  and  C_19
REMARK    3  A    between atoms: C_19  and  C_20
REMARK    4  A    between atoms: C_20  and  C_23
REMARK    5  A    between atoms: N_22  and  C_25
REMARK    6  A    between atoms: C_27  and  O_31
REMARK    7  A    between atoms: O_31  and  C_32
REMARK    8  A    between atoms: C_32  and  C_34
REMARK                            x       y       z     vdW  Elec       q    Type
REMARK                         _______ _______ _______ _____ _____    ______ ____
ROOT
ATOM      1  O   UNL     1      34.313 -18.360 -24.767  0.00  0.00    -0.275 OA
ATOM      2  N   UNL     1      35.901 -17.543 -23.233  0.00  0.00    -0.284 N 
ATOM      3  C   UNL     1      35.101 -17.502 -24.381  0.00  0.00    +0.227 C 
ATOM      4  H   UNL     1      36.496 -16.770 -23.096  0.00  0.00    +0.155 HD
ENDROOT
BRANCH   2  11
ATOM      5  O   UNL     1      32.546 -20.621 -20.916  0.00  0.00    -0.282 OA
ATOM      6  O   UNL     1      37.267 -21.898 -18.781  0.00  0.00    -0.270 OA
ATOM      7  O   UNL     1      32.695 -22.514 -19.064  0.00  0.00    -0.266 OA
ATOM      8  N   UNL     1      34.992 -22.208 -18.915  0.00  0.00    -0.246 N 
ATOM      9  C   UNL     1      34.872 -20.194 -20.878  0.00  0.00    +0.049 C 
ATOM     10  C   UNL     1      36.097 -20.541 -20.310  0.00  0.00    +0.057 C 
ATOM     11  C   UNL     1      35.966 -18.540 -22.259  0.00  0.00    +0.050 C 
ATOM     12  C   UNL     1      34.802 -19.193 -21.853  0.00  0.00    +0.018 C 
ATOM     13  C   UNL     1      37.262 -19.881 -20.721  0.00  0.00    +0.006 C 
ATOM     14  C   UNL     1      37.193 -18.883 -21.695  0.00  0.00    +0.015 C 
ATOM     15  C   UNL     1      33.645 -20.881 -20.452  0.00  0.00    +0.249 C 
ATOM     16  C   UNL     1      36.186 -21.595 -19.278  0.00  0.00    +0.252 C 
ATOM     17  C   UNL     1      33.725 -21.951 -19.406  0.00  0.00    +0.291 C 
ATOM     18  H   UNL     1      35.057 -22.910 -18.228  0.00  0.00    +0.158 HD
ENDBRANCH   2  11
BRANCH   3  19
ATOM     19  C   UNL     1      35.323 -16.238 -25.196  0.00  0.00    +0.095 C 
BRANCH  19  20
ATOM     20  C   UNL     1      34.147 -15.275 -25.056  0.00  0.00    +0.095 C 
BRANCH  20  23
ATOM     21  O   UNL     1      35.243 -14.451 -23.097  0.00  0.00    -0.275 OA
ATOM     22  N   UNL     1      32.960 -13.985 -23.403  0.00  0.00    -0.284 N 
ATOM     23  C   UNL     1      34.194 -14.534 -23.729  0.00  0.00    +0.227 C 
ATOM     24  H   UNL     1      32.232 -14.138 -24.049  0.00  0.00    +0.155 HD
BRANCH  22  25
ATOM     25  C   UNL     1      32.624 -13.233 -22.255  0.00  0.00    +0.053 C 
ATOM     26  C   UNL     1      32.310 -11.879 -22.374  0.00  0.00    +0.052 C 
ATOM     27  C   UNL     1      31.980 -11.136 -21.241  0.00  0.00    +0.140 C 
ATOM     28  C   UNL     1      32.608 -13.844 -21.001  0.00  0.00    +0.015 C 
ATOM     29  C   UNL     1      31.963 -11.748 -19.987  0.00  0.00    +0.037 C 
ATOM     30  C   UNL     1      32.277 -13.102 -19.867  0.00  0.00    +0.004 C 
BRANCH  27  31
ATOM     31  O   UNL     1      31.673  -9.815 -21.357  0.00  0.00    -0.472 OA
BRANCH  31  32
ATOM     32  C   UNL     1      32.404  -9.062 -22.324  0.00  0.00    +0.243 C 
BRANCH  32  34
ATOM     33  F   UNL     1      33.501  -8.050 -20.527  0.00  0.00    -0.230 F 
ATOM     34  C   UNL     1      32.855  -7.765 -21.692  0.00  0.00    +0.240 C 
ENDBRANCH  32  34
ENDBRANCH  31  32
ENDBRANCH  27  31
ENDBRANCH  22  25
ENDBRANCH  20  23
ENDBRANCH  19  20
ENDBRANCH   3  19
TORSDOF 8
ENDMDL
MODEL 2
REMARK VINA RESULT:     -11.7      4.432      7.466
REMARK  Name = 24883488
REMARK  8 active torsions:
REMARK  status: ('A' for Active; 'I' for Inactive)
REMARK    1  A    between atoms: N_2  and  C_11
REMARK    2  A    between atoms: C_3  and  C_19
REMARK    3  A    between atoms: C_19  and  C_20
REMARK    4  A    between atoms: C_20  and  C_23
REMARK    5  A    between atoms: N_22  and  C_25
REMARK    6  A    between atoms: C_27  and  O_31
REMARK    7  A    between atoms: O_31  and  C_32
REMARK    8  A    between atoms: C_32  and  C_34
REMARK                            x       y       z     vdW  Elec       q    Type
REMARK                         _______ _______ _______ _____ _____    ______ ____
ROOT
ATOM      1  O   UNL     1      33.805 -24.172 -18.017  0.00  0.00    -0.275 OA
ATOM      2  N   UNL     1      35.216 -22.399 -17.376  0.00  0.00    -0.284 N 
ATOM      3  C   UNL     1      34.221 -23.024 -18.138  0.00  0.00    +0.227 C 
ATOM      4  H   UNL     1      35.439 -21.476 -17.635  0.00  0.00    +0.155 HD
ENDROOT
BRANCH   2  11
ATOM      5  O   UNL     1      34.048 -24.300 -12.780  0.00  0.00    -0.282 OA
ATOM      6  O   UNL     1      39.370 -24.583 -13.060  0.00  0.00    -0.270 OA
ATOM      7  O   UNL     1      35.433 -25.284 -10.743  0.00  0.00    -0.266 OA
ATOM      8  N   UNL     1      37.415 -24.933 -11.900  0.00  0.00    -0.246 N 
ATOM      9  C   UNL     1      35.978 -23.882 -14.080  0.00  0.00    +0.049 C 
ATOM     10  C   UNL     1      37.370 -23.963 -14.137  0.00  0.00    +0.057 C 
ATOM     11  C   UNL     1      35.932 -22.919 -16.297  0.00  0.00    +0.050 C 
ATOM     12  C   UNL     1      35.256 -23.359 -15.159  0.00  0.00    +0.018 C 
ATOM     13  C   UNL     1      38.043 -23.519 -15.282  0.00  0.00    +0.006 C 
ATOM     14  C   UNL     1      37.322 -22.999 -16.359  0.00  0.00    +0.015 C 
ATOM     15  C   UNL     1      35.264 -24.345 -12.884  0.00  0.00    +0.249 C 
ATOM     16  C   UNL     1      38.145 -24.512 -13.005  0.00  0.00    +0.252 C 
ATOM     17  C   UNL     1      36.043 -24.903 -11.731  0.00  0.00    +0.291 C 
ATOM     18  H   UNL     1      37.936 -25.298 -11.149  0.00  0.00    +0.158 HD
ENDBRANCH   2  11
BRANCH   3  19
ATOM     19  C   UNL     1      33.680 -22.120 -19.234  0.00  0.00    +0.095 C 
BRANCH  19  20
ATOM     20  C   UNL     1      34.807 -21.369 -19.939  0.00  0.00    +0.095 C 
BRANCH  20  23
ATOM     21  O   UNL     1      33.056 -20.248 -21.119  0.00  0.00    -0.275 OA
ATOM     22  N   UNL     1      35.286 -19.841 -21.739  0.00  0.00    -0.284 N 
ATOM     23  C   UNL     1      34.264 -20.431 -21.005  0.00  0.00    +0.227 C 
ATOM     24  H   UNL     1      36.204 -20.095 -21.487  0.00  0.00    +0.155 HD
BRANCH  22  25
ATOM     25  C   UNL     1      35.165 -18.920 -22.804  0.00  0.00    +0.053 C 
ATOM     26  C   UNL     1      35.477 -17.575 -22.603  0.00  0.00    +0.052 C 
ATOM     27  C   UNL     1      35.357 -16.666 -23.654  0.00  0.00    +0.140 C 
ATOM     28  C   UNL     1      34.733 -19.356 -24.056  0.00  0.00    +0.015 C 
ATOM     29  C   UNL     1      34.925 -17.103 -24.907  0.00  0.00    +0.037 C 
ATOM     30  C   UNL     1      34.613 -18.448 -25.109  0.00  0.00    +0.004 C 
BRANCH  27  31
ATOM     31  O   UNL     1      35.661 -15.355 -23.459  0.00  0.00    -0.472 OA
BRANCH  31  32
ATOM     32  C   UNL     1      34.596 -14.415 -23.591  0.00  0.00    +0.243 C 
BRANCH  32  34
ATOM     33  F   UNL     1      34.963 -14.361 -21.285  0.00  0.00    -0.230 F 
ATOM     34  C   UNL     1      33.999 -14.158 -22.226  0.00  0.00    +0.240 C 
ENDBRANCH  32  34
ENDBRANCH  31  32
ENDBRANCH  27  31
ENDBRANCH  22  25
ENDBRANCH  20  23
ENDBRANCH  19  20
ENDBRANCH   3  19
TORSDOF 8
ENDMDL
MODEL 3
REMARK VINA RESULT:     -11.6      4.896     10.891
REMARK  Name = 24883488
REMARK  8 active torsions:
REMARK  status: ('A' for Active; 'I' for Inactive)
REMARK    1  A    between atoms: N_2  and  C_11
REMARK    2  A    between atoms: C_3  and  C_19
REMARK    3  A    between atoms: C_19  and  C_20
REMARK    4  A    between atoms: C_20  and  C_23
REMARK    5  A    between atoms: N_22  and  C_25
REMARK    6  A    between atoms: C_27  and  O_31
REMARK    7  A    between atoms: O_31  and  C_32
REMARK    8  A    between atoms: C_32  and  C_34
REMARK                            x       y       z     vdW  Elec       q    Type
REMARK                         _______ _______ _______ _____ _____    ______ ____
ROOT
ATOM      1  O   UNL     1      37.994 -18.669 -21.896  0.00  0.00    -0.275 OA
ATOM      2  N   UNL     1      35.704 -18.457 -21.395  0.00  0.00    -0.284 N 
ATOM      3  C   UNL     1      36.970 -19.053 -21.340  0.00  0.00    +0.227 C 
ATOM      4  H   UNL     1      34.989 -18.921 -20.903  0.00  0.00    +0.155 HD
ENDROOT
BRANCH   2  11
ATOM      5  O   UNL     1      34.619 -17.171 -26.219  0.00  0.00    -0.282 OA
ATOM      6  O   UNL     1      34.023 -12.656 -23.437  0.00  0.00    -0.270 OA
ATOM      7  O   UNL     1      33.900 -14.937 -27.455  0.00  0.00    -0.266 OA
ATOM      8  N   UNL     1      33.961 -13.784 -25.441  0.00  0.00    -0.246 N 
ATOM      9  C   UNL     1      34.726 -16.135 -24.096  0.00  0.00    +0.049 C 
ATOM     10  C   UNL     1      34.565 -14.947 -23.384  0.00  0.00    +0.057 C 
ATOM     11  C   UNL     1      35.326 -17.289 -22.058  0.00  0.00    +0.050 C 
ATOM     12  C   UNL     1      35.107 -17.309 -23.435  0.00  0.00    +0.018 C 
ATOM     13  C   UNL     1      34.787 -14.932 -22.002  0.00  0.00    +0.006 C 
ATOM     14  C   UNL     1      35.166 -16.103 -21.342  0.00  0.00    +0.015 C 
ATOM     15  C   UNL     1      34.495 -16.160 -25.546  0.00  0.00    +0.249 C 
ATOM     16  C   UNL     1      34.164 -13.700 -24.068  0.00  0.00    +0.252 C 
ATOM     17  C   UNL     1      34.089 -14.900 -26.248  0.00  0.00    +0.291 C 
ATOM     18  H   UNL     1      33.694 -12.951 -25.892  0.00  0.00    +0.158 HD
ENDBRANCH   2  11
BRANCH   3  19
ATOM     19  C   UNL     1      36.973 -20.326 -20.510  0.00  0.00    +0.095 C 
BRANCH  19  20
ATOM     20  C   UNL     1      35.567 -20.905 -20.377  0.00  0.00    +0.095 C 
BRANCH  20  23
ATOM     21  O   UNL     1      34.977 -23.089 -19.607  0.00  0.00    -0.275 OA
ATOM     22  N   UNL     1      36.180 -21.665 -18.175  0.00  0.00    -0.284 N 
ATOM     23  C   UNL     1      35.523 -22.021 -19.347  0.00  0.00    +0.227 C 
ATOM     24  H   UNL     1      36.579 -20.765 -18.158  0.00  0.00    +0.155 HD
BRANCH  22  25
ATOM     25  C   UNL     1      36.343 -22.442 -17.006  0.00  0.00    +0.053 C 
ATOM     26  C   UNL     1      37.619 -22.837 -16.603  0.00  0.00    +0.052 C 
ATOM     27  C   UNL     1      37.780 -23.604 -15.449  0.00  0.00    +0.140 C 
ATOM     28  C   UNL     1      35.229 -22.813 -16.254  0.00  0.00    +0.015 C 
ATOM     29  C   UNL     1      36.664 -23.975 -14.697  0.00  0.00    +0.037 C 
ATOM     30  C   UNL     1      35.389 -23.579 -15.099  0.00  0.00    +0.004 C 
BRANCH  27  31
ATOM     31  O   UNL     1      39.024 -23.990 -15.056  0.00  0.00    -0.472 OA
BRANCH  31  32
ATOM     32  C   UNL     1      39.344 -25.375 -15.181  0.00  0.00    +0.243 C 
BRANCH  32  34
ATOM     33  F   UNL     1      41.173 -26.335 -14.092  0.00  0.00    -0.230 F 
ATOM     34  C   UNL     1      39.915 -25.865 -13.870  0.00  0.00    +0.240 C 
ENDBRANCH  32  34
ENDBRANCH  31  32
ENDBRANCH  27  31
ENDBRANCH  22  25
ENDBRANCH  20  23
ENDBRANCH  19  20
ENDBRANCH   3  19
TORSDOF 8
ENDMDL
MODEL 4
REMARK VINA RESULT:     -11.6      1.478      2.075
REMARK  Name = 24883488
REMARK  8 active torsions:
REMARK  status: ('A' for Active; 'I' for Inactive)
REMARK    1  A    between atoms: N_2  and  C_11
REMARK    2  A    between atoms: C_3  and  C_19
REMARK    3  A    between atoms: C_19  and  C_20
REMARK    4  A    between atoms: C_20  and  C_23
REMARK    5  A    between atoms: N_22  and  C_25
REMARK    6  A    between atoms: C_27  and  O_31
REMARK    7  A    between atoms: O_31  and  C_32
REMARK    8  A    between atoms: C_32  and  C_34
REMARK                            x       y       z     vdW  Elec       q    Type
REMARK                         _______ _______ _______ _____ _____    ______ ____
ROOT
ATOM      1  O   UNL     1      34.510 -19.156 -24.906  0.00  0.00    -0.275 OA
ATOM      2  N   UNL     1      35.582 -17.921 -23.212  0.00  0.00    -0.284 N 
ATOM      3  C   UNL     1      34.986 -18.115 -24.464  0.00  0.00    +0.227 C 
ATOM      4  H   UNL     1      35.932 -17.018 -23.038  0.00  0.00    +0.155 HD
ENDROOT
BRANCH   2  11
ATOM      5  O   UNL     1      32.535 -21.137 -20.666  0.00  0.00    -0.282 OA
ATOM      6  O   UNL     1      37.368 -21.850 -18.519  0.00  0.00    -0.270 OA
ATOM      7  O   UNL     1      32.868 -22.890 -18.703  0.00  0.00    -0.266 OA
ATOM      8  N   UNL     1      35.129 -22.371 -18.604  0.00  0.00    -0.246 N 
ATOM      9  C   UNL     1      34.813 -20.502 -20.685  0.00  0.00    +0.049 C 
ATOM     10  C   UNL     1      36.069 -20.702 -20.112  0.00  0.00    +0.057 C 
ATOM     11  C   UNL     1      35.743 -18.846 -22.179  0.00  0.00    +0.050 C 
ATOM     12  C   UNL     1      34.646 -19.574 -21.718  0.00  0.00    +0.018 C 
ATOM     13  C   UNL     1      37.166 -19.967 -20.578  0.00  0.00    +0.006 C 
ATOM     14  C   UNL     1      37.000 -19.042 -21.611  0.00  0.00    +0.015 C 
ATOM     15  C   UNL     1      33.656 -21.268 -20.202  0.00  0.00    +0.249 C 
ATOM     16  C   UNL     1      36.260 -21.677 -19.019  0.00  0.00    +0.252 C 
ATOM     17  C   UNL     1      33.841 -22.260 -19.093  0.00  0.00    +0.291 C 
ATOM     18  H   UNL     1      35.262 -23.020 -17.876  0.00  0.00    +0.158 HD
ENDBRANCH   2  11
BRANCH   3  19
ATOM     19  C   UNL     1      35.006 -16.855 -25.314  0.00  0.00    +0.095 C 
BRANCH  19  20
ATOM     20  C   UNL     1      35.384 -15.632 -24.482  0.00  0.00    +0.095 C 
BRANCH  20  23
ATOM     21  O   UNL     1      33.350 -14.671 -25.293  0.00  0.00    -0.275 OA
ATOM     22  N   UNL     1      34.451 -13.645 -23.488  0.00  0.00    -0.284 N 
ATOM     23  C   UNL     1      34.274 -14.594 -24.488  0.00  0.00    +0.227 C 
ATOM     24  H   UNL     1      35.246 -13.759 -22.919  0.00  0.00    +0.155 HD
BRANCH  22  25
ATOM     25  C   UNL     1      33.625 -12.537 -23.191  0.00  0.00    +0.053 C 
ATOM     26  C   UNL     1      32.652 -12.639 -22.196  0.00  0.00    +0.052 C 
ATOM     27  C   UNL     1      31.837 -11.545 -21.903  0.00  0.00    +0.140 C 
ATOM     28  C   UNL     1      33.783 -11.342 -23.892  0.00  0.00    +0.015 C 
ATOM     29  C   UNL     1      31.996 -10.349 -22.605  0.00  0.00    +0.037 C 
ATOM     30  C   UNL     1      32.969 -10.248 -23.600  0.00  0.00    +0.004 C 
BRANCH  27  31
ATOM     31  O   UNL     1      30.888 -11.643 -20.934  0.00  0.00    -0.472 OA
BRANCH  31  32
ATOM     32  C   UNL     1      30.970 -10.720 -19.849  0.00  0.00    +0.243 C 
BRANCH  32  34
ATOM     33  F   UNL     1      31.902 -12.694 -19.018  0.00  0.00    -0.230 F 
ATOM     34  C   UNL     1      31.646 -11.400 -18.680  0.00  0.00    +0.240 C 
ENDBRANCH  32  34
ENDBRANCH  31  32
ENDBRANCH  27  31
ENDBRANCH  22  25
ENDBRANCH  20  23
ENDBRANCH  19  20
ENDBRANCH   3  19
TORSDOF 8
ENDMDL
MODEL 5
REMARK VINA RESULT:     -11.6      4.298     10.045
REMARK  Name = 24883488
REMARK  8 active torsions:
REMARK  status: ('A' for Active; 'I' for Inactive)
REMARK    1  A    between atoms: N_2  and  C_11
REMARK    2  A    between atoms: C_3  and  C_19
REMARK    3  A    between atoms: C_19  and  C_20
REMARK    4  A    between atoms: C_20  and  C_23
REMARK    5  A    between atoms: N_22  and  C_25
REMARK    6  A    between atoms: C_27  and  O_31
REMARK    7  A    between atoms: O_31  and  C_32
REMARK    8  A    between atoms: C_32  and  C_34
REMARK                            x       y       z     vdW  Elec       q    Type
REMARK                         _______ _______ _______ _____ _____    ______ ____
ROOT
ATOM      1  O   UNL     1      34.207 -19.986 -21.323  0.00  0.00    -0.275 OA
ATOM      2  N   UNL     1      36.049 -18.523 -21.428  0.00  0.00    -0.284 N 
ATOM      3  C   UNL     1      35.388 -19.719 -21.123  0.00  0.00    +0.227 C 
ATOM      4  H   UNL     1      36.998 -18.478 -21.170  0.00  0.00    +0.155 HD
ENDROOT
BRANCH   2  11
ATOM      5  O   UNL     1      34.800 -17.214 -26.206  0.00  0.00    -0.282 OA
ATOM      6  O   UNL     1      33.690 -12.895 -23.275  0.00  0.00    -0.270 OA
ATOM      7  O   UNL     1      33.819 -15.040 -27.367  0.00  0.00    -0.266 OA
ATOM      8  N   UNL     1      33.753 -13.956 -25.315  0.00  0.00    -0.246 N 
ATOM      9  C   UNL     1      34.794 -16.244 -24.050  0.00  0.00    +0.049 C 
ATOM     10  C   UNL     1      34.498 -15.107 -23.299  0.00  0.00    +0.057 C 
ATOM     11  C   UNL     1      35.534 -17.386 -22.052  0.00  0.00    +0.050 C 
ATOM     12  C   UNL     1      35.313 -17.386 -23.429  0.00  0.00    +0.018 C 
ATOM     13  C   UNL     1      34.722 -15.112 -21.917  0.00  0.00    +0.006 C 
ATOM     14  C   UNL     1      35.239 -16.252 -21.297  0.00  0.00    +0.015 C 
ATOM     15  C   UNL     1      34.562 -16.247 -25.500  0.00  0.00    +0.249 C 
ATOM     16  C   UNL     1      33.950 -13.893 -23.940  0.00  0.00    +0.252 C 
ATOM     17  C   UNL     1      34.007 -15.021 -26.160  0.00  0.00    +0.291 C 
ATOM     18  H   UNL     1      33.388 -13.145 -25.738  0.00  0.00    +0.158 HD
ENDBRANCH   2  11
BRANCH   3  19
ATOM     19  C   UNL     1      36.300 -20.724 -20.438  0.00  0.00    +0.095 C 
BRANCH  19  20
ATOM     20  C   UNL     1      35.590 -22.057 -20.220  0.00  0.00    +0.095 C 
BRANCH  20  23
ATOM     21  O   UNL     1      36.200 -22.083 -17.909  0.00  0.00    -0.275 OA
ATOM     22  N   UNL     1      34.038 -22.772 -18.522  0.00  0.00    -0.284 N 
ATOM     23  C   UNL     1      35.330 -22.311 -18.745  0.00  0.00    +0.227 C 
ATOM     24  H   UNL     1      33.470 -22.874 -19.320  0.00  0.00    +0.155 HD
BRANCH  22  25
ATOM     25  C   UNL     1      33.442 -23.112 -17.286  0.00  0.00    +0.053 C 
ATOM     26  C   UNL     1      32.111 -22.778 -17.038  0.00  0.00    +0.052 C 
ATOM     27  C   UNL     1      31.522 -23.113 -15.818  0.00  0.00    +0.140 C 
ATOM     28  C   UNL     1      34.185 -23.782 -16.314  0.00  0.00    +0.015 C 
ATOM     29  C   UNL     1      32.267 -23.783 -14.846  0.00  0.00    +0.037 C 
ATOM     30  C   UNL     1      33.598 -24.118 -15.095  0.00  0.00    +0.004 C 
BRANCH  27  31
ATOM     31  O   UNL     1      30.224 -22.787 -15.576  0.00  0.00    -0.472 OA
BRANCH  31  32
ATOM     32  C   UNL     1      29.312 -22.901 -16.667  0.00  0.00    +0.243 C 
BRANCH  32  34
ATOM     33  F   UNL     1      28.787 -24.793 -15.401  0.00  0.00    -0.230 F 
ATOM     34  C   UNL     1      28.722 -24.293 -16.667  0.00  0.00    +0.240 C 
ENDBRANCH  32  34
ENDBRANCH  31  32
ENDBRANCH  27  31
ENDBRANCH  22  25
ENDBRANCH  20  23
ENDBRANCH  19  20
ENDBRANCH   3  19
TORSDOF 8
ENDMDL
MODEL 6
REMARK VINA RESULT:     -11.5      4.238     10.109
REMARK  Name = 24883488
REMARK  8 active torsions:
REMARK  status: ('A' for Active; 'I' for Inactive)
REMARK    1  A    between atoms: N_2  and  C_11
REMARK    2  A    between atoms: C_3  and  C_19
REMARK    3  A    between atoms: C_19  and  C_20
REMARK    4  A    between atoms: C_20  and  C_23
REMARK    5  A    between atoms: N_22  and  C_25
REMARK    6  A    between atoms: C_27  and  O_31
REMARK    7  A    between atoms: O_31  and  C_32
REMARK    8  A    between atoms: C_32  and  C_34
REMARK                            x       y       z     vdW  Elec       q    Type
REMARK                         _______ _______ _______ _____ _____    ______ ____
ROOT
ATOM      1  O   UNL     1      34.182 -20.074 -21.466  0.00  0.00    -0.275 OA
ATOM      2  N   UNL     1      36.050 -18.788 -22.096  0.00  0.00    -0.284 N 
ATOM      3  C   UNL     1      35.375 -19.796 -21.398  0.00  0.00    +0.227 C 
ATOM      4  H   UNL     1      37.009 -18.693 -21.895  0.00  0.00    +0.155 HD
ENDROOT
BRANCH   2  11
ATOM      5  O   UNL     1      34.905 -13.810 -22.198  0.00  0.00    -0.282 OA
ATOM      6  O   UNL     1      33.688 -15.588 -27.080  0.00  0.00    -0.270 OA
ATOM      7  O   UNL     1      33.930 -12.139 -24.013  0.00  0.00    -0.266 OA
ATOM      8  N   UNL     1      33.804 -13.867 -25.558  0.00  0.00    -0.246 N 
ATOM      9  C   UNL     1      34.836 -15.669 -23.658  0.00  0.00    +0.049 C 
ATOM     10  C   UNL     1      34.513 -16.117 -24.939  0.00  0.00    +0.057 C 
ATOM     11  C   UNL     1      35.537 -17.898 -23.041  0.00  0.00    +0.050 C 
ATOM     12  C   UNL     1      35.348 -16.558 -22.706  0.00  0.00    +0.018 C 
ATOM     13  C   UNL     1      34.704 -17.463 -25.269  0.00  0.00    +0.006 C 
ATOM     14  C   UNL     1      35.216 -18.351 -24.320  0.00  0.00    +0.015 C 
ATOM     15  C   UNL     1      34.638 -14.257 -23.302  0.00  0.00    +0.249 C 
ATOM     16  C   UNL     1      33.970 -15.190 -25.954  0.00  0.00    +0.252 C 
ATOM     17  C   UNL     1      34.088 -13.310 -24.325  0.00  0.00    +0.291 C 
ATOM     18  H   UNL     1      33.443 -13.254 -26.238  0.00  0.00    +0.158 HD
ENDBRANCH   2  11
BRANCH   3  19
ATOM     19  C   UNL     1      36.290 -20.554 -20.450  0.00  0.00    +0.095 C 
BRANCH  19  20
ATOM     20  C   UNL     1      35.788 -21.977 -20.216  0.00  0.00    +0.095 C 
BRANCH  20  23
ATOM     21  O   UNL     1      36.357 -21.945 -17.894  0.00  0.00    -0.275 OA
ATOM     22  N   UNL     1      34.251 -22.766 -18.537  0.00  0.00    -0.284 N 
ATOM     23  C   UNL     1      35.518 -22.232 -18.742  0.00  0.00    +0.227 C 
ATOM     24  H   UNL     1      33.705 -22.909 -19.344  0.00  0.00    +0.155 HD
BRANCH  22  25
ATOM     25  C   UNL     1      33.655 -23.129 -17.308  0.00  0.00    +0.053 C 
ATOM     26  C   UNL     1      32.311 -22.837 -17.071  0.00  0.00    +0.052 C 
ATOM     27  C   UNL     1      31.722 -23.195 -15.858  0.00  0.00    +0.140 C 
ATOM     28  C   UNL     1      34.409 -23.780 -16.332  0.00  0.00    +0.015 C 
ATOM     29  C   UNL     1      32.478 -23.846 -14.882  0.00  0.00    +0.037 C 
ATOM     30  C   UNL     1      33.821 -24.139 -15.119  0.00  0.00    +0.004 C 
BRANCH  27  31
ATOM     31  O   UNL     1      30.412 -22.909 -15.627  0.00  0.00    -0.472 OA
BRANCH  31  32
ATOM     32  C   UNL     1      29.542 -22.895 -16.757  0.00  0.00    +0.243 C 
BRANCH  32  34
ATOM     33  F   UNL     1      28.761 -24.668 -15.452  0.00  0.00    -0.230 F 
ATOM     34  C   UNL     1      28.617 -24.088 -16.676  0.00  0.00    +0.240 C 
ENDBRANCH  32  34
ENDBRANCH  31  32
ENDBRANCH  27  31
ENDBRANCH  22  25
ENDBRANCH  20  23
ENDBRANCH  19  20
ENDBRANCH   3  19
TORSDOF 8
ENDMDL
MODEL 7
REMARK VINA RESULT:     -11.3      3.664      6.758
REMARK  Name = 24883488
REMARK  8 active torsions:
REMARK  status: ('A' for Active; 'I' for Inactive)
REMARK    1  A    between atoms: N_2  and  C_11
REMARK    2  A    between atoms: C_3  and  C_19
REMARK    3  A    between atoms: C_19  and  C_20
REMARK    4  A    between atoms: C_20  and  C_23
REMARK    5  A    between atoms: N_22  and  C_25
REMARK    6  A    between atoms: C_27  and  O_31
REMARK    7  A    between atoms: O_31  and  C_32
REMARK    8  A    between atoms: C_32  and  C_34
REMARK                            x       y       z     vdW  Elec       q    Type
REMARK                         _______ _______ _______ _____ _____    ______ ____
ROOT
ATOM      1  O   UNL     1      33.636 -21.306 -19.600  0.00  0.00    -0.275 OA
ATOM      2  N   UNL     1      34.959 -22.807 -18.359  0.00  0.00    -0.284 N 
ATOM      3  C   UNL     1      34.689 -21.899 -19.391  0.00  0.00    +0.227 C 
ATOM      4  H   UNL     1      35.858 -23.207 -18.363  0.00  0.00    +0.155 HD
ENDROOT
BRANCH   2  11
ATOM      5  O   UNL     1      29.935 -22.630 -17.445  0.00  0.00    -0.282 OA
ATOM      6  O   UNL     1      32.015 -25.049 -13.167  0.00  0.00    -0.270 OA
ATOM      7  O   UNL     1      28.353 -23.422 -15.469  0.00  0.00    -0.266 OA
ATOM      8  N   UNL     1      30.188 -24.240 -14.306  0.00  0.00    -0.246 N 
ATOM      9  C   UNL     1      31.898 -23.412 -16.383  0.00  0.00    +0.049 C 
ATOM     10  C   UNL     1      32.425 -24.046 -15.258  0.00  0.00    +0.057 C 
ATOM     11  C   UNL     1      34.115 -23.218 -17.327  0.00  0.00    +0.050 C 
ATOM     12  C   UNL     1      32.741 -22.996 -17.420  0.00  0.00    +0.018 C 
ATOM     13  C   UNL     1      33.805 -24.266 -15.170  0.00  0.00    +0.006 C 
ATOM     14  C   UNL     1      34.646 -23.852 -16.205  0.00  0.00    +0.015 C 
ATOM     15  C   UNL     1      30.452 -23.178 -16.484  0.00  0.00    +0.249 C 
ATOM     16  C   UNL     1      31.547 -24.490 -14.155  0.00  0.00    +0.252 C 
ATOM     17  C   UNL     1      29.554 -23.624 -15.369  0.00  0.00    +0.291 C 
ATOM     18  H   UNL     1      29.608 -24.537 -13.569  0.00  0.00    +0.158 HD
ENDBRANCH   2  11
BRANCH   3  19
ATOM     19  C   UNL     1      35.875 -21.717 -20.324  0.00  0.00    +0.095 C 
BRANCH  19  20
ATOM     20  C   UNL     1      36.681 -20.473 -19.961  0.00  0.00    +0.095 C 
BRANCH  20  23
ATOM     21  O   UNL     1      37.883 -19.039 -21.448  0.00  0.00    -0.275 OA
ATOM     22  N   UNL     1      35.578 -19.348 -21.783  0.00  0.00    -0.284 N 
ATOM     23  C   UNL     1      36.798 -19.525 -21.143  0.00  0.00    +0.227 C 
ATOM     24  H   UNL     1      34.814 -19.842 -21.405  0.00  0.00    +0.155 HD
BRANCH  22  25
ATOM     25  C   UNL     1      35.302 -18.544 -22.913  0.00  0.00    +0.053 C 
ATOM     26  C   UNL     1      35.547 -17.171 -22.869  0.00  0.00    +0.052 C 
ATOM     27  C   UNL     1      35.275 -16.378 -23.983  0.00  0.00    +0.140 C 
ATOM     28  C   UNL     1      34.785 -19.123 -24.071  0.00  0.00    +0.015 C 
ATOM     29  C   UNL     1      34.758 -16.958 -25.142  0.00  0.00    +0.037 C 
ATOM     30  C   UNL     1      34.513 -18.331 -25.186  0.00  0.00    +0.004 C 
BRANCH  27  31
ATOM     31  O   UNL     1      35.513 -15.039 -23.941  0.00  0.00    -0.472 OA
BRANCH  31  32
ATOM     32  C   UNL     1      34.514 -14.220 -23.336  0.00  0.00    +0.243 C 
BRANCH  32  34
ATOM     33  F   UNL     1      32.989 -14.132 -25.104  0.00  0.00    -0.230 F 
ATOM     34  C   UNL     1      33.872 -13.365 -24.405  0.00  0.00    +0.240 C 
ENDBRANCH  32  34
ENDBRANCH  31  32
ENDBRANCH  27  31
ENDBRANCH  22  25
ENDBRANCH  20  23
ENDBRANCH  19  20
ENDBRANCH   3  19
TORSDOF 8
ENDMDL
MODEL 8
REMARK VINA RESULT:     -11.3      3.123      9.478
REMARK  Name = 24883488
REMARK  8 active torsions:
REMARK  status: ('A' for Active; 'I' for Inactive)
REMARK    1  A    between atoms: N_2  and  C_11
REMARK    2  A    between atoms: C_3  and  C_19
REMARK    3  A    between atoms: C_19  and  C_20
REMARK    4  A    between atoms: C_20  and  C_23
REMARK    5  A    between atoms: N_22  and  C_25
REMARK    6  A    between atoms: C_27  and  O_31
REMARK    7  A    between atoms: O_31  and  C_32
REMARK    8  A    between atoms: C_32  and  C_34
REMARK                            x       y       z     vdW  Elec       q    Type
REMARK                         _______ _______ _______ _____ _____    ______ ____
ROOT
ATOM      1  O   UNL     1      33.507 -15.320 -26.500  0.00  0.00    -0.275 OA
ATOM      2  N   UNL     1      34.349 -15.020 -24.322  0.00  0.00    -0.284 N 
ATOM      3  C   UNL     1      34.134 -15.711 -25.521  0.00  0.00    +0.227 C 
ATOM      4  H   UNL     1      34.857 -15.504 -23.632  0.00  0.00    +0.155 HD
ENDROOT
BRANCH   2  11
ATOM      5  O   UNL     1      31.704 -12.919 -20.490  0.00  0.00    -0.282 OA
ATOM      6  O   UNL     1      32.969  -8.829 -23.677  0.00  0.00    -0.270 OA
ATOM      7  O   UNL     1      30.930 -10.460 -19.863  0.00  0.00    -0.266 OA
ATOM      8  N   UNL     1      31.951  -9.634 -21.778  0.00  0.00    -0.246 N 
ATOM      9  C   UNL     1      32.788 -12.229 -22.475  0.00  0.00    +0.049 C 
ATOM     10  C   UNL     1      33.110 -11.149 -23.297  0.00  0.00    +0.057 C 
ATOM     11  C   UNL     1      33.935 -13.732 -23.981  0.00  0.00    +0.050 C 
ATOM     12  C   UNL     1      33.198 -13.523 -22.815  0.00  0.00    +0.018 C 
ATOM     13  C   UNL     1      33.849 -11.365 -24.466  0.00  0.00    +0.006 C 
ATOM     14  C   UNL     1      34.261 -12.655 -24.805  0.00  0.00    +0.015 C 
ATOM     15  C   UNL     1      32.013 -12.012 -21.247  0.00  0.00    +0.249 C 
ATOM     16  C   UNL     1      32.682  -9.777 -22.951  0.00  0.00    +0.252 C 
ATOM     17  C   UNL     1      31.574 -10.624 -20.889  0.00  0.00    +0.291 C 
ATOM     18  H   UNL     1      31.668  -8.718 -21.552  0.00  0.00    +0.158 HD
ENDBRANCH   2  11
BRANCH   3  19
ATOM     19  C   UNL     1      34.747 -17.102 -25.503  0.00  0.00    +0.095 C 
BRANCH  19  20
ATOM     20  C   UNL     1      35.513 -17.354 -24.207  0.00  0.00    +0.095 C 
BRANCH  20  23
ATOM     21  O   UNL     1      34.833 -19.643 -24.313  0.00  0.00    -0.275 OA
ATOM     22  N   UNL     1      35.241 -18.675 -22.211  0.00  0.00    -0.284 N 
ATOM     23  C   UNL     1      35.143 -18.695 -23.597  0.00  0.00    +0.227 C 
ATOM     24  H   UNL     1      35.528 -17.823 -21.809  0.00  0.00    +0.155 HD
BRANCH  22  25
ATOM     25  C   UNL     1      34.977 -19.731 -21.309  0.00  0.00    +0.053 C 
ATOM     26  C   UNL     1      36.027 -20.342 -20.624  0.00  0.00    +0.052 C 
ATOM     27  C   UNL     1      35.767 -21.385 -19.734  0.00  0.00    +0.140 C 
ATOM     28  C   UNL     1      33.667 -20.162 -21.105  0.00  0.00    +0.015 C 
ATOM     29  C   UNL     1      34.455 -21.816 -19.530  0.00  0.00    +0.037 C 
ATOM     30  C   UNL     1      33.405 -21.204 -20.216  0.00  0.00    +0.004 C 
BRANCH  27  31
ATOM     31  O   UNL     1      36.791 -21.981 -19.066  0.00  0.00    -0.472 OA
BRANCH  31  32
ATOM     32  C   UNL     1      36.588 -22.256 -17.681  0.00  0.00    +0.243 C 
BRANCH  32  34
ATOM     33  F   UNL     1      38.105 -20.501 -17.410  0.00  0.00    -0.230 F 
ATOM     34  C   UNL     1      37.765 -21.716 -16.899  0.00  0.00    +0.240 C 
ENDBRANCH  32  34
ENDBRANCH  31  32
ENDBRANCH  27  31
ENDBRANCH  22  25
ENDBRANCH  20  23
ENDBRANCH  19  20
ENDBRANCH   3  19
TORSDOF 8
ENDMDL
MODEL 9
REMARK VINA RESULT:     -11.3      4.770     10.642
REMARK  Name = 24883488
REMARK  8 active torsions:
REMARK  status: ('A' for Active; 'I' for Inactive)
REMARK    1  A    between atoms: N_2  and  C_11
REMARK    2  A    between atoms: C_3  and  C_19
REMARK    3  A    between atoms: C_19  and  C_20
REMARK    4  A    between atoms: C_20  and  C_23
REMARK    5  A    between atoms: N_22  and  C_25
REMARK    6  A    between atoms: C_27  and  O_31
REMARK    7  A    between atoms: O_31  and  C_32
REMARK    8  A    between atoms: C_32  and  C_34
REMARK                            x       y       z     vdW  Elec       q    Type
REMARK                         _______ _______ _______ _____ _____    ______ ____
ROOT
ATOM      1  O   UNL     1      34.217 -19.949 -21.311  0.00  0.00    -0.275 OA
ATOM      2  N   UNL     1      36.051 -18.476 -21.419  0.00  0.00    -0.284 N 
ATOM      3  C   UNL     1      35.396 -19.674 -21.109  0.00  0.00    +0.227 C 
ATOM      4  H   UNL     1      36.999 -18.425 -21.159  0.00  0.00    +0.155 HD
ENDROOT
BRANCH   2  11
ATOM      5  O   UNL     1      34.837 -17.181 -26.209  0.00  0.00    -0.282 OA
ATOM      6  O   UNL     1      33.656 -12.872 -23.291  0.00  0.00    -0.270 OA
ATOM      7  O   UNL     1      33.846 -15.017 -27.381  0.00  0.00    -0.266 OA
ATOM      8  N   UNL     1      33.749 -13.933 -25.330  0.00  0.00    -0.246 N 
ATOM      9  C   UNL     1      34.800 -16.211 -24.053  0.00  0.00    +0.049 C 
ATOM     10  C   UNL     1      34.485 -15.076 -23.305  0.00  0.00    +0.057 C 
ATOM     11  C   UNL     1      35.532 -17.344 -22.048  0.00  0.00    +0.050 C 
ATOM     12  C   UNL     1      35.324 -17.347 -23.427  0.00  0.00    +0.018 C 
ATOM     13  C   UNL     1      34.696 -15.079 -21.922  0.00  0.00    +0.006 C 
ATOM     14  C   UNL     1      35.218 -16.213 -21.296  0.00  0.00    +0.015 C 
ATOM     15  C   UNL     1      34.582 -16.216 -25.505  0.00  0.00    +0.249 C 
ATOM     16  C   UNL     1      33.933 -13.868 -23.953  0.00  0.00    +0.252 C 
ATOM     17  C   UNL     1      34.022 -14.996 -26.171  0.00  0.00    +0.291 C 
ATOM     18  H   UNL     1      33.381 -13.126 -25.756  0.00  0.00    +0.158 HD
ENDBRANCH   2  11
BRANCH   3  19
ATOM     19  C   UNL     1      36.312 -20.672 -20.419  0.00  0.00    +0.095 C 
BRANCH  19  20
ATOM     20  C   UNL     1      35.609 -22.009 -20.199  0.00  0.00    +0.095 C 
BRANCH  20  23
ATOM     21  O   UNL     1      36.479 -22.187 -17.979  0.00  0.00    -0.275 OA
ATOM     22  N   UNL     1      34.244 -22.795 -18.376  0.00  0.00    -0.284 N 
ATOM     23  C   UNL     1      35.514 -22.347 -18.720  0.00  0.00    +0.227 C 
ATOM     24  H   UNL     1      33.586 -22.837 -19.108  0.00  0.00    +0.155 HD
BRANCH  22  25
ATOM     25  C   UNL     1      33.785 -23.198 -17.102  0.00  0.00    +0.053 C 
ATOM     26  C   UNL     1      34.678 -23.740 -16.177  0.00  0.00    +0.052 C 
ATOM     27  C   UNL     1      34.225 -24.138 -14.919  0.00  0.00    +0.140 C 
ATOM     28  C   UNL     1      32.438 -23.055 -16.769  0.00  0.00    +0.015 C 
ATOM     29  C   UNL     1      32.877 -23.994 -14.586  0.00  0.00    +0.037 C 
ATOM     30  C   UNL     1      31.984 -23.452 -15.511  0.00  0.00    +0.004 C 
BRANCH  27  31
ATOM     31  O   UNL     1      35.095 -24.666 -14.017  0.00  0.00    -0.472 OA
BRANCH  31  32
ATOM     32  C   UNL     1      34.901 -24.318 -12.647  0.00  0.00    +0.243 C 
BRANCH  32  34
ATOM     33  F   UNL     1      35.755 -24.720 -10.510  0.00  0.00    -0.230 F 
ATOM     34  C   UNL     1      36.035 -24.898 -11.831  0.00  0.00    +0.240 C 
ENDBRANCH  32  34
ENDBRANCH  31  32
ENDBRANCH  27  31
ENDBRANCH  22  25
ENDBRANCH  20  23
ENDBRANCH  19  20
ENDBRANCH   3  19
TORSDOF 8
ENDMDL
