MODEL 1
REMARK VINA RESULT:     -11.3      0.000      0.000
REMARK  Name = 100472
REMARK  3 active torsions:
REMARK  status: ('A' for Active; 'I' for Inactive)
REMARK    1  A    between atoms: C_1  and  C_13
REMARK    2  A    between atoms: C_2  and  C_7
REMARK    3  A    between atoms: C_13  and  C_16
REMARK                            x       y       z     vdW  Elec       q    Type
REMARK                         _______ _______ _______ _____ _____    ______ ____
ROOT
ATOM      1  C   UNL     1      35.264 -16.208 -22.764  0.00  0.00    -0.013 C 
ATOM      2  C   UNL     1      33.632 -14.155 -21.809  0.00  0.00    -0.000 C 
ATOM      3  C   UNL     1      34.625 -15.350 -23.660  0.00  0.00    -0.004 C 
ATOM      4  C   UNL     1      35.086 -16.039 -21.391  0.00  0.00    -0.004 C 
ATOM      5  C   UNL     1      33.810 -14.324 -23.183  0.00  0.00    -0.000 C 
ATOM      6  C   UNL     1      34.271 -15.013 -20.913  0.00  0.00    -0.000 C 
ENDROOT
BRANCH   2   7
ATOM      7  C   UNL     1      32.786 -13.091 -21.314  0.00  0.00    -0.000 C 
ATOM      8  C   UNL     1      32.551 -12.967 -19.945  0.00  0.00    -0.000 C 
ATOM      9  C   UNL     1      32.205 -12.191 -22.207  0.00  0.00    -0.000 C 
ATOM     10  C   UNL     1      31.736 -11.940 -19.468  0.00  0.00    +0.000 C 
ATOM     11  C   UNL     1      31.389 -11.164 -21.730  0.00  0.00    +0.000 C 
ATOM     12  C   UNL     1      31.155 -11.040 -20.360  0.00  0.00    +0.000 C 
ENDBRANCH   2   7
BRANCH   1  13
ATOM     13  C   UNL     1      36.136 -17.305 -23.274  0.00  0.00    +0.112 C 
BRANCH  13  16
ATOM     14  O   UNL     1      37.519 -18.670 -21.848  0.00  0.00    -0.274 OA
ATOM     15  N   UNL     1      35.202 -19.048 -21.905  0.00  0.00    -0.269 N 
ATOM     16  C   UNL     1      36.391 -18.416 -22.260  0.00  0.00    +0.232 C 
ATOM     17  H   UNL     1      34.384 -18.711 -22.337  0.00  0.00    +0.156 HD
ATOM     18  N   UNL     1      33.787 -20.584 -20.796  0.00  0.00    -0.229 NA
ATOM     19  C   UNL     1      35.032 -20.119 -20.995  0.00  0.00    +0.134 C 
ATOM     20  C   UNL     1      36.169 -20.600 -20.380  0.00  0.00    +0.034 C 
ATOM     21  C   UNL     1      36.013 -21.651 -19.484  0.00  0.00    +0.004 C 
ATOM     22  C   UNL     1      34.745 -22.169 -19.242  0.00  0.00    +0.021 C 
ATOM     23  C   UNL     1      33.674 -21.605 -19.917  0.00  0.00    +0.100 C 
ENDBRANCH  13  16
ENDBRANCH   1  13
TORSDOF 3
ENDMDL
MODEL 2
REMARK VINA RESULT:     -11.3      3.062      8.182
REMARK  Name = 100472
REMARK  3 active torsions:
REMARK  status: ('A' for Active; 'I' for Inactive)
REMARK    1  A    between atoms: C_1  and  C_13
REMARK    2  A    between atoms: C_2  and  C_7
REMARK    3  A    between atoms: C_13  and  C_16
REMARK                            x       y       z     vdW  Elec       q    Type
REMARK                         _______ _______ _______ _____ _____    ______ ____
ROOT
ATOM      1  C   UNL     1      36.036 -19.568 -21.918  0.00  0.00    -0.013 C 
ATOM      2  C   UNL     1      35.186 -21.185 -19.808  0.00  0.00    -0.000 C 
ATOM      3  C   UNL     1      36.964 -20.069 -21.004  0.00  0.00    -0.004 C 
ATOM      4  C   UNL     1      34.682 -19.876 -21.776  0.00  0.00    -0.004 C 
ATOM      5  C   UNL     1      36.539 -20.877 -19.950  0.00  0.00    -0.000 C 
ATOM      6  C   UNL     1      34.257 -20.684 -20.722  0.00  0.00    -0.000 C 
ENDROOT
BRANCH   2   7
ATOM      7  C   UNL     1      34.744 -22.022 -18.714  0.00  0.00    -0.000 C 
ATOM      8  C   UNL     1      35.636 -22.375 -17.702  0.00  0.00    -0.000 C 
ATOM      9  C   UNL     1      33.427 -22.477 -18.673  0.00  0.00    -0.000 C 
ATOM     10  C   UNL     1      35.210 -23.182 -16.647  0.00  0.00    +0.000 C 
ATOM     11  C   UNL     1      33.000 -23.284 -17.617  0.00  0.00    +0.000 C 
ATOM     12  C   UNL     1      33.893 -23.636 -16.605  0.00  0.00    +0.000 C 
ENDBRANCH   2   7
BRANCH   1  13
ATOM     13  C   UNL     1      36.490 -18.704 -23.046  0.00  0.00    +0.112 C 
BRANCH  13  16
ATOM     14  O   UNL     1      35.518 -16.684 -22.161  0.00  0.00    -0.274 OA
ATOM     15  N   UNL     1      35.393 -17.104 -24.468  0.00  0.00    -0.269 N 
ATOM     16  C   UNL     1      35.745 -17.376 -23.148  0.00  0.00    +0.232 C 
ATOM     17  H   UNL     1      35.658 -17.776 -25.137  0.00  0.00    +0.156 HD
ATOM     18  N   UNL     1      34.459 -15.907 -26.281  0.00  0.00    -0.229 NA
ATOM     19  C   UNL     1      34.698 -15.973 -24.960  0.00  0.00    +0.134 C 
ATOM     20  C   UNL     1      34.323 -15.022 -24.035  0.00  0.00    +0.034 C 
ATOM     21  C   UNL     1      33.640 -13.907 -24.508  0.00  0.00    +0.004 C 
ATOM     22  C   UNL     1      33.368 -13.790 -25.867  0.00  0.00    +0.021 C 
ATOM     23  C   UNL     1      33.795 -14.808 -26.704  0.00  0.00    +0.100 C 
ENDBRANCH  13  16
ENDBRANCH   1  13
TORSDOF 3
ENDMDL
MODEL 3
REMARK VINA RESULT:     -11.1      4.407      7.078
REMARK  Name = 100472
REMARK  3 active torsions:
REMARK  status: ('A' for Active; 'I' for Inactive)
REMARK    1  A    between atoms: C_1  and  C_13
REMARK    2  A    between atoms: C_2  and  C_7
REMARK    3  A    between atoms: C_13  and  C_16
REMARK                            x       y       z     vdW  Elec       q    Type
REMARK                         _______ _______ _______ _____ _____    ______ ____
ROOT
ATOM      1  C   UNL     1      34.975 -21.722 -19.412  0.00  0.00    -0.013 C 
ATOM      2  C   UNL     1      35.054 -19.849 -21.479  0.00  0.00    -0.000 C 
ATOM      3  C   UNL     1      36.200 -21.222 -19.855  0.00  0.00    -0.004 C 
ATOM      4  C   UNL     1      33.790 -21.285 -20.003  0.00  0.00    -0.004 C 
ATOM      5  C   UNL     1      36.240 -20.286 -20.888  0.00  0.00    -0.000 C 
ATOM      6  C   UNL     1      33.829 -20.349 -21.036  0.00  0.00    -0.000 C 
ENDROOT
BRANCH   2   7
ATOM      7  C   UNL     1      35.095 -18.879 -22.552  0.00  0.00    -0.000 C 
ATOM      8  C   UNL     1      34.688 -19.240 -23.835  0.00  0.00    -0.000 C 
ATOM      9  C   UNL     1      35.541 -17.582 -22.301  0.00  0.00    -0.000 C 
ATOM     10  C   UNL     1      34.726 -18.305 -24.869  0.00  0.00    +0.000 C 
ATOM     11  C   UNL     1      35.580 -16.645 -23.334  0.00  0.00    +0.000 C 
ATOM     12  C   UNL     1      35.172 -17.008 -24.618  0.00  0.00    +0.000 C 
ENDBRANCH   2   7
BRANCH   1  13
ATOM     13  C   UNL     1      34.933 -22.722 -18.307  0.00  0.00    +0.112 C 
BRANCH  13  16
ATOM     14  O   UNL     1      32.526 -22.609 -18.344  0.00  0.00    -0.274 OA
ATOM     15  N   UNL     1      33.600 -23.622 -16.518  0.00  0.00    -0.269 N 
ATOM     16  C   UNL     1      33.535 -22.966 -17.745  0.00  0.00    +0.232 C 
ATOM     17  H   UNL     1      34.502 -23.834 -16.184  0.00  0.00    +0.156 HD
ATOM     18  N   UNL     1      32.807 -24.645 -14.538  0.00  0.00    -0.229 NA
ATOM     19  C   UNL     1      32.520 -24.019 -15.694  0.00  0.00    +0.134 C 
ATOM     20  C   UNL     1      31.251 -23.732 -16.148  0.00  0.00    +0.034 C 
ATOM     21  C   UNL     1      30.183 -24.119 -15.347  0.00  0.00    +0.004 C 
ATOM     22  C   UNL     1      30.425 -24.770 -14.142  0.00  0.00    +0.021 C 
ATOM     23  C   UNL     1      31.743 -25.007 -13.787  0.00  0.00    +0.100 C 
ENDBRANCH  13  16
ENDBRANCH   1  13
TORSDOF 3
ENDMDL
MODEL 4
REMARK VINA RESULT:     -11.1      4.397      7.014
REMARK  Name = 100472
REMARK  3 active torsions:
REMARK  status: ('A' for Active; 'I' for Inactive)
REMARK    1  A    between atoms: C_1  and  C_13
REMARK    2  A    between atoms: C_2  and  C_7
REMARK    3  A    between atoms: C_13  and  C_16
REMARK                            x       y       z     vdW  Elec       q    Type
REMARK                         _______ _______ _______ _____ _____    ______ ____
ROOT
ATOM      1  C   UNL     1      34.960 -21.718 -19.439  0.00  0.00    -0.013 C 
ATOM      2  C   UNL     1      35.044 -19.840 -21.501  0.00  0.00    -0.000 C 
ATOM      3  C   UNL     1      33.776 -21.285 -20.038  0.00  0.00    -0.004 C 
ATOM      4  C   UNL     1      36.185 -21.211 -19.871  0.00  0.00    -0.004 C 
ATOM      5  C   UNL     1      33.819 -20.347 -21.069  0.00  0.00    -0.000 C 
ATOM      6  C   UNL     1      36.228 -20.272 -20.902  0.00  0.00    -0.000 C 
ENDROOT
BRANCH   2   7
ATOM      7  C   UNL     1      35.089 -18.866 -22.570  0.00  0.00    -0.000 C 
ATOM      8  C   UNL     1      35.529 -17.568 -22.313  0.00  0.00    -0.000 C 
ATOM      9  C   UNL     1      34.691 -19.225 -23.857  0.00  0.00    -0.000 C 
ATOM     10  C   UNL     1      35.572 -16.629 -23.344  0.00  0.00    +0.000 C 
ATOM     11  C   UNL     1      34.735 -18.287 -24.889  0.00  0.00    +0.000 C 
ATOM     12  C   UNL     1      35.176 -16.989 -24.631  0.00  0.00    +0.000 C 
ENDBRANCH   2   7
BRANCH   1  13
ATOM     13  C   UNL     1      34.914 -22.721 -18.337  0.00  0.00    +0.112 C 
BRANCH  13  16
ATOM     14  O   UNL     1      32.507 -22.595 -18.363  0.00  0.00    -0.274 OA
ATOM     15  N   UNL     1      33.585 -23.590 -16.530  0.00  0.00    -0.269 N 
ATOM     16  C   UNL     1      33.518 -22.950 -17.765  0.00  0.00    +0.232 C 
ATOM     17  H   UNL     1      34.488 -23.803 -16.198  0.00  0.00    +0.156 HD
ATOM     18  N   UNL     1      32.796 -24.583 -14.533  0.00  0.00    -0.229 NA
ATOM     19  C   UNL     1      32.507 -23.971 -15.695  0.00  0.00    +0.134 C 
ATOM     20  C   UNL     1      31.237 -23.682 -16.147  0.00  0.00    +0.034 C 
ATOM     21  C   UNL     1      30.172 -24.053 -15.335  0.00  0.00    +0.004 C 
ATOM     22  C   UNL     1      30.417 -24.689 -14.123  0.00  0.00    +0.021 C 
ATOM     23  C   UNL     1      31.735 -24.930 -13.772  0.00  0.00    +0.100 C 
ENDBRANCH  13  16
ENDBRANCH   1  13
TORSDOF 3
ENDMDL
MODEL 5
REMARK VINA RESULT:     -11.0      2.365      7.550
REMARK  Name = 100472
REMARK  3 active torsions:
REMARK  status: ('A' for Active; 'I' for Inactive)
REMARK    1  A    between atoms: C_1  and  C_13
REMARK    2  A    between atoms: C_2  and  C_7
REMARK    3  A    between atoms: C_13  and  C_16
REMARK                            x       y       z     vdW  Elec       q    Type
REMARK                         _______ _______ _______ _____ _____    ______ ____
ROOT
ATOM      1  C   UNL     1      35.262 -17.072 -23.704  0.00  0.00    -0.013 C 
ATOM      2  C   UNL     1      35.152 -19.175 -21.873  0.00  0.00    -0.000 C 
ATOM      3  C   UNL     1      35.600 -16.853 -22.368  0.00  0.00    -0.004 C 
ATOM      4  C   UNL     1      34.869 -18.343 -24.123  0.00  0.00    -0.004 C 
ATOM      5  C   UNL     1      35.545 -17.904 -21.453  0.00  0.00    -0.000 C 
ATOM      6  C   UNL     1      34.814 -19.394 -23.208  0.00  0.00    -0.000 C 
ENDROOT
BRANCH   2   7
ATOM      7  C   UNL     1      35.094 -20.266 -20.923  0.00  0.00    -0.000 C 
ATOM      8  C   UNL     1      36.272 -20.799 -20.401  0.00  0.00    -0.000 C 
ATOM      9  C   UNL     1      33.860 -20.783 -20.531  0.00  0.00    -0.000 C 
ATOM     10  C   UNL     1      36.216 -21.850 -19.486  0.00  0.00    +0.000 C 
ATOM     11  C   UNL     1      33.803 -21.834 -19.615  0.00  0.00    +0.000 C 
ATOM     12  C   UNL     1      34.982 -22.367 -19.093  0.00  0.00    +0.000 C 
ENDBRANCH   2   7
BRANCH   1  13
ATOM     13  C   UNL     1      35.321 -15.948 -24.682  0.00  0.00    +0.112 C 
BRANCH  13  16
ATOM     14  O   UNL     1      34.074 -13.940 -25.152  0.00  0.00    -0.274 OA
ATOM     15  N   UNL     1      34.134 -14.767 -22.955  0.00  0.00    -0.269 N 
ATOM     16  C   UNL     1      34.438 -14.760 -24.314  0.00  0.00    +0.232 C 
ATOM     17  H   UNL     1      34.514 -15.507 -22.428  0.00  0.00    +0.156 HD
ATOM     18  N   UNL     1      33.175 -14.030 -20.923  0.00  0.00    -0.229 NA
ATOM     19  C   UNL     1      33.343 -13.835 -22.242  0.00  0.00    +0.134 C 
ATOM     20  C   UNL     1      32.802 -12.794 -22.967  0.00  0.00    +0.034 C 
ATOM     21  C   UNL     1      32.023 -11.873 -22.277  0.00  0.00    +0.004 C 
ATOM     22  C   UNL     1      31.818 -12.030 -20.910  0.00  0.00    +0.021 C 
ATOM     23  C   UNL     1      32.411 -13.115 -20.286  0.00  0.00    +0.100 C 
ENDBRANCH  13  16
ENDBRANCH   1  13
TORSDOF 3
ENDMDL
MODEL 6
REMARK VINA RESULT:     -11.0      5.502      8.126
REMARK  Name = 100472
REMARK  3 active torsions:
REMARK  status: ('A' for Active; 'I' for Inactive)
REMARK    1  A    between atoms: C_1  and  C_13
REMARK    2  A    between atoms: C_2  and  C_7
REMARK    3  A    between atoms: C_13  and  C_16
REMARK                            x       y       z     vdW  Elec       q    Type
REMARK                         _______ _______ _______ _____ _____    ______ ____
ROOT
ATOM      1  C   UNL     1      34.338 -22.622 -18.334  0.00  0.00    -0.013 C 
ATOM      2  C   UNL     1      35.100 -20.877 -20.374  0.00  0.00    -0.000 C 
ATOM      3  C   UNL     1      35.690 -22.358 -18.558  0.00  0.00    -0.004 C 
ATOM      4  C   UNL     1      33.368 -22.014 -19.131  0.00  0.00    -0.004 C 
ATOM      5  C   UNL     1      36.070 -21.485 -19.577  0.00  0.00    -0.000 C 
ATOM      6  C   UNL     1      33.748 -21.141 -20.150  0.00  0.00    -0.000 C 
ENDROOT
BRANCH   2   7
ATOM      7  C   UNL     1      35.495 -19.972 -21.431  0.00  0.00    -0.000 C 
ATOM      8  C   UNL     1      34.636 -19.735 -22.504  0.00  0.00    -0.000 C 
ATOM      9  C   UNL     1      36.736 -19.338 -21.378  0.00  0.00    -0.000 C 
ATOM     10  C   UNL     1      35.016 -18.862 -23.523  0.00  0.00    +0.000 C 
ATOM     11  C   UNL     1      37.117 -18.464 -22.397  0.00  0.00    +0.000 C 
ATOM     12  C   UNL     1      36.256 -18.227 -23.470  0.00  0.00    +0.000 C 
ENDBRANCH   2   7
BRANCH   1  13
ATOM     13  C   UNL     1      33.931 -23.555 -17.244  0.00  0.00    +0.112 C 
BRANCH  13  16
ATOM     14  O   UNL     1      34.974 -22.470 -15.361  0.00  0.00    -0.274 OA
ATOM     15  N   UNL     1      35.421 -24.739 -15.773  0.00  0.00    -0.269 N 
ATOM     16  C   UNL     1      34.831 -23.500 -16.013  0.00  0.00    +0.232 C 
ATOM     17  H   UNL     1      35.192 -25.460 -16.403  0.00  0.00    +0.156 HD
ATOM     18  N   UNL     1      36.769 -26.345 -14.679  0.00  0.00    -0.229 NA
ATOM     19  C   UNL     1      36.313 -25.081 -14.728  0.00  0.00    +0.134 C 
ATOM     20  C   UNL     1      36.641 -24.083 -13.836  0.00  0.00    +0.034 C 
ATOM     21  C   UNL     1      37.515 -24.409 -12.806  0.00  0.00    +0.004 C 
ATOM     22  C   UNL     1      38.016 -25.703 -12.711  0.00  0.00    +0.021 C 
ATOM     23  C   UNL     1      37.615 -26.626 -13.663  0.00  0.00    +0.100 C 
ENDBRANCH  13  16
ENDBRANCH   1  13
TORSDOF 3
ENDMDL
MODEL 7
REMARK VINA RESULT:     -10.8      4.444      7.317
REMARK  Name = 100472
REMARK  3 active torsions:
REMARK  status: ('A' for Active; 'I' for Inactive)
REMARK    1  A    between atoms: C_1  and  C_13
REMARK    2  A    between atoms: C_2  and  C_7
REMARK    3  A    between atoms: C_13  and  C_16
REMARK                            x       y       z     vdW  Elec       q    Type
REMARK                         _______ _______ _______ _____ _____    ______ ____
ROOT
ATOM      1  C   UNL     1      34.272 -22.396 -19.127  0.00  0.00    -0.013 C 
ATOM      2  C   UNL     1      34.744 -20.334 -20.947  0.00  0.00    -0.000 C 
ATOM      3  C   UNL     1      35.575 -22.115 -19.542  0.00  0.00    -0.004 C 
ATOM      4  C   UNL     1      33.206 -21.645 -19.623  0.00  0.00    -0.004 C 
ATOM      5  C   UNL     1      35.811 -21.085 -20.451  0.00  0.00    -0.000 C 
ATOM      6  C   UNL     1      33.442 -20.614 -20.532  0.00  0.00    -0.000 C 
ENDROOT
BRANCH   2   7
ATOM      7  C   UNL     1      34.989 -19.265 -21.891  0.00  0.00    -0.000 C 
ATOM      8  C   UNL     1      34.799 -19.482 -23.255  0.00  0.00    -0.000 C 
ATOM      9  C   UNL     1      35.414 -18.017 -21.436  0.00  0.00    -0.000 C 
ATOM     10  C   UNL     1      35.034 -18.451 -24.165  0.00  0.00    +0.000 C 
ATOM     11  C   UNL     1      35.649 -16.986 -22.345  0.00  0.00    +0.000 C 
ATOM     12  C   UNL     1      35.458 -17.204 -23.710  0.00  0.00    +0.000 C 
ENDBRANCH   2   7
BRANCH   1  13
ATOM     13  C   UNL     1      34.020 -23.498 -18.155  0.00  0.00    +0.112 C 
BRANCH  13  16
ATOM     14  O   UNL     1      33.337 -22.847 -15.937  0.00  0.00    -0.274 OA
ATOM     15  N   UNL     1      31.700 -23.231 -17.577  0.00  0.00    -0.269 N 
ATOM     16  C   UNL     1      32.998 -23.151 -17.076  0.00  0.00    +0.232 C 
ATOM     17  H   UNL     1      31.614 -23.492 -18.523  0.00  0.00    +0.156 HD
ATOM     18  N   UNL     1      29.338 -23.117 -17.562  0.00  0.00    -0.229 NA
ATOM     19  C   UNL     1      30.492 -22.981 -16.885  0.00  0.00    +0.134 C 
ATOM     20  C   UNL     1      30.597 -22.613 -15.560  0.00  0.00    +0.034 C 
ATOM     21  C   UNL     1      29.415 -22.365 -14.872  0.00  0.00    +0.004 C 
ATOM     22  C   UNL     1      28.195 -22.491 -15.527  0.00  0.00    +0.021 C 
ATOM     23  C   UNL     1      28.211 -22.866 -16.860  0.00  0.00    +0.100 C 
ENDBRANCH  13  16
ENDBRANCH   1  13
TORSDOF 3
ENDMDL
MODEL 8
REMARK VINA RESULT:     -10.8      4.525      7.284
REMARK  Name = 100472
REMARK  3 active torsions:
REMARK  status: ('A' for Active; 'I' for Inactive)
REMARK    1  A    between atoms: C_1  and  C_13
REMARK    2  A    between atoms: C_2  and  C_7
REMARK    3  A    between atoms: C_13  and  C_16
REMARK                            x       y       z     vdW  Elec       q    Type
REMARK                         _______ _______ _______ _____ _____    ______ ____
ROOT
ATOM      1  C   UNL     1      34.367 -22.128 -19.089  0.00  0.00    -0.013 C 
ATOM      2  C   UNL     1      34.783 -20.225 -21.086  0.00  0.00    -0.000 C 
ATOM      3  C   UNL     1      35.661 -21.855 -19.534  0.00  0.00    -0.004 C 
ATOM      4  C   UNL     1      33.282 -21.450 -19.642  0.00  0.00    -0.004 C 
ATOM      5  C   UNL     1      35.869 -20.903 -20.532  0.00  0.00    -0.000 C 
ATOM      6  C   UNL     1      33.489 -20.498 -20.640  0.00  0.00    -0.000 C 
ENDROOT
BRANCH   2   7
ATOM      7  C   UNL     1      34.998 -19.238 -22.122  0.00  0.00    -0.000 C 
ATOM      8  C   UNL     1      35.536 -17.993 -21.799  0.00  0.00    -0.000 C 
ATOM      9  C   UNL     1      34.666 -19.532 -23.444  0.00  0.00    -0.000 C 
ATOM     10  C   UNL     1      35.744 -17.042 -22.798  0.00  0.00    +0.000 C 
ATOM     11  C   UNL     1      34.874 -18.582 -24.444  0.00  0.00    +0.000 C 
ATOM     12  C   UNL     1      35.413 -17.336 -24.120  0.00  0.00    +0.000 C 
ENDBRANCH   2   7
BRANCH   1  13
ATOM     13  C   UNL     1      34.145 -23.146 -18.021  0.00  0.00    +0.112 C 
BRANCH  13  16
ATOM     14  O   UNL     1      36.313 -22.664 -17.082  0.00  0.00    -0.274 OA
ATOM     15  N   UNL     1      34.656 -23.619 -15.719  0.00  0.00    -0.269 N 
ATOM     16  C   UNL     1      35.182 -23.105 -16.902  0.00  0.00    +0.232 C 
ATOM     17  H   UNL     1      33.723 -23.931 -15.756  0.00  0.00    +0.156 HD
ATOM     18  N   UNL     1      34.612 -24.274 -13.446  0.00  0.00    -0.229 NA
ATOM     19  C   UNL     1      35.308 -23.746 -14.469  0.00  0.00    +0.134 C 
ATOM     20  C   UNL     1      36.615 -23.312 -14.400  0.00  0.00    +0.034 C 
ATOM     21  C   UNL     1      37.263 -23.432 -13.177  0.00  0.00    +0.004 C 
ATOM     22  C   UNL     1      36.587 -23.971 -12.087  0.00  0.00    +0.021 C 
ATOM     23  C   UNL     1      35.275 -24.373 -12.273  0.00  0.00    +0.100 C 
ENDBRANCH  13  16
ENDBRANCH   1  13
TORSDOF 3
ENDMDL
MODEL 9
REMARK VINA RESULT:     -10.6      1.624      2.364
REMARK  Name = 100472
REMARK  3 active torsions:
REMARK  status: ('A' for Active; 'I' for Inactive)
REMARK    1  A    between atoms: C_1  and  C_13
REMARK    2  A    between atoms: C_2  and  C_7
REMARK    3  A    between atoms: C_13  and  C_16
REMARK                            x       y       z     vdW  Elec       q    Type
REMARK                         _______ _______ _______ _____ _____    ______ ____
ROOT
ATOM      1  C   UNL     1      35.499 -16.990 -23.200  0.00  0.00    -0.013 C 
ATOM      2  C   UNL     1      34.391 -14.429 -23.213  0.00  0.00    -0.000 C 
ATOM      3  C   UNL     1      35.139 -16.391 -24.408  0.00  0.00    -0.004 C 
ATOM      4  C   UNL     1      35.305 -16.308 -21.999  0.00  0.00    -0.004 C 
ATOM      5  C   UNL     1      34.586 -15.111 -24.414  0.00  0.00    -0.000 C 
ATOM      6  C   UNL     1      34.751 -15.028 -22.005  0.00  0.00    -0.000 C 
ENDROOT
BRANCH   2   7
ATOM      7  C   UNL     1      33.816 -13.101 -23.219  0.00  0.00    -0.000 C 
ATOM      8  C   UNL     1      34.283 -12.143 -24.118  0.00  0.00    -0.000 C 
ATOM      9  C   UNL     1      32.794 -12.781 -22.326  0.00  0.00    -0.000 C 
ATOM     10  C   UNL     1      33.728 -10.863 -24.125  0.00  0.00    +0.000 C 
ATOM     11  C   UNL     1      32.239 -11.501 -22.332  0.00  0.00    +0.000 C 
ATOM     12  C   UNL     1      32.706 -10.543 -23.232  0.00  0.00    +0.000 C 
ENDBRANCH   2   7
BRANCH   1  13
ATOM     13  C   UNL     1      36.092 -18.358 -23.193  0.00  0.00    +0.112 C 
BRANCH  13  16
ATOM     14  O   UNL     1      34.183 -19.693 -22.571  0.00  0.00    -0.274 OA
ATOM     15  N   UNL     1      36.130 -19.790 -21.260  0.00  0.00    -0.269 N 
ATOM     16  C   UNL     1      35.336 -19.356 -22.319  0.00  0.00    +0.232 C 
ATOM     17  H   UNL     1      37.037 -19.412 -21.213  0.00  0.00    +0.156 HD
ATOM     18  N   UNL     1      36.706 -20.994 -19.308  0.00  0.00    -0.229 NA
ATOM     19  C   UNL     1      35.783 -20.712 -20.244  0.00  0.00    +0.134 C 
ATOM     20  C   UNL     1      34.515 -21.252 -20.298  0.00  0.00    +0.034 C 
ATOM     21  C   UNL     1      34.165 -22.158 -19.305  0.00  0.00    +0.004 C 
ATOM     22  C   UNL     1      35.084 -22.485 -18.313  0.00  0.00    +0.021 C 
ATOM     23  C   UNL     1      36.330 -21.881 -18.359  0.00  0.00    +0.100 C 
ENDBRANCH  13  16
ENDBRANCH   1  13
TORSDOF 3
ENDMDL
