MODEL 1
REMARK VINA RESULT:     -12.0      0.000      0.000
REMARK  Name = 657077
REMARK  7 active torsions:
REMARK  status: ('A' for Active; 'I' for Inactive)
REMARK    1  A    between atoms: C_3  and  C_23
REMARK    2  A    between atoms: C_8  and  C_10
REMARK    3  A    between atoms: C_12  and  C_15
REMARK    4  A    between atoms: C_15  and  C_16
REMARK    5  A    between atoms: C_16  and  C_17
REMARK    6  A    between atoms: C_26  and  C_29
REMARK    7  A    between atoms: C_29  and  N_30
REMARK                            x       y       z     vdW  Elec       q    Type
REMARK                         _______ _______ _______ _____ _____    ______ ____
ROOT
ATOM      1  O   UNL     1      33.421 -16.158 -26.351  0.00  0.00    -0.270 OA
ATOM      2  N   UNL     1      34.900 -16.776 -24.648  0.00  0.00    -0.276 N 
ATOM      3  C   UNL     1      35.490 -18.855 -22.724  0.00  0.00    +0.026 C 
ATOM      4  C   UNL     1      35.353 -17.378 -22.305  0.00  0.00    +0.026 C 
ATOM      5  C   UNL     1      34.671 -19.135 -23.998  0.00  0.00    +0.026 C 
ATOM      6  C   UNL     1      35.704 -16.447 -23.465  0.00  0.00    +0.094 C 
ATOM      7  C   UNL     1      35.035 -18.156 -25.114  0.00  0.00    +0.094 C 
ATOM      8  C   UNL     1      34.075 -15.889 -25.344  0.00  0.00    +0.251 C 
ENDROOT
BRANCH   8  10
ATOM      9  N   UNL     1      34.270 -12.153 -25.205  0.00  0.00    -0.242 NA
ATOM     10  C   UNL     1      33.953 -14.516 -24.839  0.00  0.00    +0.072 C 
ATOM     11  C   UNL     1      33.432 -14.266 -23.578  0.00  0.00    +0.003 C 
ATOM     12  C   UNL     1      33.329 -12.955 -23.127  0.00  0.00    -0.003 C 
ATOM     13  C   UNL     1      34.355 -13.441 -25.609  0.00  0.00    +0.103 C 
ATOM     14  C   UNL     1      33.757 -11.943 -23.972  0.00  0.00    +0.095 C 
BRANCH  12  15
ATOM     15  C   UNL     1      32.774 -12.647 -21.782  0.00  0.00    +0.033 C 
BRANCH  15  16
ATOM     16  C   UNL     1      31.500 -11.777 -21.808  0.00  0.00    +0.031 C 
BRANCH  16  17
ATOM     17  C   UNL     1      31.782 -10.307 -21.611  0.00  0.00    -0.022 C 
ATOM     18  C   UNL     1      32.040  -9.830 -20.335  0.00  0.00    -0.004 C 
ATOM     19  C   UNL     1      31.777  -9.462 -22.708  0.00  0.00    -0.004 C 
ATOM     20  C   UNL     1      32.300  -8.472 -20.153  0.00  0.00    -0.000 C 
ATOM     21  C   UNL     1      32.038  -8.103 -22.526  0.00  0.00    -0.000 C 
ATOM     22  C   UNL     1      32.299  -7.608 -21.248  0.00  0.00    -0.000 C 
ENDBRANCH  16  17
ENDBRANCH  15  16
ENDBRANCH  12  15
ENDBRANCH   8  10
BRANCH   3  23
ATOM     23  C   UNL     1      35.130 -19.802 -21.595  0.00  0.00    -0.023 C 
ATOM     24  C   UNL     1      36.131 -20.322 -20.777  0.00  0.00    -0.011 C 
ATOM     25  C   UNL     1      33.797 -20.149 -21.379  0.00  0.00    -0.004 C 
ATOM     26  C   UNL     1      35.799 -21.191 -19.739  0.00  0.00    -0.045 C 
ATOM     27  C   UNL     1      33.465 -21.019 -20.340  0.00  0.00    -0.001 C 
ATOM     28  C   UNL     1      34.466 -21.540 -19.520  0.00  0.00    -0.006 C 
BRANCH  26  29
ATOM     29  C   UNL     1      36.869 -21.749 -18.861  0.00  0.00    -0.059 C 
BRANCH  29  30
ATOM     30  N   UNL     1      37.286 -20.803 -17.823  0.00  0.00    +0.383 N 
ATOM     31  H   UNL     1      37.102 -19.851 -18.138  0.00  0.00    -0.089 HD
ATOM     32  H   UNL     1      38.283 -20.916 -17.641  0.00  0.00    -0.089 HD
ATOM     33  H   UNL     1      36.761 -20.985 -16.968  0.00  0.00    -0.089 HD
ENDBRANCH  29  30
ENDBRANCH  26  29
ENDBRANCH   3  23
TORSDOF 7
ENDMDL
MODEL 2
REMARK VINA RESULT:     -11.5      2.225      3.426
REMARK  Name = 657077
REMARK  7 active torsions:
REMARK  status: ('A' for Active; 'I' for Inactive)
REMARK    1  A    between atoms: C_3  and  C_23
REMARK    2  A    between atoms: C_8  and  C_10
REMARK    3  A    between atoms: C_12  and  C_15
REMARK    4  A    between atoms: C_15  and  C_16
REMARK    5  A    between atoms: C_16  and  C_17
REMARK    6  A    between atoms: C_26  and  C_29
REMARK    7  A    between atoms: C_29  and  N_30
REMARK                            x       y       z     vdW  Elec       q    Type
REMARK                         _______ _______ _______ _____ _____    ______ ____
ROOT
ATOM      1  O   UNL     1      33.101 -13.805 -24.925  0.00  0.00    -0.270 OA
ATOM      2  N   UNL     1      34.569 -14.588 -23.282  0.00  0.00    -0.276 N 
ATOM      3  C   UNL     1      35.756 -16.985 -22.177  0.00  0.00    +0.026 C 
ATOM      4  C   UNL     1      35.037 -15.952 -21.288  0.00  0.00    +0.026 C 
ATOM      5  C   UNL     1      35.203 -16.940 -23.615  0.00  0.00    +0.026 C 
ATOM      6  C   UNL     1      35.097 -14.558 -21.912  0.00  0.00    +0.094 C 
ATOM      7  C   UNL     1      35.253 -15.520 -24.179  0.00  0.00    +0.094 C 
ATOM      8  C   UNL     1      33.525 -13.799 -23.770  0.00  0.00    +0.251 C 
ENDROOT
BRANCH   8  10
ATOM      9  N   UNL     1      31.712 -12.560 -20.738  0.00  0.00    -0.242 NA
ATOM     10  C   UNL     1      32.855 -12.885 -22.838  0.00  0.00    +0.072 C 
ATOM     11  C   UNL     1      32.721 -11.537 -23.136  0.00  0.00    +0.003 C 
ATOM     12  C   UNL     1      32.080 -10.695 -22.233  0.00  0.00    -0.003 C 
ATOM     13  C   UNL     1      32.341 -13.347 -21.642  0.00  0.00    +0.103 C 
ATOM     14  C   UNL     1      31.598 -11.252 -21.059  0.00  0.00    +0.095 C 
BRANCH  12  15
ATOM     15  C   UNL     1      31.918  -9.245 -22.518  0.00  0.00    +0.033 C 
BRANCH  15  16
ATOM     16  C   UNL     1      33.210  -8.419 -22.340  0.00  0.00    +0.031 C 
BRANCH  16  17
ATOM     17  C   UNL     1      33.292  -7.238 -23.277  0.00  0.00    -0.022 C 
ATOM     18  C   UNL     1      32.175  -6.440 -23.464  0.00  0.00    -0.004 C 
ATOM     19  C   UNL     1      34.484  -6.973 -23.932  0.00  0.00    -0.004 C 
ATOM     20  C   UNL     1      32.251  -5.349 -24.330  0.00  0.00    -0.000 C 
ATOM     21  C   UNL     1      34.560  -5.882 -24.798  0.00  0.00    -0.000 C 
ATOM     22  C   UNL     1      33.443  -5.070 -24.997  0.00  0.00    -0.000 C 
ENDBRANCH  16  17
ENDBRANCH  15  16
ENDBRANCH  12  15
ENDBRANCH   8  10
BRANCH   3  23
ATOM     23  C   UNL     1      35.696 -18.382 -21.588  0.00  0.00    -0.023 C 
ATOM     24  C   UNL     1      34.464 -19.006 -21.404  0.00  0.00    -0.011 C 
ATOM     25  C   UNL     1      36.875 -19.038 -21.235  0.00  0.00    -0.004 C 
ATOM     26  C   UNL     1      34.409 -20.290 -20.864  0.00  0.00    -0.045 C 
ATOM     27  C   UNL     1      36.819 -20.323 -20.694  0.00  0.00    -0.001 C 
ATOM     28  C   UNL     1      35.587 -20.948 -20.509  0.00  0.00    -0.006 C 
BRANCH  26  29
ATOM     29  C   UNL     1      33.091 -20.961 -20.666  0.00  0.00    -0.059 C 
BRANCH  29  30
ATOM     30  N   UNL     1      33.178 -22.098 -19.747  0.00  0.00    +0.383 N 
ATOM     31  H   UNL     1      32.371 -22.707 -19.883  0.00  0.00    -0.089 HD
ATOM     32  H   UNL     1      33.190 -21.758 -18.786  0.00  0.00    -0.089 HD
ATOM     33  H   UNL     1      34.034 -22.621 -19.934  0.00  0.00    -0.089 HD
ENDBRANCH  29  30
ENDBRANCH  26  29
ENDBRANCH   3  23
TORSDOF 7
ENDMDL
MODEL 3
REMARK VINA RESULT:     -11.2      1.508      2.162
REMARK  Name = 657077
REMARK  7 active torsions:
REMARK  status: ('A' for Active; 'I' for Inactive)
REMARK    1  A    between atoms: C_3  and  C_23
REMARK    2  A    between atoms: C_8  and  C_10
REMARK    3  A    between atoms: C_12  and  C_15
REMARK    4  A    between atoms: C_15  and  C_16
REMARK    5  A    between atoms: C_16  and  C_17
REMARK    6  A    between atoms: C_26  and  C_29
REMARK    7  A    between atoms: C_29  and  N_30
REMARK                            x       y       z     vdW  Elec       q    Type
REMARK                         _______ _______ _______ _____ _____    ______ ____
ROOT
ATOM      1  O   UNL     1      33.637 -15.724 -25.853  0.00  0.00    -0.270 OA
ATOM      2  N   UNL     1      34.985 -16.399 -24.066  0.00  0.00    -0.276 N 
ATOM      3  C   UNL     1      35.566 -18.619 -22.302  0.00  0.00    +0.026 C 
ATOM      4  C   UNL     1      35.250 -17.213 -21.758  0.00  0.00    +0.026 C 
ATOM      5  C   UNL     1      34.910 -18.826 -23.681  0.00  0.00    +0.026 C 
ATOM      6  C   UNL     1      35.631 -16.136 -22.774  0.00  0.00    +0.094 C 
ATOM      7  C   UNL     1      35.295 -17.706 -24.648  0.00  0.00    +0.094 C 
ATOM      8  C   UNL     1      34.157 -15.513 -24.758  0.00  0.00    +0.251 C 
ENDROOT
BRANCH   8  10
ATOM      9  N   UNL     1      32.938 -12.990 -22.275  0.00  0.00    -0.242 NA
ATOM     10  C   UNL     1      33.858 -14.217 -24.138  0.00  0.00    +0.072 C 
ATOM     11  C   UNL     1      34.188 -13.030 -24.776  0.00  0.00    +0.003 C 
ATOM     12  C   UNL     1      33.892 -11.817 -24.163  0.00  0.00    -0.003 C 
ATOM     13  C   UNL     1      33.242 -14.149 -22.903  0.00  0.00    +0.103 C 
ATOM     14  C   UNL     1      33.273 -11.852 -22.923  0.00  0.00    +0.095 C 
BRANCH  12  15
ATOM     15  C   UNL     1      34.230 -10.525 -24.816  0.00  0.00    +0.033 C 
BRANCH  15  16
ATOM     16  C   UNL     1      34.684  -9.422 -23.836  0.00  0.00    +0.031 C 
BRANCH  16  17
ATOM     17  C   UNL     1      33.748  -8.238 -23.801  0.00  0.00    -0.022 C 
ATOM     18  C   UNL     1      32.379  -8.454 -23.805  0.00  0.00    -0.004 C 
ATOM     19  C   UNL     1      34.275  -6.958 -23.765  0.00  0.00    -0.004 C 
ATOM     20  C   UNL     1      31.514  -7.360 -23.773  0.00  0.00    -0.000 C 
ATOM     21  C   UNL     1      33.410  -5.863 -23.731  0.00  0.00    -0.000 C 
ATOM     22  C   UNL     1      32.029  -6.065 -23.736  0.00  0.00    -0.000 C 
ENDBRANCH  16  17
ENDBRANCH  15  16
ENDBRANCH  12  15
ENDBRANCH   8  10
BRANCH   3  23
ATOM     23  C   UNL     1      35.181 -19.709 -21.320  0.00  0.00    -0.023 C 
ATOM     24  C   UNL     1      36.162 -20.321 -20.542  0.00  0.00    -0.011 C 
ATOM     25  C   UNL     1      33.847 -20.094 -21.197  0.00  0.00    -0.004 C 
ATOM     26  C   UNL     1      35.808 -21.321 -19.638  0.00  0.00    -0.045 C 
ATOM     27  C   UNL     1      33.493 -21.095 -20.292  0.00  0.00    -0.001 C 
ATOM     28  C   UNL     1      34.473 -21.709 -19.513  0.00  0.00    -0.006 C 
BRANCH  26  29
ATOM     29  C   UNL     1      36.856 -21.978 -18.802  0.00  0.00    -0.059 C 
BRANCH  29  30
ATOM     30  N   UNL     1      37.305 -21.124 -17.700  0.00  0.00    +0.383 N 
ATOM     31  H   UNL     1      36.507 -20.877 -17.115  0.00  0.00    -0.089 HD
ATOM     32  H   UNL     1      37.727 -20.276 -18.078  0.00  0.00    -0.089 HD
ATOM     33  H   UNL     1      37.993 -21.627 -17.140  0.00  0.00    -0.089 HD
ENDBRANCH  29  30
ENDBRANCH  26  29
ENDBRANCH   3  23
TORSDOF 7
ENDMDL
MODEL 4
REMARK VINA RESULT:     -10.7      4.578      8.206
REMARK  Name = 657077
REMARK  7 active torsions:
REMARK  status: ('A' for Active; 'I' for Inactive)
REMARK    1  A    between atoms: C_3  and  C_23
REMARK    2  A    between atoms: C_8  and  C_10
REMARK    3  A    between atoms: C_12  and  C_15
REMARK    4  A    between atoms: C_15  and  C_16
REMARK    5  A    between atoms: C_16  and  C_17
REMARK    6  A    between atoms: C_26  and  C_29
REMARK    7  A    between atoms: C_29  and  N_30
REMARK                            x       y       z     vdW  Elec       q    Type
REMARK                         _______ _______ _______ _____ _____    ______ ____
ROOT
ATOM      1  O   UNL     1      32.478  -7.977 -19.502  0.00  0.00    -0.270 OA
ATOM      2  N   UNL     1      31.871  -9.586 -21.087  0.00  0.00    -0.276 N 
ATOM      3  C   UNL     1      32.367 -12.304 -21.946  0.00  0.00    +0.026 C 
ATOM      4  C   UNL     1      32.444 -11.117 -22.926  0.00  0.00    +0.026 C 
ATOM      5  C   UNL     1      32.664 -11.839 -20.508  0.00  0.00    +0.026 C 
ATOM      6  C   UNL     1      31.545  -9.970 -22.466  0.00  0.00    +0.094 C 
ATOM      7  C   UNL     1      31.764 -10.670 -20.110  0.00  0.00    +0.094 C 
ATOM      8  C   UNL     1      32.231  -8.304 -20.661  0.00  0.00    +0.251 C 
ENDROOT
BRANCH   8  10
ATOM      9  N   UNL     1      31.414  -5.262 -22.685  0.00  0.00    -0.242 NA
ATOM     10  C   UNL     1      32.341  -7.246 -21.671  0.00  0.00    +0.072 C 
ATOM     11  C   UNL     1      33.420  -7.205 -22.543  0.00  0.00    +0.003 C 
ATOM     12  C   UNL     1      33.497  -6.189 -23.490  0.00  0.00    -0.003 C 
ATOM     13  C   UNL     1      31.374  -6.265 -21.778  0.00  0.00    +0.103 C 
ATOM     14  C   UNL     1      32.478  -5.250 -23.519  0.00  0.00    +0.095 C 
BRANCH  12  15
ATOM     15  C   UNL     1      34.639  -6.111 -24.440  0.00  0.00    +0.033 C 
BRANCH  15  16
ATOM     16  C   UNL     1      34.226  -5.831 -25.901  0.00  0.00    +0.031 C 
BRANCH  16  17
ATOM     17  C   UNL     1      35.007  -4.702 -26.531  0.00  0.00    -0.022 C 
ATOM     18  C   UNL     1      34.379  -3.487 -26.760  0.00  0.00    -0.004 C 
ATOM     19  C   UNL     1      36.335  -4.901 -26.868  0.00  0.00    -0.004 C 
ATOM     20  C   UNL     1      35.100  -2.445 -27.343  0.00  0.00    -0.000 C 
ATOM     21  C   UNL     1      37.057  -3.858 -27.450  0.00  0.00    -0.000 C 
ATOM     22  C   UNL     1      36.438  -2.630 -27.687  0.00  0.00    -0.000 C 
ENDBRANCH  16  17
ENDBRANCH  15  16
ENDBRANCH  12  15
ENDBRANCH   8  10
BRANCH   3  23
ATOM     23  C   UNL     1      33.264 -13.451 -22.371  0.00  0.00    -0.023 C 
ATOM     24  C   UNL     1      33.319 -13.831 -23.710  0.00  0.00    -0.011 C 
ATOM     25  C   UNL     1      34.032 -14.121 -21.420  0.00  0.00    -0.004 C 
ATOM     26  C   UNL     1      34.145 -14.884 -24.101  0.00  0.00    -0.045 C 
ATOM     27  C   UNL     1      34.857 -15.176 -21.811  0.00  0.00    -0.001 C 
ATOM     28  C   UNL     1      34.914 -15.557 -23.151  0.00  0.00    -0.006 C 
BRANCH  26  29
ATOM     29  C   UNL     1      34.207 -15.292 -25.535  0.00  0.00    -0.059 C 
BRANCH  29  30
ATOM     30  N   UNL     1      33.132 -14.698 -26.331  0.00  0.00    +0.383 N 
ATOM     31  H   UNL     1      32.992 -13.729 -26.043  0.00  0.00    -0.089 HD
ATOM     32  H   UNL     1      32.270 -15.223 -26.184  0.00  0.00    -0.089 HD
ATOM     33  H   UNL     1      33.385 -14.726 -27.318  0.00  0.00    -0.089 HD
ENDBRANCH  29  30
ENDBRANCH  26  29
ENDBRANCH   3  23
TORSDOF 7
ENDMDL
MODEL 5
REMARK VINA RESULT:     -10.6      3.724     10.558
REMARK  Name = 657077
REMARK  7 active torsions:
REMARK  status: ('A' for Active; 'I' for Inactive)
REMARK    1  A    between atoms: C_3  and  C_23
REMARK    2  A    between atoms: C_8  and  C_10
REMARK    3  A    between atoms: C_12  and  C_15
REMARK    4  A    between atoms: C_15  and  C_16
REMARK    5  A    between atoms: C_16  and  C_17
REMARK    6  A    between atoms: C_26  and  C_29
REMARK    7  A    between atoms: C_29  and  N_30
REMARK                            x       y       z     vdW  Elec       q    Type
REMARK                         _______ _______ _______ _____ _____    ______ ____
ROOT
ATOM      1  O   UNL     1      37.300 -20.024 -19.359  0.00  0.00    -0.270 OA
ATOM      2  N   UNL     1      36.337 -19.941 -21.488  0.00  0.00    -0.276 N 
ATOM      3  C   UNL     1      35.672 -18.159 -23.670  0.00  0.00    +0.026 C 
ATOM      4  C   UNL     1      34.625 -19.101 -23.044  0.00  0.00    +0.026 C 
ATOM      5  C   UNL     1      36.773 -17.817 -22.647  0.00  0.00    +0.026 C 
ATOM      6  C   UNL     1      35.293 -20.337 -22.441  0.00  0.00    +0.094 C 
ATOM      7  C   UNL     1      37.383 -19.085 -22.050  0.00  0.00    +0.094 C 
ATOM      8  C   UNL     1      36.411 -20.335 -20.151  0.00  0.00    +0.251 C 
ENDROOT
BRANCH   8  10
ATOM      9  N   UNL     1      33.047 -21.928 -19.751  0.00  0.00    -0.242 NA
ATOM     10  C   UNL     1      35.337 -21.182 -19.619  0.00  0.00    +0.072 C 
ATOM     11  C   UNL     1      35.560 -22.013 -18.531  0.00  0.00    +0.003 C 
ATOM     12  C   UNL     1      34.524 -22.805 -18.049  0.00  0.00    -0.003 C 
ATOM     13  C   UNL     1      34.079 -21.173 -20.190  0.00  0.00    +0.103 C 
ATOM     14  C   UNL     1      33.297 -22.727 -18.689  0.00  0.00    +0.095 C 
BRANCH  12  15
ATOM     15  C   UNL     1      34.725 -23.709 -16.885  0.00  0.00    +0.033 C 
BRANCH  15  16
ATOM     16  C   UNL     1      34.329 -23.089 -15.528  0.00  0.00    +0.031 C 
BRANCH  16  17
ATOM     17  C   UNL     1      33.002 -23.592 -15.012  0.00  0.00    -0.022 C 
ATOM     18  C   UNL     1      32.962 -24.755 -14.260  0.00  0.00    -0.004 C 
ATOM     19  C   UNL     1      31.849 -22.880 -15.300  0.00  0.00    -0.004 C 
ATOM     20  C   UNL     1      31.736 -25.219 -13.783  0.00  0.00    -0.000 C 
ATOM     21  C   UNL     1      30.622 -23.344 -14.822  0.00  0.00    -0.000 C 
ATOM     22  C   UNL     1      30.566 -24.514 -14.064  0.00  0.00    -0.000 C 
ENDBRANCH  16  17
ENDBRANCH  15  16
ENDBRANCH  12  15
ENDBRANCH   8  10
BRANCH   3  23
ATOM     23  C   UNL     1      35.037 -16.915 -24.261  0.00  0.00    -0.023 C 
ATOM     24  C   UNL     1      35.024 -15.728 -23.531  0.00  0.00    -0.011 C 
ATOM     25  C   UNL     1      34.470 -16.962 -25.533  0.00  0.00    -0.004 C 
ATOM     26  C   UNL     1      34.441 -14.584 -24.074  0.00  0.00    -0.045 C 
ATOM     27  C   UNL     1      33.887 -15.817 -26.076  0.00  0.00    -0.001 C 
ATOM     28  C   UNL     1      33.873 -14.628 -25.347  0.00  0.00    -0.006 C 
BRANCH  26  29
ATOM     29  C   UNL     1      34.427 -13.311 -23.295  0.00  0.00    -0.059 C 
BRANCH  29  30
ATOM     30  N   UNL     1      34.563 -12.132 -24.152  0.00  0.00    +0.383 N 
ATOM     31  H   UNL     1      35.096 -12.379 -24.986  0.00  0.00    -0.089 HD
ATOM     32  H   UNL     1      35.051 -11.396 -23.642  0.00  0.00    -0.089 HD
ATOM     33  H   UNL     1      33.638 -11.802 -24.426  0.00  0.00    -0.089 HD
ENDBRANCH  29  30
ENDBRANCH  26  29
ENDBRANCH   3  23
TORSDOF 7
ENDMDL
MODEL 6
REMARK VINA RESULT:     -10.6      3.752     11.936
REMARK  Name = 657077
REMARK  7 active torsions:
REMARK  status: ('A' for Active; 'I' for Inactive)
REMARK    1  A    between atoms: C_3  and  C_23
REMARK    2  A    between atoms: C_8  and  C_10
REMARK    3  A    between atoms: C_12  and  C_15
REMARK    4  A    between atoms: C_15  and  C_16
REMARK    5  A    between atoms: C_16  and  C_17
REMARK    6  A    between atoms: C_26  and  C_29
REMARK    7  A    between atoms: C_29  and  N_30
REMARK                            x       y       z     vdW  Elec       q    Type
REMARK                         _______ _______ _______ _____ _____    ______ ____
ROOT
ATOM      1  O   UNL     1      31.155 -10.717 -22.064  0.00  0.00    -0.270 OA
ATOM      2  N   UNL     1      32.712  -9.005 -22.396  0.00  0.00    -0.276 N 
ATOM      3  C   UNL     1      32.979  -6.217 -23.125  0.00  0.00    +0.026 C 
ATOM      4  C   UNL     1      33.784  -7.322 -23.837  0.00  0.00    +0.026 C 
ATOM      5  C   UNL     1      31.666  -6.786 -22.554  0.00  0.00    +0.026 C 
ATOM      6  C   UNL     1      33.998  -8.522 -22.914  0.00  0.00    +0.094 C 
ATOM      7  C   UNL     1      31.932  -8.003 -21.669  0.00  0.00    +0.094 C 
ATOM      8  C   UNL     1      32.221 -10.307 -22.521  0.00  0.00    +0.251 C 
ENDROOT
BRANCH   8  10
ATOM      9  N   UNL     1      34.199 -11.857 -25.295  0.00  0.00    -0.242 NA
ATOM     10  C   UNL     1      33.024 -11.280 -23.268  0.00  0.00    +0.072 C 
ATOM     11  C   UNL     1      33.368 -12.501 -22.705  0.00  0.00    +0.003 C 
ATOM     12  C   UNL     1      34.130 -13.404 -23.438  0.00  0.00    -0.003 C 
ATOM     13  C   UNL     1      33.456 -11.005 -24.551  0.00  0.00    +0.103 C 
ATOM     14  C   UNL     1      34.518 -13.036 -24.717  0.00  0.00    +0.095 C 
BRANCH  12  15
ATOM     15  C   UNL     1      34.519 -14.721 -22.867  0.00  0.00    +0.033 C 
BRANCH  15  16
ATOM     16  C   UNL     1      35.311 -15.621 -23.839  0.00  0.00    +0.031 C 
BRANCH  16  17
ATOM     17  C   UNL     1      35.298 -17.078 -23.441  0.00  0.00    -0.022 C 
ATOM     18  C   UNL     1      34.989 -18.039 -24.391  0.00  0.00    -0.004 C 
ATOM     19  C   UNL     1      35.595 -17.427 -22.134  0.00  0.00    -0.004 C 
ATOM     20  C   UNL     1      34.977 -19.384 -24.023  0.00  0.00    -0.000 C 
ATOM     21  C   UNL     1      35.585 -18.773 -21.766  0.00  0.00    -0.000 C 
ATOM     22  C   UNL     1      35.274 -19.751 -22.711  0.00  0.00    -0.000 C 
ENDBRANCH  16  17
ENDBRANCH  15  16
ENDBRANCH  12  15
ENDBRANCH   8  10
BRANCH   3  23
ATOM     23  C   UNL     1      32.738  -5.020 -24.025  0.00  0.00    -0.023 C 
ATOM     24  C   UNL     1      31.899  -3.991 -23.601  0.00  0.00    -0.011 C 
ATOM     25  C   UNL     1      33.357  -4.952 -25.272  0.00  0.00    -0.004 C 
ATOM     26  C   UNL     1      31.677  -2.890 -24.428  0.00  0.00    -0.045 C 
ATOM     27  C   UNL     1      33.135  -3.851 -26.099  0.00  0.00    -0.001 C 
ATOM     28  C   UNL     1      32.296  -2.820 -25.677  0.00  0.00    -0.006 C 
BRANCH  26  29
ATOM     29  C   UNL     1      30.781  -1.786 -23.977  0.00  0.00    -0.059 C 
BRANCH  29  30
ATOM     30  N   UNL     1      30.319  -1.970 -22.600  0.00  0.00    +0.383 N 
ATOM     31  H   UNL     1      31.021  -1.606 -21.955  0.00  0.00    -0.089 HD
ATOM     32  H   UNL     1      30.174  -2.963 -22.420  0.00  0.00    -0.089 HD
ATOM     33  H   UNL     1      29.442  -1.467 -22.466  0.00  0.00    -0.089 HD
ENDBRANCH  29  30
ENDBRANCH  26  29
ENDBRANCH   3  23
TORSDOF 7
ENDMDL
MODEL 7
REMARK VINA RESULT:     -10.6      4.108     11.537
REMARK  Name = 657077
REMARK  7 active torsions:
REMARK  status: ('A' for Active; 'I' for Inactive)
REMARK    1  A    between atoms: C_3  and  C_23
REMARK    2  A    between atoms: C_8  and  C_10
REMARK    3  A    between atoms: C_12  and  C_15
REMARK    4  A    between atoms: C_15  and  C_16
REMARK    5  A    between atoms: C_16  and  C_17
REMARK    6  A    between atoms: C_26  and  C_29
REMARK    7  A    between atoms: C_29  and  N_30
REMARK                            x       y       z     vdW  Elec       q    Type
REMARK                         _______ _______ _______ _____ _____    ______ ____
ROOT
ATOM      1  O   UNL     1      37.420 -21.230 -18.199  0.00  0.00    -0.270 OA
ATOM      2  N   UNL     1      36.351 -20.817 -20.237  0.00  0.00    -0.276 N 
ATOM      3  C   UNL     1      35.842 -18.773 -22.221  0.00  0.00    +0.026 C 
ATOM      4  C   UNL     1      34.700 -19.594 -21.591  0.00  0.00    +0.026 C 
ATOM      5  C   UNL     1      37.044 -18.693 -21.261  0.00  0.00    +0.026 C 
ATOM      6  C   UNL     1      35.200 -20.965 -21.135  0.00  0.00    +0.094 C 
ATOM      7  C   UNL     1      37.482 -20.086 -20.809  0.00  0.00    +0.094 C 
ATOM      8  C   UNL     1      36.445 -21.332 -18.942  0.00  0.00    +0.251 C 
ENDROOT
BRANCH   8  10
ATOM      9  N   UNL     1      32.993 -22.751 -18.654  0.00  0.00    -0.242 NA
ATOM     10  C   UNL     1      35.286 -22.048 -18.396  0.00  0.00    +0.072 C 
ATOM     11  C   UNL     1      35.357 -22.681 -17.164  0.00  0.00    +0.003 C 
ATOM     12  C   UNL     1      34.242 -23.352 -16.672  0.00  0.00    -0.003 C 
ATOM     13  C   UNL     1      34.097 -22.109 -19.098  0.00  0.00    +0.103 C 
ATOM     14  C   UNL     1      33.095 -23.358 -17.450  0.00  0.00    +0.095 C 
BRANCH  12  15
ATOM     15  C   UNL     1      34.281 -24.043 -15.356  0.00  0.00    +0.033 C 
BRANCH  15  16
ATOM     16  C   UNL     1      35.395 -25.103 -15.232  0.00  0.00    +0.031 C 
BRANCH  16  17
ATOM     17  C   UNL     1      36.353 -24.827 -14.098  0.00  0.00    -0.022 C 
ATOM     18  C   UNL     1      36.432 -23.547 -13.572  0.00  0.00    -0.004 C 
ATOM     19  C   UNL     1      37.136 -25.858 -13.605  0.00  0.00    -0.004 C 
ATOM     20  C   UNL     1      37.317 -23.292 -12.525  0.00  0.00    -0.000 C 
ATOM     21  C   UNL     1      38.021 -25.603 -12.557  0.00  0.00    -0.000 C 
ATOM     22  C   UNL     1      38.112 -24.319 -12.017  0.00  0.00    -0.000 C 
ENDBRANCH  16  17
ENDBRANCH  15  16
ENDBRANCH  12  15
ENDBRANCH   8  10
BRANCH   3  23
ATOM     23  C   UNL     1      35.376 -17.400 -22.666  0.00  0.00    -0.023 C 
ATOM     24  C   UNL     1      35.084 -17.167 -24.009  0.00  0.00    -0.011 C 
ATOM     25  C   UNL     1      35.240 -16.375 -21.731  0.00  0.00    -0.004 C 
ATOM     26  C   UNL     1      34.655 -15.905 -24.418  0.00  0.00    -0.045 C 
ATOM     27  C   UNL     1      34.811 -15.113 -22.141  0.00  0.00    -0.001 C 
ATOM     28  C   UNL     1      34.518 -14.878 -23.484  0.00  0.00    -0.006 C 
BRANCH  26  29
ATOM     29  C   UNL     1      34.341 -15.652 -25.855  0.00  0.00    -0.059 C 
BRANCH  29  30
ATOM     30  N   UNL     1      33.222 -14.723 -26.025  0.00  0.00    +0.383 N 
ATOM     31  H   UNL     1      32.707 -14.963 -26.872  0.00  0.00    -0.089 HD
ATOM     32  H   UNL     1      33.580 -13.771 -26.102  0.00  0.00    -0.089 HD
ATOM     33  H   UNL     1      32.601 -14.789 -25.219  0.00  0.00    -0.089 HD
ENDBRANCH  29  30
ENDBRANCH  26  29
ENDBRANCH   3  23
TORSDOF 7
ENDMDL
MODEL 8
REMARK VINA RESULT:     -10.4      4.165     10.925
REMARK  Name = 657077
REMARK  7 active torsions:
REMARK  status: ('A' for Active; 'I' for Inactive)
REMARK    1  A    between atoms: C_3  and  C_23
REMARK    2  A    between atoms: C_8  and  C_10
REMARK    3  A    between atoms: C_12  and  C_15
REMARK    4  A    between atoms: C_15  and  C_16
REMARK    5  A    between atoms: C_16  and  C_17
REMARK    6  A    between atoms: C_26  and  C_29
REMARK    7  A    between atoms: C_29  and  N_30
REMARK                            x       y       z     vdW  Elec       q    Type
REMARK                         _______ _______ _______ _____ _____    ______ ____
ROOT
ATOM      1  O   UNL     1      37.349 -21.184 -18.221  0.00  0.00    -0.270 OA
ATOM      2  N   UNL     1      36.358 -20.760 -20.296  0.00  0.00    -0.276 N 
ATOM      3  C   UNL     1      35.874 -18.691 -22.261  0.00  0.00    +0.026 C 
ATOM      4  C   UNL     1      34.731 -19.558 -21.698  0.00  0.00    +0.026 C 
ATOM      5  C   UNL     1      37.031 -18.595 -21.247  0.00  0.00    +0.026 C 
ATOM      6  C   UNL     1      35.252 -20.923 -21.247  0.00  0.00    +0.094 C 
ATOM      7  C   UNL     1      37.490 -19.984 -20.803  0.00  0.00    +0.094 C 
ATOM      8  C   UNL     1      36.411 -21.299 -19.008  0.00  0.00    +0.251 C 
ENDROOT
BRANCH   8  10
ATOM      9  N   UNL     1      33.026 -22.898 -18.938  0.00  0.00    -0.242 NA
ATOM     10  C   UNL     1      35.251 -22.059 -18.528  0.00  0.00    +0.072 C 
ATOM     11  C   UNL     1      35.256 -22.645 -17.271  0.00  0.00    +0.003 C 
ATOM     12  C   UNL     1      34.142 -23.360 -16.843  0.00  0.00    -0.003 C 
ATOM     13  C   UNL     1      34.128 -22.210 -19.318  0.00  0.00    +0.103 C 
ATOM     14  C   UNL     1      33.063 -23.457 -17.708  0.00  0.00    +0.095 C 
BRANCH  12  15
ATOM     15  C   UNL     1      34.111 -24.003 -15.502  0.00  0.00    +0.033 C 
BRANCH  15  16
ATOM     16  C   UNL     1      33.055 -23.413 -14.544  0.00  0.00    +0.031 C 
BRANCH  16  17
ATOM     17  C   UNL     1      31.653 -23.893 -14.839  0.00  0.00    -0.022 C 
ATOM     18  C   UNL     1      30.695 -22.979 -15.249  0.00  0.00    -0.004 C 
ATOM     19  C   UNL     1      31.352 -25.237 -14.693  0.00  0.00    -0.004 C 
ATOM     20  C   UNL     1      29.401 -23.423 -15.521  0.00  0.00    -0.000 C 
ATOM     21  C   UNL     1      30.057 -25.680 -14.966  0.00  0.00    -0.000 C 
ATOM     22  C   UNL     1      29.082 -24.773 -15.379  0.00  0.00    -0.000 C 
ENDBRANCH  16  17
ENDBRANCH  15  16
ENDBRANCH  12  15
ENDBRANCH   8  10
BRANCH   3  23
ATOM     23  C   UNL     1      35.387 -17.323 -22.699  0.00  0.00    -0.023 C 
ATOM     24  C   UNL     1      35.093 -17.088 -24.041  0.00  0.00    -0.011 C 
ATOM     25  C   UNL     1      35.233 -16.306 -21.759  0.00  0.00    -0.004 C 
ATOM     26  C   UNL     1      34.645 -15.831 -24.444  0.00  0.00    -0.045 C 
ATOM     27  C   UNL     1      34.785 -15.048 -22.163  0.00  0.00    -0.001 C 
ATOM     28  C   UNL     1      34.490 -14.811 -23.505  0.00  0.00    -0.006 C 
BRANCH  26  29
ATOM     29  C   UNL     1      34.328 -15.576 -25.880  0.00  0.00    -0.059 C 
BRANCH  29  30
ATOM     30  N   UNL     1      33.188 -14.672 -26.047  0.00  0.00    +0.383 N 
ATOM     31  H   UNL     1      33.084 -14.098 -25.210  0.00  0.00    -0.089 HD
ATOM     32  H   UNL     1      32.340 -15.218 -26.192  0.00  0.00    -0.089 HD
ATOM     33  H   UNL     1      33.348 -14.069 -26.854  0.00  0.00    -0.089 HD
ENDBRANCH  29  30
ENDBRANCH  26  29
ENDBRANCH   3  23
TORSDOF 7
ENDMDL
MODEL 9
REMARK VINA RESULT:     -10.3      2.110     10.083
REMARK  Name = 657077
REMARK  7 active torsions:
REMARK  status: ('A' for Active; 'I' for Inactive)
REMARK    1  A    between atoms: C_3  and  C_23
REMARK    2  A    between atoms: C_8  and  C_10
REMARK    3  A    between atoms: C_12  and  C_15
REMARK    4  A    between atoms: C_15  and  C_16
REMARK    5  A    between atoms: C_16  and  C_17
REMARK    6  A    between atoms: C_26  and  C_29
REMARK    7  A    between atoms: C_29  and  N_30
REMARK                            x       y       z     vdW  Elec       q    Type
REMARK                         _______ _______ _______ _____ _____    ______ ____
ROOT
ATOM      1  O   UNL     1      35.471 -15.402 -25.733  0.00  0.00    -0.270 OA
ATOM      2  N   UNL     1      33.972 -13.987 -24.628  0.00  0.00    -0.276 N 
ATOM      3  C   UNL     1      33.277 -11.209 -24.209  0.00  0.00    +0.026 C 
ATOM      4  C   UNL     1      33.503 -12.175 -23.030  0.00  0.00    +0.026 C 
ATOM      5  C   UNL     1      34.070 -11.671 -25.447  0.00  0.00    +0.026 C 
ATOM      6  C   UNL     1      33.197 -13.616 -23.438  0.00  0.00    +0.094 C 
ATOM      7  C   UNL     1      33.754 -13.127 -25.792  0.00  0.00    +0.094 C 
ATOM      8  C   UNL     1      34.841 -15.076 -24.727  0.00  0.00    +0.251 C 
ENDROOT
BRANCH   8  10
ATOM      9  N   UNL     1      35.167 -16.068 -21.132  0.00  0.00    -0.242 NA
ATOM     10  C   UNL     1      35.046 -15.908 -23.536  0.00  0.00    +0.072 C 
ATOM     11  C   UNL     1      35.302 -17.267 -23.654  0.00  0.00    +0.003 C 
ATOM     12  C   UNL     1      35.491 -18.030 -22.507  0.00  0.00    -0.003 C 
ATOM     13  C   UNL     1      34.988 -15.359 -22.270  0.00  0.00    +0.103 C 
ATOM     14  C   UNL     1      35.414 -17.389 -21.281  0.00  0.00    +0.095 C 
BRANCH  12  15
ATOM     15  C   UNL     1      35.767 -19.489 -22.593  0.00  0.00    +0.033 C 
BRANCH  15  16
ATOM     16  C   UNL     1      36.375 -20.094 -21.310  0.00  0.00    +0.031 C 
BRANCH  16  17
ATOM     17  C   UNL     1      35.371 -20.856 -20.479  0.00  0.00    -0.022 C 
ATOM     18  C   UNL     1      34.019 -20.594 -20.639  0.00  0.00    -0.004 C 
ATOM     19  C   UNL     1      35.819 -21.801 -19.572  0.00  0.00    -0.004 C 
ATOM     20  C   UNL     1      33.092 -21.298 -19.871  0.00  0.00    -0.000 C 
ATOM     21  C   UNL     1      34.891 -22.506 -18.804  0.00  0.00    -0.000 C 
ATOM     22  C   UNL     1      33.527 -22.253 -18.954  0.00  0.00    -0.000 C 
ENDBRANCH  16  17
ENDBRANCH  15  16
ENDBRANCH  12  15
ENDBRANCH   8  10
BRANCH   3  23
ATOM     23  C   UNL     1      33.592  -9.773 -23.836  0.00  0.00    -0.023 C 
ATOM     24  C   UNL     1      32.662  -9.022 -23.120  0.00  0.00    -0.011 C 
ATOM     25  C   UNL     1      34.811  -9.209 -24.209  0.00  0.00    -0.004 C 
ATOM     26  C   UNL     1      32.951  -7.702 -22.776  0.00  0.00    -0.045 C 
ATOM     27  C   UNL     1      35.100  -7.888 -23.865  0.00  0.00    -0.001 C 
ATOM     28  C   UNL     1      34.171  -7.135 -23.148  0.00  0.00    -0.006 C 
BRANCH  26  29
ATOM     29  C   UNL     1      31.958  -6.895 -22.008  0.00  0.00    -0.059 C 
BRANCH  29  30
ATOM     30  N   UNL     1      32.482  -5.581 -21.630  0.00  0.00    +0.383 N 
ATOM     31  H   UNL     1      32.629  -5.019 -22.469  0.00  0.00    -0.089 HD
ATOM     32  H   UNL     1      33.368  -5.696 -21.138  0.00  0.00    -0.089 HD
ATOM     33  H   UNL     1      31.813  -5.111 -21.020  0.00  0.00    -0.089 HD
ENDBRANCH  29  30
ENDBRANCH  26  29
ENDBRANCH   3  23
TORSDOF 7
ENDMDL
