MODEL 1
REMARK VINA RESULT:     -12.4      0.000      0.000
REMARK  Name = 24752833
REMARK  4 active torsions:
REMARK  status: ('A' for Active; 'I' for Inactive)
REMARK    1  A    between atoms: C_1  and  N_8
REMARK    2  A    between atoms: C_2  and  N_23
REMARK    3  A    between atoms: C_9  and  C_14
REMARK    4  A    between atoms: C_24  and  C_28
REMARK                            x       y       z     vdW  Elec       q    Type
REMARK                         _______ _______ _______ _____ _____    ______ ____
ROOT
ATOM      1  C   UNL     1      31.747 -23.349 -15.414  0.00  0.00    +0.090 C 
ATOM      2  C   UNL     1      31.296 -23.460 -16.881  0.00  0.00    +0.090 C 
ATOM      3  C   UNL     1      30.832 -24.154 -14.486  0.00  0.00    +0.021 C 
ATOM      4  C   UNL     1      29.816 -23.102 -17.045  0.00  0.00    +0.021 C 
ATOM      5  C   UNL     1      29.364 -23.779 -14.661  0.00  0.00    +0.002 C 
ATOM      6  C   UNL     1      28.925 -23.919 -16.115  0.00  0.00    +0.002 C 
ENDROOT
BRANCH   1   8
ATOM      7  O   UNL     1      33.127 -23.797 -12.936  0.00  0.00    -0.267 OA
ATOM      8  N   UNL     1      33.116 -23.788 -15.254  0.00  0.00    -0.298 N 
ATOM      9  C   UNL     1      33.695 -23.977 -14.009  0.00  0.00    +0.282 C 
ATOM     10  H   UNL     1      33.657 -23.961 -16.060  0.00  0.00    +0.150 HD
BRANCH   9  14
ATOM     11  S   UNL     1      35.756 -25.287 -15.351  0.00  0.00    -0.074 S 
ATOM     12  N   UNL     1      39.487 -26.167 -14.011  0.00  0.00    +0.387 N 
ATOM     13  N   UNL     1      35.949 -24.149 -13.026  0.00  0.00    -0.399 NA
ATOM     14  C   UNL     1      35.117 -24.407 -14.015  0.00  0.00    +0.210 C 
ATOM     15  C   UNL     1      37.179 -24.680 -13.346  0.00  0.00    +0.093 C 
ATOM     16  C   UNL     1      37.256 -25.334 -14.556  0.00  0.00    +0.082 C 
ATOM     17  C   UNL     1      38.351 -24.586 -12.435  0.00  0.00    +0.032 C 
ATOM     18  C   UNL     1      38.499 -25.958 -15.097  0.00  0.00    -0.059 C 
ATOM     19  C   UNL     1      39.655 -24.952 -13.182  0.00  0.00    -0.070 C 
ATOM     20  C   UNL     1      40.769 -26.594 -14.567  0.00  0.00    -0.101 C 
ATOM     21  H   UNL     1      39.129 -26.903 -13.401  0.00  0.00    -0.080 HD
ENDBRANCH   9  14
ENDBRANCH   1   8
BRANCH   2  23
ATOM     22  O   UNL     1      33.659 -24.235 -18.316  0.00  0.00    -0.269 OA
ATOM     23  N   UNL     1      32.102 -22.619 -17.738  0.00  0.00    -0.300 N 
ATOM     24  C   UNL     1      33.230 -23.087 -18.390  0.00  0.00    +0.259 C 
ATOM     25  H   UNL     1      31.838 -21.678 -17.862  0.00  0.00    +0.150 HD
BRANCH  24  28
ATOM     26 CL   UNL     1      36.060 -17.620 -23.054  0.00  0.00    -0.082 Cl
ATOM     27  N   UNL     1      35.321 -21.927 -19.177  0.00  0.00    -0.309 N 
ATOM     28  C   UNL     1      33.963 -22.090 -19.213  0.00  0.00    +0.102 C 
ATOM     29  C   UNL     1      33.451 -21.188 -20.116  0.00  0.00    +0.020 C 
ATOM     30  C   UNL     1      35.703 -20.930 -20.046  0.00  0.00    +0.048 C 
ATOM     31  C   UNL     1      34.541 -20.446 -20.653  0.00  0.00    +0.016 C 
ATOM     32  C   UNL     1      36.974 -20.423 -20.338  0.00  0.00    +0.015 C 
ATOM     33  C   UNL     1      34.651 -19.407 -21.597  0.00  0.00    +0.013 C 
ATOM     34  C   UNL     1      35.916 -18.891 -21.901  0.00  0.00    +0.058 C 
ATOM     35  C   UNL     1      37.059 -19.392 -21.279  0.00  0.00    +0.013 C 
ATOM     36  H   UNL     1      35.936 -22.447 -18.612  0.00  0.00    +0.152 HD
ENDBRANCH  24  28
ENDBRANCH   2  23
TORSDOF 4
ENDMDL
MODEL 2
REMARK VINA RESULT:     -11.8      2.726      7.532
REMARK  Name = 24752833
REMARK  4 active torsions:
REMARK  status: ('A' for Active; 'I' for Inactive)
REMARK    1  A    between atoms: C_1  and  N_8
REMARK    2  A    between atoms: C_2  and  N_23
REMARK    3  A    between atoms: C_9  and  C_14
REMARK    4  A    between atoms: C_24  and  C_28
REMARK                            x       y       z     vdW  Elec       q    Type
REMARK                         _______ _______ _______ _____ _____    ______ ____
ROOT
ATOM      1  C   UNL     1      31.192 -23.176 -16.732  0.00  0.00    +0.090 C 
ATOM      2  C   UNL     1      31.606 -22.897 -15.276  0.00  0.00    +0.090 C 
ATOM      3  C   UNL     1      29.721 -22.822 -16.971  0.00  0.00    +0.021 C 
ATOM      4  C   UNL     1      30.660 -23.575 -14.280  0.00  0.00    +0.021 C 
ATOM      5  C   UNL     1      28.796 -23.511 -15.972  0.00  0.00    +0.002 C 
ATOM      6  C   UNL     1      29.202 -23.205 -14.535  0.00  0.00    +0.002 C 
ENDROOT
BRANCH   1   8
ATOM      7  O   UNL     1      33.617 -24.111 -17.953  0.00  0.00    -0.267 OA
ATOM      8  N   UNL     1      32.029 -22.448 -17.660  0.00  0.00    -0.298 N 
ATOM      9  C   UNL     1      33.186 -22.988 -18.198  0.00  0.00    +0.282 C 
ATOM     10  H   UNL     1      31.766 -21.535 -17.921  0.00  0.00    +0.150 HD
BRANCH   9  14
ATOM     11  S   UNL     1      35.658 -21.967 -18.976  0.00  0.00    -0.074 S 
ATOM     12  N   UNL     1      36.450 -19.058 -21.696  0.00  0.00    +0.387 N 
ATOM     13  N   UNL     1      33.375 -21.391 -20.066  0.00  0.00    -0.399 NA
ATOM     14  C   UNL     1      33.947 -22.103 -19.117  0.00  0.00    +0.210 C 
ATOM     15  C   UNL     1      34.355 -20.689 -20.732  0.00  0.00    +0.093 C 
ATOM     16  C   UNL     1      35.642 -20.872 -20.274  0.00  0.00    +0.082 C 
ATOM     17  C   UNL     1      34.053 -19.764 -21.856  0.00  0.00    +0.032 C 
ATOM     18  C   UNL     1      36.847 -20.224 -20.870  0.00  0.00    -0.059 C 
ATOM     19  C   UNL     1      35.344 -19.392 -22.622  0.00  0.00    -0.070 C 
ATOM     20  C   UNL     1      37.603 -18.542 -22.433  0.00  0.00    -0.101 C 
ATOM     21  H   UNL     1      36.108 -18.331 -21.066  0.00  0.00    -0.080 HD
ENDBRANCH   9  14
ENDBRANCH   1   8
BRANCH   2  23
ATOM     22  O   UNL     1      32.451 -25.491 -14.380  0.00  0.00    -0.269 OA
ATOM     23  N   UNL     1      32.965 -23.327 -15.031  0.00  0.00    -0.300 N 
ATOM     24  C   UNL     1      33.273 -24.605 -14.598  0.00  0.00    +0.259 C 
ATOM     25  H   UNL     1      33.699 -22.687 -15.179  0.00  0.00    +0.150 HD
BRANCH  24  28
ATOM     26 CL   UNL     1      40.863 -26.032 -14.491  0.00  0.00    -0.082 Cl
ATOM     27  N   UNL     1      35.275 -25.009 -13.126  0.00  0.00    -0.309 N 
ATOM     28  C   UNL     1      34.715 -24.882 -14.368  0.00  0.00    +0.102 C 
ATOM     29  C   UNL     1      35.710 -25.051 -15.303  0.00  0.00    +0.020 C 
ATOM     30  C   UNL     1      36.624 -25.261 -13.238  0.00  0.00    +0.048 C 
ATOM     31  C   UNL     1      36.925 -25.292 -14.602  0.00  0.00    +0.016 C 
ATOM     32  C   UNL     1      37.592 -25.459 -12.247  0.00  0.00    +0.015 C 
ATOM     33  C   UNL     1      38.256 -25.534 -14.997  0.00  0.00    +0.013 C 
ATOM     34  C   UNL     1      39.234 -25.736 -14.017  0.00  0.00    +0.058 C 
ATOM     35  C   UNL     1      38.905 -25.698 -12.663  0.00  0.00    +0.013 C 
ATOM     36  H   UNL     1      34.785 -24.933 -12.276  0.00  0.00    +0.152 HD
ENDBRANCH  24  28
ENDBRANCH   2  23
TORSDOF 4
ENDMDL
MODEL 3
REMARK VINA RESULT:     -10.9      3.139      7.273
REMARK  Name = 24752833
REMARK  4 active torsions:
REMARK  status: ('A' for Active; 'I' for Inactive)
REMARK    1  A    between atoms: C_1  and  N_8
REMARK    2  A    between atoms: C_2  and  N_23
REMARK    3  A    between atoms: C_9  and  C_14
REMARK    4  A    between atoms: C_24  and  C_28
REMARK                            x       y       z     vdW  Elec       q    Type
REMARK                         _______ _______ _______ _____ _____    ______ ____
ROOT
ATOM      1  C   UNL     1      31.999 -24.019 -16.270  0.00  0.00    +0.090 C 
ATOM      2  C   UNL     1      32.541 -23.963 -14.830  0.00  0.00    +0.090 C 
ATOM      3  C   UNL     1      30.504 -23.689 -16.316  0.00  0.00    +0.021 C 
ATOM      4  C   UNL     1      31.708 -24.831 -13.880  0.00  0.00    +0.021 C 
ATOM      5  C   UNL     1      29.693 -24.566 -15.367  0.00  0.00    +0.002 C 
ATOM      6  C   UNL     1      30.225 -24.481 -13.941  0.00  0.00    +0.002 C 
ENDROOT
BRANCH   1   8
ATOM      7  O   UNL     1      33.592 -24.741 -18.547  0.00  0.00    -0.267 OA
ATOM      8  N   UNL     1      32.727 -23.117 -17.136  0.00  0.00    -0.298 N 
ATOM      9  C   UNL     1      33.471 -23.565 -18.216  0.00  0.00    +0.282 C 
ATOM     10  H   UNL     1      32.692 -22.150 -16.951  0.00  0.00    +0.150 HD
BRANCH   9  14
ATOM     11  S   UNL     1      33.306 -21.466 -20.041  0.00  0.00    -0.074 S 
ATOM     12  N   UNL     1      36.328 -19.403 -21.801  0.00  0.00    +0.387 N 
ATOM     13  N   UNL     1      35.484 -22.332 -18.927  0.00  0.00    -0.399 NA
ATOM     14  C   UNL     1      34.181 -22.515 -18.992  0.00  0.00    +0.210 C 
ATOM     15  C   UNL     1      35.817 -21.288 -19.760  0.00  0.00    +0.093 C 
ATOM     16  C   UNL     1      34.771 -20.708 -20.445  0.00  0.00    +0.082 C 
ATOM     17  C   UNL     1      37.218 -20.826 -19.942  0.00  0.00    +0.032 C 
ATOM     18  C   UNL     1      34.914 -19.552 -21.379  0.00  0.00    -0.059 C 
ATOM     19  C   UNL     1      37.254 -19.449 -20.647  0.00  0.00    -0.070 C 
ATOM     20  C   UNL     1      36.503 -18.163 -22.555  0.00  0.00    -0.101 C 
ATOM     21  H   UNL     1      36.559 -20.193 -22.406  0.00  0.00    -0.080 HD
ENDBRANCH   9  14
ENDBRANCH   1   8
BRANCH   2  23
ATOM     22  O   UNL     1      34.838 -22.311 -15.316  0.00  0.00    -0.269 OA
ATOM     23  N   UNL     1      33.927 -24.374 -14.780  0.00  0.00    -0.300 N 
ATOM     24  C   UNL     1      34.970 -23.498 -15.032  0.00  0.00    +0.259 C 
ATOM     25  H   UNL     1      34.136 -25.310 -14.559  0.00  0.00    +0.150 HD
BRANCH  24  28
ATOM     26 CL   UNL     1      41.670 -27.170 -13.902  0.00  0.00    -0.082 Cl
ATOM     27  N   UNL     1      37.370 -23.685 -15.769  0.00  0.00    -0.309 N 
ATOM     28  C   UNL     1      36.335 -24.082 -14.966  0.00  0.00    +0.102 C 
ATOM     29  C   UNL     1      36.798 -25.077 -14.137  0.00  0.00    +0.020 C 
ATOM     30  C   UNL     1      38.503 -24.408 -15.475  0.00  0.00    +0.048 C 
ATOM     31  C   UNL     1      38.170 -25.294 -14.447  0.00  0.00    +0.016 C 
ATOM     32  C   UNL     1      39.785 -24.347 -16.033  0.00  0.00    +0.015 C 
ATOM     33  C   UNL     1      39.163 -26.162 -13.952  0.00  0.00    +0.013 C 
ATOM     34  C   UNL     1      40.450 -26.112 -14.501  0.00  0.00    +0.058 C 
ATOM     35  C   UNL     1      40.754 -25.218 -15.526  0.00  0.00    +0.013 C 
ATOM     36  H   UNL     1      37.312 -22.984 -16.457  0.00  0.00    +0.152 HD
ENDBRANCH  24  28
ENDBRANCH   2  23
TORSDOF 4
ENDMDL
MODEL 4
REMARK VINA RESULT:     -10.0      3.069      8.186
REMARK  Name = 24752833
REMARK  4 active torsions:
REMARK  status: ('A' for Active; 'I' for Inactive)
REMARK    1  A    between atoms: C_1  and  N_8
REMARK    2  A    between atoms: C_2  and  N_23
REMARK    3  A    between atoms: C_9  and  C_14
REMARK    4  A    between atoms: C_24  and  C_28
REMARK                            x       y       z     vdW  Elec       q    Type
REMARK                         _______ _______ _______ _____ _____    ______ ____
ROOT
ATOM      1  C   UNL     1      37.722 -24.032 -15.443  0.00  0.00    +0.090 C 
ATOM      2  C   UNL     1      36.933 -25.354 -15.456  0.00  0.00    +0.090 C 
ATOM      3  C   UNL     1      39.223 -24.281 -15.267  0.00  0.00    +0.021 C 
ATOM      4  C   UNL     1      37.256 -26.217 -14.233  0.00  0.00    +0.021 C 
ATOM      5  C   UNL     1      39.523 -25.138 -14.041  0.00  0.00    +0.002 C 
ATOM      6  C   UNL     1      38.755 -26.454 -14.082  0.00  0.00    +0.002 C 
ENDROOT
BRANCH   1   8
ATOM      7  O   UNL     1      35.714 -22.019 -15.843  0.00  0.00    -0.267 OA
ATOM      8  N   UNL     1      37.488 -23.273 -16.652  0.00  0.00    -0.298 N 
ATOM      9  C   UNL     1      36.489 -22.318 -16.747  0.00  0.00    +0.282 C 
ATOM     10  H   UNL     1      38.061 -23.441 -17.436  0.00  0.00    +0.150 HD
BRANCH   9  14
ATOM     11  S   UNL     1      35.030 -21.995 -19.099  0.00  0.00    -0.074 S 
ATOM     12  N   UNL     1      36.023 -19.881 -22.420  0.00  0.00    +0.387 N 
ATOM     13  N   UNL     1      37.236 -20.763 -18.508  0.00  0.00    -0.399 NA
ATOM     14  C   UNL     1      36.362 -21.643 -18.065  0.00  0.00    +0.210 C 
ATOM     15  C   UNL     1      36.825 -20.332 -19.749  0.00  0.00    +0.093 C 
ATOM     16  C   UNL     1      35.662 -20.895 -20.227  0.00  0.00    +0.082 C 
ATOM     17  C   UNL     1      37.598 -19.343 -20.548  0.00  0.00    +0.032 C 
ATOM     18  C   UNL     1      35.036 -20.549 -21.537  0.00  0.00    -0.059 C 
ATOM     19  C   UNL     1      36.744 -18.796 -21.716  0.00  0.00    -0.070 C 
ATOM     20  C   UNL     1      35.365 -19.370 -23.621  0.00  0.00    -0.101 C 
ATOM     21  H   UNL     1      36.718 -20.577 -22.695  0.00  0.00    -0.080 HD
ENDBRANCH   9  14
ENDBRANCH   1   8
BRANCH   2  23
ATOM     22  O   UNL     1      35.276 -24.306 -13.359  0.00  0.00    -0.269 OA
ATOM     23  N   UNL     1      35.509 -25.108 -15.521  0.00  0.00    -0.300 N 
ATOM     24  C   UNL     1      34.794 -24.598 -14.450  0.00  0.00    +0.259 C 
ATOM     25  H   UNL     1      35.030 -25.310 -16.357  0.00  0.00    +0.150 HD
BRANCH  24  28
ATOM     26 CL   UNL     1      27.446 -22.682 -15.855  0.00  0.00    -0.082 Cl
ATOM     27  N   UNL     1      32.418 -25.429 -14.493  0.00  0.00    -0.309 N 
ATOM     28  C   UNL     1      33.334 -24.427 -14.668  0.00  0.00    +0.102 C 
ATOM     29  C   UNL     1      32.658 -23.298 -15.067  0.00  0.00    +0.020 C 
ATOM     30  C   UNL     1      31.152 -24.967 -14.772  0.00  0.00    +0.048 C 
ATOM     31  C   UNL     1      31.274 -23.624 -15.137  0.00  0.00    +0.016 C 
ATOM     32  C   UNL     1      29.919 -25.628 -14.731  0.00  0.00    +0.015 C 
ATOM     33  C   UNL     1      30.112 -22.905 -15.478  0.00  0.00    +0.013 C 
ATOM     34  C   UNL     1      28.872 -23.553 -15.440  0.00  0.00    +0.058 C 
ATOM     35  C   UNL     1      28.779 -24.894 -15.073  0.00  0.00    +0.013 C 
ATOM     36  H   UNL     1      32.633 -26.346 -14.208  0.00  0.00    +0.152 HD
ENDBRANCH  24  28
ENDBRANCH   2  23
TORSDOF 4
ENDMDL
MODEL 5
REMARK VINA RESULT:     -10.0      2.103      6.252
REMARK  Name = 24752833
REMARK  4 active torsions:
REMARK  status: ('A' for Active; 'I' for Inactive)
REMARK    1  A    between atoms: C_1  and  N_8
REMARK    2  A    between atoms: C_2  and  N_23
REMARK    3  A    between atoms: C_9  and  C_14
REMARK    4  A    between atoms: C_24  and  C_28
REMARK                            x       y       z     vdW  Elec       q    Type
REMARK                         _______ _______ _______ _____ _____    ______ ____
ROOT
ATOM      1  C   UNL     1      37.071 -25.387 -15.507  0.00  0.00    +0.090 C 
ATOM      2  C   UNL     1      37.878 -24.078 -15.432  0.00  0.00    +0.090 C 
ATOM      3  C   UNL     1      37.344 -26.281 -14.293  0.00  0.00    +0.021 C 
ATOM      4  C   UNL     1      39.370 -24.347 -15.212  0.00  0.00    +0.021 C 
ATOM      5  C   UNL     1      38.835 -26.539 -14.094  0.00  0.00    +0.002 C 
ATOM      6  C   UNL     1      39.617 -25.234 -13.996  0.00  0.00    +0.002 C 
ENDROOT
BRANCH   1   8
ATOM      7  O   UNL     1      35.367 -24.345 -13.445  0.00  0.00    -0.267 OA
ATOM      8  N   UNL     1      35.653 -25.121 -15.611  0.00  0.00    -0.298 N 
ATOM      9  C   UNL     1      34.914 -24.614 -14.554  0.00  0.00    +0.282 C 
ATOM     10  H   UNL     1      35.197 -25.305 -16.464  0.00  0.00    +0.150 HD
BRANCH   9  14
ATOM     11  S   UNL     1      32.925 -23.137 -15.827  0.00  0.00    -0.074 S 
ATOM     12  N   UNL     1      28.897 -23.440 -15.417  0.00  0.00    +0.387 N 
ATOM     13  N   UNL     1      32.532 -25.194 -14.294  0.00  0.00    -0.399 NA
ATOM     14  C   UNL     1      33.464 -24.420 -14.812  0.00  0.00    +0.210 C 
ATOM     15  C   UNL     1      31.306 -24.746 -14.731  0.00  0.00    +0.093 C 
ATOM     16  C   UNL     1      31.327 -23.644 -15.557  0.00  0.00    +0.082 C 
ATOM     17  C   UNL     1      30.028 -25.385 -14.317  0.00  0.00    +0.032 C 
ATOM     18  C   UNL     1      30.111 -23.017 -16.156  0.00  0.00    -0.059 C 
ATOM     19  C   UNL     1      28.861 -24.906 -15.213  0.00  0.00    -0.070 C 
ATOM     20  C   UNL     1      27.695 -22.987 -16.116  0.00  0.00    -0.101 C 
ATOM     21  H   UNL     1      28.925 -23.006 -14.494  0.00  0.00    -0.080 HD
ENDBRANCH   9  14
ENDBRANCH   1   8
BRANCH   2  23
ATOM     22  O   UNL     1      36.064 -21.879 -15.770  0.00  0.00    -0.269 OA
ATOM     23  N   UNL     1      37.694 -23.286 -16.628  0.00  0.00    -0.300 N 
ATOM     24  C   UNL     1      36.789 -22.240 -16.693  0.00  0.00    +0.259 C 
ATOM     25  H   UNL     1      38.232 -23.498 -17.425  0.00  0.00    +0.150 HD
BRANCH  24  28
ATOM     26 CL   UNL     1      35.526 -19.305 -23.725  0.00  0.00    -0.082 Cl
ATOM     27  N   UNL     1      37.497 -20.484 -18.353  0.00  0.00    -0.309 N 
ATOM     28  C   UNL     1      36.701 -21.541 -18.002  0.00  0.00    +0.102 C 
ATOM     29  C   UNL     1      35.852 -21.801 -19.052  0.00  0.00    +0.020 C 
ATOM     30  C   UNL     1      37.178 -20.052 -19.621  0.00  0.00    +0.048 C 
ATOM     31  C   UNL     1      36.142 -20.866 -20.085  0.00  0.00    +0.016 C 
ATOM     32  C   UNL     1      37.721 -19.012 -20.384  0.00  0.00    +0.015 C 
ATOM     33  C   UNL     1      35.622 -20.633 -21.374  0.00  0.00    +0.013 C 
ATOM     34  C   UNL     1      36.156 -19.597 -22.149  0.00  0.00    +0.058 C 
ATOM     35  C   UNL     1      37.189 -18.800 -21.660  0.00  0.00    +0.013 C 
ATOM     36  H   UNL     1      38.196 -20.091 -17.783  0.00  0.00    +0.152 HD
ENDBRANCH  24  28
ENDBRANCH   2  23
TORSDOF 4
ENDMDL
