MODEL 1
REMARK VINA RESULT:     -11.6      0.000      0.000
REMARK  Name = 5288527
REMARK  4 active torsions:
REMARK  status: ('A' for Active; 'I' for Inactive)
REMARK    1  A    between atoms: N_1  and  C_18
REMARK    2  A    between atoms: C_4  and  C_11
REMARK    3  A    between atoms: C_19  and  S_24
REMARK    4  A    between atoms: S_24  and  N_27
REMARK                            x       y       z     vdW  Elec       q    Type
REMARK                         _______ _______ _______ _____ _____    ______ ____
ROOT
ATOM      1  N   UNL     1      35.085 -25.032 -13.122  0.00  0.00    -0.247 N 
ATOM      2  N   UNL     1      34.197 -24.034 -15.051  0.00  0.00    -0.336 NA
ATOM      3  N   UNL     1      32.807 -24.471 -13.132  0.00  0.00    -0.170 NA
ATOM      4  C   UNL     1      33.113 -23.519 -15.666  0.00  0.00    +0.161 C 
ATOM      5  C   UNL     1      33.974 -24.485 -13.802  0.00  0.00    +0.149 C 
ATOM      6  C   UNL     1      31.863 -23.444 -15.093  0.00  0.00    +0.056 C 
ATOM      7  C   UNL     1      31.767 -23.941 -13.810  0.00  0.00    +0.114 C 
ATOM      8  H   UNL     1      34.876 -25.349 -12.214  0.00  0.00    +0.165 HD
ENDROOT
BRANCH   4  11
ATOM      9  N   UNL     1      34.577 -22.642 -17.490  0.00  0.00    -0.246 N 
ATOM     10  N   UNL     1      33.116 -22.383 -19.164  0.00  0.00    -0.227 NA
ATOM     11  C   UNL     1      33.356 -23.037 -17.005  0.00  0.00    +0.107 C 
ATOM     12  C   UNL     1      34.378 -22.252 -18.812  0.00  0.00    +0.139 C 
ATOM     13  C   UNL     1      32.479 -22.868 -18.050  0.00  0.00    +0.118 C 
ATOM     14  C   UNL     1      35.815 -22.608 -16.853  0.00  0.00    +0.071 C 
ATOM     15  C   UNL     1      35.523 -21.796 -19.530  0.00  0.00    +0.035 C 
ATOM     16  C   UNL     1      36.887 -22.178 -17.536  0.00  0.00    +0.017 C 
ATOM     17  C   UNL     1      36.723 -21.760 -18.920  0.00  0.00    +0.004 C 
ENDBRANCH   4  11
BRANCH   1  18
ATOM     18  C   UNL     1      36.432 -25.212 -13.489  0.00  0.00    +0.058 C 
ATOM     19  C   UNL     1      39.104 -25.571 -14.217  0.00  0.00    +0.122 C 
ATOM     20  C   UNL     1      37.451 -24.674 -12.701  0.00  0.00    +0.017 C 
ATOM     21  C   UNL     1      36.753 -25.931 -14.642  0.00  0.00    +0.017 C 
ATOM     22  C   UNL     1      38.785 -24.853 -13.064  0.00  0.00    +0.021 C 
ATOM     23  C   UNL     1      38.087 -26.110 -15.006  0.00  0.00    +0.021 C 
BRANCH  19  24
ATOM     24  S   UNL     1      40.774 -25.795 -14.674  0.00  0.00    +0.057 S 
ATOM     25  O   UNL     1      41.469 -24.526 -14.508  0.00  0.00    -0.153 OA
ATOM     26  O   UNL     1      41.279 -26.988 -14.010  0.00  0.00    -0.153 OA
BRANCH  24  27
ATOM     27  N   UNL     1      40.615 -26.122 -16.344  0.00  0.00    -0.203 NA
ATOM     28  H   UNL     1      39.677 -25.867 -16.651  0.00  0.00    +0.144 HD
ATOM     29  H   UNL     1      40.770 -27.117 -16.511  0.00  0.00    +0.144 HD
ENDBRANCH  24  27
ENDBRANCH  19  24
ENDBRANCH   1  18
TORSDOF 4
ENDMDL
MODEL 2
REMARK VINA RESULT:     -11.3      4.921      6.959
REMARK  Name = 5288527
REMARK  4 active torsions:
REMARK  status: ('A' for Active; 'I' for Inactive)
REMARK    1  A    between atoms: N_1  and  C_18
REMARK    2  A    between atoms: C_4  and  C_11
REMARK    3  A    between atoms: C_19  and  S_24
REMARK    4  A    between atoms: S_24  and  N_27
REMARK                            x       y       z     vdW  Elec       q    Type
REMARK                         _______ _______ _______ _____ _____    ______ ____
ROOT
ATOM      1  N   UNL     1      32.852 -24.705 -13.308  0.00  0.00    -0.247 N 
ATOM      2  N   UNL     1      34.667 -23.864 -14.534  0.00  0.00    -0.336 NA
ATOM      3  N   UNL     1      35.005 -24.948 -12.409  0.00  0.00    -0.170 NA
ATOM      4  C   UNL     1      36.001 -23.684 -14.607  0.00  0.00    +0.161 C 
ATOM      5  C   UNL     1      34.244 -24.495 -13.422  0.00  0.00    +0.149 C 
ATOM      6  C   UNL     1      36.890 -24.098 -13.640  0.00  0.00    +0.056 C 
ATOM      7  C   UNL     1      36.330 -24.732 -12.551  0.00  0.00    +0.114 C 
ATOM      8  H   UNL     1      32.588 -25.169 -12.481  0.00  0.00    +0.165 HD
ENDROOT
BRANCH   4  11
ATOM      9  N   UNL     1      35.687 -22.794 -16.919  0.00  0.00    -0.246 N 
ATOM     10  N   UNL     1      37.691 -21.894 -17.339  0.00  0.00    -0.227 NA
ATOM     11  C   UNL     1      36.451 -23.006 -15.799  0.00  0.00    +0.107 C 
ATOM     12  C   UNL     1      36.489 -22.112 -17.830  0.00  0.00    +0.139 C 
ATOM     13  C   UNL     1      37.673 -22.444 -16.083  0.00  0.00    +0.118 C 
ATOM     14  C   UNL     1      34.367 -23.157 -17.174  0.00  0.00    +0.071 C 
ATOM     15  C   UNL     1      35.901 -21.778 -19.086  0.00  0.00    +0.035 C 
ATOM     16  C   UNL     1      33.821 -22.840 -18.358  0.00  0.00    +0.017 C 
ATOM     17  C   UNL     1      34.625 -22.127 -19.339  0.00  0.00    +0.004 C 
ENDBRANCH   4  11
BRANCH   1  18
ATOM     18  C   UNL     1      31.768 -24.381 -14.145  0.00  0.00    +0.058 C 
ATOM     19  C   UNL     1      29.617 -23.737 -15.806  0.00  0.00    +0.122 C 
ATOM     20  C   UNL     1      30.861 -25.370 -14.531  0.00  0.00    +0.017 C 
ATOM     21  C   UNL     1      31.596 -23.069 -14.592  0.00  0.00    +0.017 C 
ATOM     22  C   UNL     1      29.787 -25.048 -15.361  0.00  0.00    +0.021 C 
ATOM     23  C   UNL     1      30.523 -22.747 -15.421  0.00  0.00    +0.021 C 
BRANCH  19  24
ATOM     24  S   UNL     1      28.274 -23.334 -16.845  0.00  0.00    +0.057 S 
ATOM     25  O   UNL     1      28.609 -22.122 -17.579  0.00  0.00    -0.153 OA
ATOM     26  O   UNL     1      27.873 -24.531 -17.570  0.00  0.00    -0.153 OA
BRANCH  24  27
ATOM     27  N   UNL     1      27.069 -22.963 -15.691  0.00  0.00    -0.203 NA
ATOM     28  H   UNL     1      27.323 -23.371 -14.792  0.00  0.00    +0.144 HD
ATOM     29  H   UNL     1      26.174 -23.346 -15.998  0.00  0.00    +0.144 HD
ENDBRANCH  24  27
ENDBRANCH  19  24
ENDBRANCH   1  18
TORSDOF 4
ENDMDL
MODEL 3
REMARK VINA RESULT:      -9.7      1.754      2.931
REMARK  Name = 5288527
REMARK  4 active torsions:
REMARK  status: ('A' for Active; 'I' for Inactive)
REMARK    1  A    between atoms: N_1  and  C_18
REMARK    2  A    between atoms: C_4  and  C_11
REMARK    3  A    between atoms: C_19  and  S_24
REMARK    4  A    between atoms: S_24  and  N_27
REMARK                            x       y       z     vdW  Elec       q    Type
REMARK                         _______ _______ _______ _____ _____    ______ ____
ROOT
ATOM      1  N   UNL     1      34.780 -24.784 -15.201  0.00  0.00    -0.247 N 
ATOM      2  N   UNL     1      34.808 -23.365 -17.069  0.00  0.00    -0.336 NA
ATOM      3  N   UNL     1      32.732 -23.966 -16.004  0.00  0.00    -0.170 NA
ATOM      4  C   UNL     1      34.097 -22.625 -17.943  0.00  0.00    +0.161 C 
ATOM      5  C   UNL     1      34.072 -24.000 -16.138  0.00  0.00    +0.149 C 
ATOM      6  C   UNL     1      32.726 -22.506 -17.917  0.00  0.00    +0.056 C 
ATOM      7  C   UNL     1      32.088 -23.207 -16.914  0.00  0.00    +0.114 C 
ATOM      8  H   UNL     1      34.202 -25.230 -14.540  0.00  0.00    +0.165 HD
ENDROOT
BRANCH   4  11
ATOM      9  N   UNL     1      34.385 -21.200 -19.974  0.00  0.00    -0.246 N 
ATOM     10  N   UNL     1      36.612 -21.132 -20.173  0.00  0.00    -0.227 NA
ATOM     11  C   UNL     1      34.891 -21.947 -18.940  0.00  0.00    +0.107 C 
ATOM     12  C   UNL     1      35.476 -20.724 -20.698  0.00  0.00    +0.139 C 
ATOM     13  C   UNL     1      36.257 -21.889 -19.085  0.00  0.00    +0.118 C 
ATOM     14  C   UNL     1      33.061 -20.924 -20.303  0.00  0.00    +0.071 C 
ATOM     15  C   UNL     1      35.191 -19.911 -21.834  0.00  0.00    +0.035 C 
ATOM     16  C   UNL     1      32.802 -20.159 -21.375  0.00  0.00    +0.017 C 
ATOM     17  C   UNL     1      33.912 -19.641 -22.159  0.00  0.00    +0.004 C 
ENDBRANCH   4  11
BRANCH   1  18
ATOM     18  C   UNL     1      36.150 -25.054 -15.027  0.00  0.00    +0.058 C 
ATOM     19  C   UNL     1      38.869 -25.589 -14.681  0.00  0.00    +0.122 C 
ATOM     20  C   UNL     1      36.666 -26.308 -15.363  0.00  0.00    +0.017 C 
ATOM     21  C   UNL     1      36.999 -24.069 -14.517  0.00  0.00    +0.017 C 
ATOM     22  C   UNL     1      38.023 -26.575 -15.190  0.00  0.00    +0.021 C 
ATOM     23  C   UNL     1      38.356 -24.336 -14.344  0.00  0.00    +0.021 C 
BRANCH  19  24
ATOM     24  S   UNL     1      40.569 -25.923 -14.463  0.00  0.00    +0.057 S 
ATOM     25  O   UNL     1      41.231 -24.690 -14.060  0.00  0.00    -0.153 OA
ATOM     26  O   UNL     1      40.705 -27.118 -13.643  0.00  0.00    -0.153 OA
BRANCH  24  27
ATOM     27  N   UNL     1      41.034 -26.301 -16.064  0.00  0.00    -0.203 NA
ATOM     28  H   UNL     1      41.255 -25.441 -16.565  0.00  0.00    +0.144 HD
ATOM     29  H   UNL     1      40.268 -26.783 -16.535  0.00  0.00    +0.144 HD
ENDBRANCH  24  27
ENDBRANCH  19  24
ENDBRANCH   1  18
TORSDOF 4
ENDMDL
MODEL 4
REMARK VINA RESULT:      -9.4     14.003     16.967
REMARK  Name = 5288527
REMARK  4 active torsions:
REMARK  status: ('A' for Active; 'I' for Inactive)
REMARK    1  A    between atoms: N_1  and  C_18
REMARK    2  A    between atoms: C_4  and  C_11
REMARK    3  A    between atoms: C_19  and  S_24
REMARK    4  A    between atoms: S_24  and  N_27
REMARK                            x       y       z     vdW  Elec       q    Type
REMARK                         _______ _______ _______ _____ _____    ______ ____
ROOT
ATOM      1  N   UNL     1      31.934  -8.720 -21.131  0.00  0.00    -0.247 N 
ATOM      2  N   UNL     1      32.576 -10.851 -21.873  0.00  0.00    -0.336 NA
ATOM      3  N   UNL     1      31.463 -10.562 -19.756  0.00  0.00    -0.170 NA
ATOM      4  C   UNL     1      32.614 -12.175 -21.626  0.00  0.00    +0.161 C 
ATOM      5  C   UNL     1      31.994 -10.113 -20.909  0.00  0.00    +0.149 C 
ATOM      6  C   UNL     1      32.108 -12.763 -20.488  0.00  0.00    +0.056 C 
ATOM      7  C   UNL     1      31.537 -11.897 -19.577  0.00  0.00    +0.114 C 
ATOM      8  H   UNL     1      31.500  -8.221 -20.401  0.00  0.00    +0.165 HD
ENDROOT
BRANCH   4  11
ATOM      9  N   UNL     1      33.953 -14.115 -22.451  0.00  0.00    -0.246 N 
ATOM     10  N   UNL     1      33.977 -13.748 -24.658  0.00  0.00    -0.227 NA
ATOM     11  C   UNL     1      33.240 -12.962 -22.662  0.00  0.00    +0.107 C 
ATOM     12  C   UNL     1      34.383 -14.556 -23.701  0.00  0.00    +0.139 C 
ATOM     13  C   UNL     1      33.269 -12.760 -24.021  0.00  0.00    +0.118 C 
ATOM     14  C   UNL     1      34.238 -14.776 -21.260  0.00  0.00    +0.071 C 
ATOM     15  C   UNL     1      35.154 -15.755 -23.732  0.00  0.00    +0.035 C 
ATOM     16  C   UNL     1      34.965 -15.904 -21.299  0.00  0.00    +0.017 C 
ATOM     17  C   UNL     1      35.434 -16.400 -22.583  0.00  0.00    +0.004 C 
ENDBRANCH   4  11
BRANCH   1  18
ATOM     18  C   UNL     1      32.371  -7.905 -22.192  0.00  0.00    +0.058 C 
ATOM     19  C   UNL     1      33.237  -6.287 -24.297  0.00  0.00    +0.122 C 
ATOM     20  C   UNL     1      33.693  -7.456 -22.233  0.00  0.00    +0.017 C 
ATOM     21  C   UNL     1      31.484  -7.541 -23.208  0.00  0.00    +0.017 C 
ATOM     22  C   UNL     1      34.125  -6.648 -23.283  0.00  0.00    +0.021 C 
ATOM     23  C   UNL     1      31.916  -6.733 -24.258  0.00  0.00    +0.021 C 
BRANCH  19  24
ATOM     24  S   UNL     1      33.778  -5.274 -25.612  0.00  0.00    +0.057 S 
ATOM     25  O   UNL     1      35.227  -5.152 -25.532  0.00  0.00    -0.153 OA
ATOM     26  O   UNL     1      33.159  -5.745 -26.843  0.00  0.00    -0.153 OA
BRANCH  24  27
ATOM     27  N   UNL     1      33.074  -3.777 -25.183  0.00  0.00    -0.203 NA
ATOM     28  H   UNL     1      32.265  -3.599 -25.778  0.00  0.00    +0.144 HD
ATOM     29  H   UNL     1      33.759  -3.031 -25.306  0.00  0.00    +0.144 HD
ENDBRANCH  24  27
ENDBRANCH  19  24
ENDBRANCH   1  18
TORSDOF 4
ENDMDL
MODEL 5
REMARK VINA RESULT:      -9.4      4.937      6.961
REMARK  Name = 5288527
REMARK  4 active torsions:
REMARK  status: ('A' for Active; 'I' for Inactive)
REMARK    1  A    between atoms: N_1  and  C_18
REMARK    2  A    between atoms: C_4  and  C_11
REMARK    3  A    between atoms: C_19  and  S_24
REMARK    4  A    between atoms: S_24  and  N_27
REMARK                            x       y       z     vdW  Elec       q    Type
REMARK                         _______ _______ _______ _____ _____    ______ ____
ROOT
ATOM      1  N   UNL     1      34.510 -23.839 -15.027  0.00  0.00    -0.247 N 
ATOM      2  N   UNL     1      35.573 -22.643 -16.742  0.00  0.00    -0.336 NA
ATOM      3  N   UNL     1      36.855 -23.843 -15.092  0.00  0.00    -0.170 NA
ATOM      4  C   UNL     1      36.735 -22.265 -17.310  0.00  0.00    +0.161 C 
ATOM      5  C   UNL     1      35.705 -23.421 -15.651  0.00  0.00    +0.149 C 
ATOM      6  C   UNL     1      37.978 -22.627 -16.840  0.00  0.00    +0.056 C 
ATOM      7  C   UNL     1      37.977 -23.426 -15.715  0.00  0.00    +0.114 C 
ATOM      8  H   UNL     1      34.654 -24.405 -14.234  0.00  0.00    +0.165 HD
ENDROOT
BRANCH   4  11
ATOM      9  N   UNL     1      35.449 -21.329 -19.235  0.00  0.00    -0.246 N 
ATOM     10  N   UNL     1      36.958 -19.973 -20.178  0.00  0.00    -0.227 NA
ATOM     11  C   UNL     1      36.589 -21.431 -18.479  0.00  0.00    +0.107 C 
ATOM     12  C   UNL     1      35.725 -20.427 -20.260  0.00  0.00    +0.139 C 
ATOM     13  C   UNL     1      37.498 -20.590 -19.078  0.00  0.00    +0.118 C 
ATOM     14  C   UNL     1      34.221 -21.964 -19.077  0.00  0.00    +0.071 C 
ATOM     15  C   UNL     1      34.673 -20.158 -21.184  0.00  0.00    +0.035 C 
ATOM     16  C   UNL     1      33.236 -21.706 -19.951  0.00  0.00    +0.017 C 
ATOM     17  C   UNL     1      33.482 -20.770 -21.038  0.00  0.00    +0.004 C 
ENDBRANCH   4  11
BRANCH   1  18
ATOM     18  C   UNL     1      33.152 -23.606 -15.315  0.00  0.00    +0.058 C 
ATOM     19  C   UNL     1      30.458 -23.143 -15.886  0.00  0.00    +0.122 C 
ATOM     20  C   UNL     1      32.711 -23.580 -16.640  0.00  0.00    +0.017 C 
ATOM     21  C   UNL     1      32.241 -23.399 -14.276  0.00  0.00    +0.017 C 
ATOM     22  C   UNL     1      31.366 -23.349 -16.925  0.00  0.00    +0.021 C 
ATOM     23  C   UNL     1      30.896 -23.168 -14.561  0.00  0.00    +0.021 C 
BRANCH  19  24
ATOM     24  S   UNL     1      28.774 -22.853 -16.242  0.00  0.00    +0.057 S 
ATOM     25  O   UNL     1      28.215 -22.029 -15.178  0.00  0.00    -0.153 OA
ATOM     26  O   UNL     1      28.661 -22.419 -17.627  0.00  0.00    -0.153 OA
BRANCH  24  27
ATOM     27  N   UNL     1      28.135 -24.433 -16.109  0.00  0.00    -0.203 NA
ATOM     28  H   UNL     1      27.352 -24.428 -15.457  0.00  0.00    +0.144 HD
ATOM     29  H   UNL     1      28.860 -25.064 -15.767  0.00  0.00    +0.144 HD
ENDBRANCH  24  27
ENDBRANCH  19  24
ENDBRANCH   1  18
TORSDOF 4
ENDMDL
MODEL 6
REMARK VINA RESULT:      -9.4      4.750      7.308
REMARK  Name = 5288527
REMARK  4 active torsions:
REMARK  status: ('A' for Active; 'I' for Inactive)
REMARK    1  A    between atoms: N_1  and  C_18
REMARK    2  A    between atoms: C_4  and  C_11
REMARK    3  A    between atoms: C_19  and  S_24
REMARK    4  A    between atoms: S_24  and  N_27
REMARK                            x       y       z     vdW  Elec       q    Type
REMARK                         _______ _______ _______ _____ _____    ______ ____
ROOT
ATOM      1  N   UNL     1      37.084 -22.108 -17.881  0.00  0.00    -0.247 N 
ATOM      2  N   UNL     1      34.955 -22.762 -17.144  0.00  0.00    -0.336 NA
ATOM      3  N   UNL     1      36.944 -23.547 -16.033  0.00  0.00    -0.170 NA
ATOM      4  C   UNL     1      34.230 -23.475 -16.259  0.00  0.00    +0.161 C 
ATOM      5  C   UNL     1      36.288 -22.842 -16.974  0.00  0.00    +0.149 C 
ATOM      6  C   UNL     1      34.775 -24.237 -15.250  0.00  0.00    +0.056 C 
ATOM      7  C   UNL     1      36.153 -24.235 -15.184  0.00  0.00    +0.114 C 
ATOM      8  H   UNL     1      38.052 -22.196 -17.720  0.00  0.00    +0.165 HD
ENDROOT
BRANCH   4  11
ATOM      9  N   UNL     1      31.866 -24.009 -15.657  0.00  0.00    -0.246 N 
ATOM     10  N   UNL     1      30.730 -22.879 -17.219  0.00  0.00    -0.227 NA
ATOM     11  C   UNL     1      32.801 -23.386 -16.445  0.00  0.00    +0.107 C 
ATOM     12  C   UNL     1      30.617 -23.668 -16.171  0.00  0.00    +0.139 C 
ATOM     13  C   UNL     1      32.079 -22.701 -17.393  0.00  0.00    +0.118 C 
ATOM     14  C   UNL     1      32.046 -24.832 -14.549  0.00  0.00    +0.071 C 
ATOM     15  C   UNL     1      29.476 -24.206 -15.506  0.00  0.00    +0.035 C 
ATOM     16  C   UNL     1      30.967 -25.334 -13.929  0.00  0.00    +0.017 C 
ATOM     17  C   UNL     1      29.643 -25.004 -14.433  0.00  0.00    +0.004 C 
ENDBRANCH   4  11
BRANCH   1  18
ATOM     18  C   UNL     1      36.766 -21.274 -18.969  0.00  0.00    +0.058 C 
ATOM     19  C   UNL     1      36.133 -19.622 -21.129  0.00  0.00    +0.122 C 
ATOM     20  C   UNL     1      37.553 -20.155 -19.249  0.00  0.00    +0.017 C 
ATOM     21  C   UNL     1      35.661 -21.565 -19.774  0.00  0.00    +0.017 C 
ATOM     22  C   UNL     1      37.237 -19.330 -20.327  0.00  0.00    +0.021 C 
ATOM     23  C   UNL     1      35.345 -20.739 -20.852  0.00  0.00    +0.021 C 
BRANCH  19  24
ATOM     24  S   UNL     1      35.736 -18.588 -22.480  0.00  0.00    +0.057 S 
ATOM     25  O   UNL     1      34.818 -19.306 -23.352  0.00  0.00    -0.153 OA
ATOM     26  O   UNL     1      35.370 -17.276 -21.966  0.00  0.00    -0.153 OA
BRANCH  24  27
ATOM     27  N   UNL     1      37.254 -18.468 -23.256  0.00  0.00    -0.203 NA
ATOM     28  H   UNL     1      37.336 -17.555 -23.702  0.00  0.00    +0.144 HD
ATOM     29  H   UNL     1      37.334 -19.201 -23.962  0.00  0.00    +0.144 HD
ENDBRANCH  24  27
ENDBRANCH  19  24
ENDBRANCH   1  18
TORSDOF 4
ENDMDL
MODEL 7
REMARK VINA RESULT:      -9.3      5.213      7.162
REMARK  Name = 5288527
REMARK  4 active torsions:
REMARK  status: ('A' for Active; 'I' for Inactive)
REMARK    1  A    between atoms: N_1  and  C_18
REMARK    2  A    between atoms: C_4  and  C_11
REMARK    3  A    between atoms: C_19  and  S_24
REMARK    4  A    between atoms: S_24  and  N_27
REMARK                            x       y       z     vdW  Elec       q    Type
REMARK                         _______ _______ _______ _____ _____    ______ ____
ROOT
ATOM      1  N   UNL     1      34.554 -23.422 -16.080  0.00  0.00    -0.247 N 
ATOM      2  N   UNL     1      34.875 -22.195 -18.054  0.00  0.00    -0.336 NA
ATOM      3  N   UNL     1      36.744 -22.824 -16.670  0.00  0.00    -0.170 NA
ATOM      4  C   UNL     1      35.748 -21.596 -18.888  0.00  0.00    +0.161 C 
ATOM      5  C   UNL     1      35.434 -22.782 -16.979  0.00  0.00    +0.149 C 
ATOM      6  C   UNL     1      37.110 -21.566 -18.689  0.00  0.00    +0.056 C 
ATOM      7  C   UNL     1      37.557 -22.203 -17.550  0.00  0.00    +0.114 C 
ATOM      8  H   UNL     1      35.006 -23.837 -15.310  0.00  0.00    +0.165 HD
ENDROOT
BRANCH   4  11
ATOM      9  N   UNL     1      35.795 -20.136 -20.914  0.00  0.00    -0.246 N 
ATOM     10  N   UNL     1      33.684 -20.290 -21.638  0.00  0.00    -0.227 NA
ATOM     11  C   UNL     1      35.143 -20.967 -20.038  0.00  0.00    +0.107 C 
ATOM     12  C   UNL     1      34.862 -19.749 -21.872  0.00  0.00    +0.139 C 
ATOM     13  C   UNL     1      33.852 -21.045 -20.505  0.00  0.00    +0.118 C 
ATOM     14  C   UNL     1      37.121 -19.714 -20.915  0.00  0.00    +0.071 C 
ATOM     15  C   UNL     1      35.317 -18.872 -22.900  0.00  0.00    +0.035 C 
ATOM     16  C   UNL     1      37.542 -18.888 -21.886  0.00  0.00    +0.017 C 
ATOM     17  C   UNL     1      36.599 -18.459 -22.907  0.00  0.00    +0.004 C 
ENDBRANCH   4  11
BRANCH   1  18
ATOM     18  C   UNL     1      33.155 -23.585 -16.070  0.00  0.00    +0.058 C 
ATOM     19  C   UNL     1      30.381 -23.906 -16.050  0.00  0.00    +0.122 C 
ATOM     20  C   UNL     1      32.550 -24.381 -15.096  0.00  0.00    +0.017 C 
ATOM     21  C   UNL     1      32.369 -22.949 -17.033  0.00  0.00    +0.017 C 
ATOM     22  C   UNL     1      31.165 -24.542 -15.086  0.00  0.00    +0.021 C 
ATOM     23  C   UNL     1      30.984 -23.110 -17.024  0.00  0.00    +0.021 C 
BRANCH  19  24
ATOM     24  S   UNL     1      28.647 -24.107 -16.038  0.00  0.00    +0.057 S 
ATOM     25  O   UNL     1      28.214 -24.435 -17.389  0.00  0.00    -0.153 OA
ATOM     26  O   UNL     1      28.290 -24.983 -14.932  0.00  0.00    -0.153 OA
BRANCH  24  27
ATOM     27  N   UNL     1      28.137 -22.519 -15.666  0.00  0.00    -0.203 NA
ATOM     28  H   UNL     1      28.490 -21.875 -16.373  0.00  0.00    +0.144 HD
ATOM     29  H   UNL     1      28.499 -22.251 -14.750  0.00  0.00    +0.144 HD
ENDBRANCH  24  27
ENDBRANCH  19  24
ENDBRANCH   1  18
TORSDOF 4
ENDMDL
MODEL 8
REMARK VINA RESULT:      -9.2      8.442     11.630
REMARK  Name = 5288527
REMARK  4 active torsions:
REMARK  status: ('A' for Active; 'I' for Inactive)
REMARK    1  A    between atoms: N_1  and  C_18
REMARK    2  A    between atoms: C_4  and  C_11
REMARK    3  A    between atoms: C_19  and  S_24
REMARK    4  A    between atoms: S_24  and  N_27
REMARK                            x       y       z     vdW  Elec       q    Type
REMARK                         _______ _______ _______ _____ _____    ______ ____
ROOT
ATOM      1  N   UNL     1      35.384 -17.112 -24.387  0.00  0.00    -0.247 N 
ATOM      2  N   UNL     1      34.266 -15.389 -23.253  0.00  0.00    -0.336 NA
ATOM      3  N   UNL     1      34.766 -15.202 -25.602  0.00  0.00    -0.170 NA
ATOM      4  C   UNL     1      33.693 -14.171 -23.320  0.00  0.00    +0.161 C 
ATOM      5  C   UNL     1      34.775 -15.838 -24.415  0.00  0.00    +0.149 C 
ATOM      6  C   UNL     1      33.617 -13.416 -24.470  0.00  0.00    +0.056 C 
ATOM      7  C   UNL     1      34.177 -13.989 -25.593  0.00  0.00    +0.114 C 
ATOM      8  H   UNL     1      35.742 -17.399 -25.258  0.00  0.00    +0.165 HD
ENDROOT
BRANCH   4  11
ATOM      9  N   UNL     1      32.664 -12.428 -21.857  0.00  0.00    -0.246 N 
ATOM     10  N   UNL     1      32.432 -13.532 -19.925  0.00  0.00    -0.227 NA
ATOM     11  C   UNL     1      33.149 -13.693 -22.071  0.00  0.00    +0.107 C 
ATOM     12  C   UNL     1      32.238 -12.379 -20.532  0.00  0.00    +0.139 C 
ATOM     13  C   UNL     1      32.995 -14.349 -20.873  0.00  0.00    +0.118 C 
ATOM     14  C   UNL     1      32.579 -11.351 -22.735  0.00  0.00    +0.071 C 
ATOM     15  C   UNL     1      31.688 -11.145 -20.075  0.00  0.00    +0.035 C 
ATOM     16  C   UNL     1      32.061 -10.193 -22.297  0.00  0.00    +0.017 C 
ATOM     17  C   UNL     1      31.604 -10.099 -20.919  0.00  0.00    +0.004 C 
ENDBRANCH   4  11
BRANCH   1  18
ATOM     18  C   UNL     1      35.578 -18.052 -23.358  0.00  0.00    +0.058 C 
ATOM     19  C   UNL     1      35.963 -19.918 -21.316  0.00  0.00    +0.122 C 
ATOM     20  C   UNL     1      36.690 -17.953 -22.519  0.00  0.00    +0.017 C 
ATOM     21  C   UNL     1      34.659 -19.087 -23.172  0.00  0.00    +0.017 C 
ATOM     22  C   UNL     1      36.883 -18.885 -21.500  0.00  0.00    +0.021 C 
ATOM     23  C   UNL     1      34.851 -20.019 -22.153  0.00  0.00    +0.021 C 
BRANCH  19  24
ATOM     24  S   UNL     1      36.204 -21.086 -20.040  0.00  0.00    +0.057 S 
ATOM     25  O   UNL     1      36.746 -22.302 -20.628  0.00  0.00    -0.153 OA
ATOM     26  O   UNL     1      36.908 -20.436 -18.944  0.00  0.00    -0.153 OA
BRANCH  24  27
ATOM     27  N   UNL     1      34.590 -21.379 -19.558  0.00  0.00    -0.203 NA
ATOM     28  H   UNL     1      34.347 -22.348 -19.758  0.00  0.00    +0.144 HD
ATOM     29  H   UNL     1      33.964 -20.757 -20.070  0.00  0.00    +0.144 HD
ENDBRANCH  24  27
ENDBRANCH  19  24
ENDBRANCH   1  18
TORSDOF 4
ENDMDL
MODEL 9
REMARK VINA RESULT:      -8.7     13.129     15.732
REMARK  Name = 5288527
REMARK  4 active torsions:
REMARK  status: ('A' for Active; 'I' for Inactive)
REMARK    1  A    between atoms: N_1  and  C_18
REMARK    2  A    between atoms: C_4  and  C_11
REMARK    3  A    between atoms: C_19  and  S_24
REMARK    4  A    between atoms: S_24  and  N_27
REMARK                            x       y       z     vdW  Elec       q    Type
REMARK                         _______ _______ _______ _____ _____    ______ ____
ROOT
ATOM      1  N   UNL     1      32.969 -12.907 -21.020  0.00  0.00    -0.247 N 
ATOM      2  N   UNL     1      32.411 -10.754 -21.765  0.00  0.00    -0.336 NA
ATOM      3  N   UNL     1      32.337 -11.311 -19.422  0.00  0.00    -0.170 NA
ATOM      4  C   UNL     1      32.012  -9.509 -21.439  0.00  0.00    +0.161 C 
ATOM      5  C   UNL     1      32.552 -11.592 -20.721  0.00  0.00    +0.149 C 
ATOM      6  C   UNL     1      31.759  -9.091 -20.151  0.00  0.00    +0.056 C 
ATOM      7  C   UNL     1      31.940 -10.045 -19.172  0.00  0.00    +0.114 C 
ATOM      8  H   UNL     1      33.059 -13.485 -20.227  0.00  0.00    +0.165 HD
ENDROOT
BRANCH   4  11
ATOM      9  N   UNL     1      32.860  -7.834 -23.086  0.00  0.00    -0.246 N 
ATOM     10  N   UNL     1      31.031  -7.425 -24.307  0.00  0.00    -0.227 NA
ATOM     11  C   UNL     1      31.861  -8.614 -22.562  0.00  0.00    +0.107 C 
ATOM     12  C   UNL     1      32.304  -7.127 -24.149  0.00  0.00    +0.139 C 
ATOM     13  C   UNL     1      30.751  -8.345 -23.328  0.00  0.00    +0.118 C 
ATOM     14  C   UNL     1      34.190  -7.715 -22.692  0.00  0.00    +0.071 C 
ATOM     15  C   UNL     1      33.166  -6.239 -24.856  0.00  0.00    +0.035 C 
ATOM     16  C   UNL     1      34.996  -6.876 -23.364  0.00  0.00    +0.017 C 
ATOM     17  C   UNL     1      34.454  -6.118 -24.481  0.00  0.00    +0.004 C 
ENDBRANCH   4  11
BRANCH   1  18
ATOM     18  C   UNL     1      33.284 -13.555 -22.229  0.00  0.00    +0.058 C 
ATOM     19  C   UNL     1      33.908 -14.842 -24.628  0.00  0.00    +0.122 C 
ATOM     20  C   UNL     1      32.654 -13.170 -23.415  0.00  0.00    +0.017 C 
ATOM     21  C   UNL     1      34.226 -14.586 -22.247  0.00  0.00    +0.017 C 
ATOM     22  C   UNL     1      32.966 -13.812 -24.613  0.00  0.00    +0.021 C 
ATOM     23  C   UNL     1      34.538 -15.228 -23.445  0.00  0.00    +0.021 C 
BRANCH  19  24
ATOM     24  S   UNL     1      34.298 -15.647 -26.128  0.00  0.00    +0.057 S 
ATOM     25  O   UNL     1      33.884 -14.790 -27.230  0.00  0.00    -0.153 OA
ATOM     26  O   UNL     1      35.673 -16.119 -26.056  0.00  0.00    -0.153 OA
BRANCH  24  27
ATOM     27  N   UNL     1      33.251 -16.996 -26.055  0.00  0.00    -0.203 NA
ATOM     28  H   UNL     1      32.692 -16.947 -25.204  0.00  0.00    +0.144 HD
ATOM     29  H   UNL     1      33.802 -17.855 -26.052  0.00  0.00    +0.144 HD
ENDBRANCH  24  27
ENDBRANCH  19  24
ENDBRANCH   1  18
TORSDOF 4
ENDMDL
