MODEL 1
REMARK VINA RESULT:     -12.3      0.000      0.000
REMARK  Name = 32778
REMARK  7 active torsions:
REMARK  status: ('A' for Active; 'I' for Inactive)
REMARK    1  A    between atoms: C_1  and  S_7
REMARK    2  A    between atoms: C_2  and  C_23
REMARK    3  A    between atoms: S_7  and  N_12
REMARK    4  A    between atoms: N_11  and  N_16
REMARK    5  A    between atoms: C_23  and  C_24
REMARK    6  A    between atoms: C_24  and  N_26
REMARK    7  A    between atoms: C_27  and  C_31
REMARK                            x       y       z     vdW  Elec       q    Type
REMARK                         _______ _______ _______ _____ _____    ______ ____
ROOT
ATOM      1  C   UNL     1      34.543 -21.525 -19.875  0.00  0.00    +0.125 C 
ATOM      2  C   UNL     1      35.541 -19.550 -21.573  0.00  0.00    -0.020 C 
ATOM      3  C   UNL     1      35.918 -21.315 -19.966  0.00  0.00    +0.020 C 
ATOM      4  C   UNL     1      33.666 -20.749 -20.633  0.00  0.00    +0.020 C 
ATOM      5  C   UNL     1      36.418 -20.327 -20.815  0.00  0.00    -0.003 C 
ATOM      6  C   UNL     1      34.165 -19.761 -21.481  0.00  0.00    -0.003 C 
ENDROOT
BRANCH   1   7
ATOM      7  S   UNL     1      33.911 -22.779 -18.800  0.00  0.00    +0.077 S 
ATOM      8  O   UNL     1      34.102 -24.064 -19.444  0.00  0.00    -0.150 OA
ATOM      9  O   UNL     1      32.586 -22.351 -18.390  0.00  0.00    -0.150 OA
BRANCH   7  12
ATOM     10  O   UNL     1      34.535 -24.679 -16.426  0.00  0.00    -0.250 OA
ATOM     11  N   UNL     1      36.091 -23.230 -15.513  0.00  0.00    -0.230 N 
ATOM     12  N   UNL     1      34.982 -22.643 -17.476  0.00  0.00    -0.168 N 
ATOM     13  C   UNL     1      35.158 -23.621 -16.446  0.00  0.00    +0.333 C 
ATOM     14  H   UNL     1      36.549 -22.363 -15.599  0.00  0.00    +0.171 HD
ATOM     15  H   UNL     1      35.524 -21.822 -17.415  0.00  0.00    +0.178 HD
BRANCH  11  16
ATOM     16  N   UNL     1      36.377 -24.073 -14.450  0.00  0.00    -0.205 NA
ATOM     17  C   UNL     1      38.254 -24.783 -11.958  0.00  0.00    +0.002 C 
ATOM     18  C   UNL     1      38.261 -26.134 -12.661  0.00  0.00    +0.002 C 
ATOM     19  C   UNL     1      36.913 -24.059 -11.977  0.00  0.00    +0.019 C 
ATOM     20  C   UNL     1      37.449 -26.253 -13.946  0.00  0.00    +0.019 C 
ATOM     21  C   UNL     1      36.677 -23.266 -13.266  0.00  0.00    +0.092 C 
ATOM     22  C   UNL     1      37.436 -25.011 -14.837  0.00  0.00    +0.092 C 
ENDBRANCH  11  16
ENDBRANCH   7  12
ENDBRANCH   1   7
BRANCH   2  23
ATOM     23  C   UNL     1      36.075 -18.493 -22.479  0.00  0.00    +0.048 C 
BRANCH  23  24
ATOM     24  C   UNL     1      35.456 -18.519 -23.883  0.00  0.00    +0.094 C 
BRANCH  24  26
ATOM     25  O   UNL     1      33.589 -17.871 -25.920  0.00  0.00    -0.268 OA
ATOM     26  N   UNL     1      35.166 -17.200 -24.377  0.00  0.00    -0.299 N 
ATOM     27  C   UNL     1      34.232 -16.968 -25.384  0.00  0.00    +0.267 C 
ATOM     28  H   UNL     1      35.646 -16.432 -23.990  0.00  0.00    +0.150 HD
BRANCH  27  31
ATOM     29  O   UNL     1      33.756 -13.888 -27.125  0.00  0.00    -0.358 OA
ATOM     30  N   UNL     1      33.855 -15.275 -27.085  0.00  0.00    -0.073 NA
ATOM     31  C   UNL     1      34.074 -15.567 -25.801  0.00  0.00    +0.176 C 
ATOM     32  C   UNL     1      34.122 -14.419 -24.991  0.00  0.00    +0.063 C 
ATOM     33  C   UNL     1      33.917 -13.391 -25.872  0.00  0.00    +0.155 C 
ATOM     34  C   UNL     1      33.840 -11.931 -25.731  0.00  0.00    +0.075 C 
ENDBRANCH  27  31
ENDBRANCH  24  26
ENDBRANCH  23  24
ENDBRANCH   2  23
TORSDOF 7
ENDMDL
MODEL 2
REMARK VINA RESULT:     -12.1      2.171      2.469
REMARK  Name = 32778
REMARK  7 active torsions:
REMARK  status: ('A' for Active; 'I' for Inactive)
REMARK    1  A    between atoms: C_1  and  S_7
REMARK    2  A    between atoms: C_2  and  C_23
REMARK    3  A    between atoms: S_7  and  N_12
REMARK    4  A    between atoms: N_11  and  N_16
REMARK    5  A    between atoms: C_23  and  C_24
REMARK    6  A    between atoms: C_24  and  N_26
REMARK    7  A    between atoms: C_27  and  C_31
REMARK                            x       y       z     vdW  Elec       q    Type
REMARK                         _______ _______ _______ _____ _____    ______ ____
ROOT
ATOM      1  C   UNL     1      34.227 -21.655 -19.755  0.00  0.00    +0.125 C 
ATOM      2  C   UNL     1      35.013 -19.721 -21.604  0.00  0.00    -0.020 C 
ATOM      3  C   UNL     1      33.264 -20.936 -20.463  0.00  0.00    +0.020 C 
ATOM      4  C   UNL     1      35.583 -21.407 -19.971  0.00  0.00    +0.020 C 
ATOM      5  C   UNL     1      33.658 -19.969 -21.388  0.00  0.00    -0.003 C 
ATOM      6  C   UNL     1      35.976 -20.441 -20.896  0.00  0.00    -0.003 C 
ENDROOT
BRANCH   1   7
ATOM      7  S   UNL     1      33.728 -22.880 -18.581  0.00  0.00    +0.077 S 
ATOM      8  O   UNL     1      33.795 -24.177 -19.225  0.00  0.00    -0.150 OA
ATOM      9  O   UNL     1      32.485 -22.414 -17.993  0.00  0.00    -0.150 OA
BRANCH   7  12
ATOM     10  O   UNL     1      34.325 -24.465 -15.980  0.00  0.00    -0.250 OA
ATOM     11  N   UNL     1      36.229 -23.234 -15.518  0.00  0.00    -0.230 N 
ATOM     12  N   UNL     1      34.981 -22.754 -17.426  0.00  0.00    -0.168 N 
ATOM     13  C   UNL     1      35.119 -23.572 -16.260  0.00  0.00    +0.333 C 
ATOM     14  H   UNL     1      36.819 -22.502 -15.810  0.00  0.00    +0.171 HD
ATOM     15  H   UNL     1      35.665 -22.060 -17.574  0.00  0.00    +0.178 HD
BRANCH  11  16
ATOM     16  N   UNL     1      36.504 -23.937 -14.356  0.00  0.00    -0.205 NA
ATOM     17  C   UNL     1      38.534 -24.571 -11.965  0.00  0.00    +0.002 C 
ATOM     18  C   UNL     1      38.239 -25.995 -12.418  0.00  0.00    +0.002 C 
ATOM     19  C   UNL     1      37.334 -23.632 -11.985  0.00  0.00    +0.019 C 
ATOM     20  C   UNL     1      37.267 -26.167 -13.581  0.00  0.00    +0.019 C 
ATOM     21  C   UNL     1      37.072 -23.021 -13.365  0.00  0.00    +0.092 C 
ATOM     22  C   UNL     1      37.344 -25.097 -14.670  0.00  0.00    +0.092 C 
ENDBRANCH  11  16
ENDBRANCH   7  12
ENDBRANCH   1   7
BRANCH   2  23
ATOM     23  C   UNL     1      35.433 -18.688 -22.594  0.00  0.00    +0.048 C 
BRANCH  23  24
ATOM     24  C   UNL     1      36.064 -17.444 -21.953  0.00  0.00    +0.094 C 
BRANCH  24  26
ATOM     25  O   UNL     1      35.549 -15.331 -23.776  0.00  0.00    -0.268 OA
ATOM     26  N   UNL     1      35.113 -16.382 -21.770  0.00  0.00    -0.299 N 
ATOM     27  C   UNL     1      34.921 -15.379 -22.718  0.00  0.00    +0.267 C 
ATOM     28  H   UNL     1      34.576 -16.362 -20.944  0.00  0.00    +0.150 HD
BRANCH  27  31
ATOM     29  O   UNL     1      32.542 -12.718 -22.654  0.00  0.00    -0.358 OA
ATOM     30  N   UNL     1      33.425 -13.562 -23.319  0.00  0.00    -0.073 NA
ATOM     31  C   UNL     1      33.935 -14.347 -22.367  0.00  0.00    +0.176 C 
ATOM     32  C   UNL     1      33.418 -14.049 -21.094  0.00  0.00    +0.063 C 
ATOM     33  C   UNL     1      32.548 -13.018 -21.330  0.00  0.00    +0.155 C 
ATOM     34  C   UNL     1      31.665 -12.217 -20.472  0.00  0.00    +0.075 C 
ENDBRANCH  27  31
ENDBRANCH  24  26
ENDBRANCH  23  24
ENDBRANCH   2  23
TORSDOF 7
ENDMDL
MODEL 3
REMARK VINA RESULT:     -11.5      4.151     11.340
REMARK  Name = 32778
REMARK  7 active torsions:
REMARK  status: ('A' for Active; 'I' for Inactive)
REMARK    1  A    between atoms: C_1  and  S_7
REMARK    2  A    between atoms: C_2  and  C_23
REMARK    3  A    between atoms: S_7  and  N_12
REMARK    4  A    between atoms: N_11  and  N_16
REMARK    5  A    between atoms: C_23  and  C_24
REMARK    6  A    between atoms: C_24  and  N_26
REMARK    7  A    between atoms: C_27  and  C_31
REMARK                            x       y       z     vdW  Elec       q    Type
REMARK                         _______ _______ _______ _____ _____    ______ ____
ROOT
ATOM      1  C   UNL     1      35.758 -20.033 -20.998  0.00  0.00    +0.125 C 
ATOM      2  C   UNL     1      34.379 -22.042 -19.641  0.00  0.00    -0.020 C 
ATOM      3  C   UNL     1      34.365 -20.077 -21.046  0.00  0.00    +0.020 C 
ATOM      4  C   UNL     1      36.462 -20.994 -20.272  0.00  0.00    +0.020 C 
ATOM      5  C   UNL     1      33.675 -21.081 -20.367  0.00  0.00    -0.003 C 
ATOM      6  C   UNL     1      35.773 -21.998 -19.593  0.00  0.00    -0.003 C 
ENDROOT
BRANCH   1   7
ATOM      7  S   UNL     1      36.631 -18.760 -21.860  0.00  0.00    +0.077 S 
ATOM      8  O   UNL     1      36.434 -18.960 -23.282  0.00  0.00    -0.150 OA
ATOM      9  O   UNL     1      37.970 -18.718 -21.302  0.00  0.00    -0.150 OA
BRANCH   7  12
ATOM     10  O   UNL     1      35.105 -16.571 -23.446  0.00  0.00    -0.250 OA
ATOM     11  N   UNL     1      34.498 -15.429 -21.528  0.00  0.00    -0.230 N 
ATOM     12  N   UNL     1      35.768 -17.374 -21.357  0.00  0.00    -0.168 N 
ATOM     13  C   UNL     1      35.109 -16.446 -22.225  0.00  0.00    +0.333 C 
ATOM     14  H   UNL     1      34.546 -15.398 -20.545  0.00  0.00    +0.171 HD
ATOM     15  H   UNL     1      35.720 -17.198 -20.389  0.00  0.00    +0.178 HD
BRANCH  11  16
ATOM     16  N   UNL     1      33.813 -14.447 -22.227  0.00  0.00    -0.205 NA
ATOM     17  C   UNL     1      33.761 -11.480 -23.423  0.00  0.00    +0.002 C 
ATOM     18  C   UNL     1      32.441 -11.459 -22.664  0.00  0.00    +0.002 C 
ATOM     19  C   UNL     1      34.074 -12.795 -24.127  0.00  0.00    +0.019 C 
ATOM     20  C   UNL     1      32.047 -12.731 -21.921  0.00  0.00    +0.019 C 
ATOM     21  C   UNL     1      34.717 -13.833 -23.201  0.00  0.00    +0.092 C 
ATOM     22  C   UNL     1      33.199 -13.507 -21.283  0.00  0.00    +0.092 C 
ENDBRANCH  11  16
ENDBRANCH   7  12
ENDBRANCH   1   7
BRANCH   2  23
ATOM     23  C   UNL     1      33.642 -23.116 -18.915  0.00  0.00    +0.048 C 
BRANCH  23  24
ATOM     24  C   UNL     1      33.159 -22.692 -17.521  0.00  0.00    +0.094 C 
BRANCH  24  26
ATOM     25  O   UNL     1      31.424 -24.224 -15.879  0.00  0.00    -0.268 OA
ATOM     26  N   UNL     1      31.728 -22.566 -17.453  0.00  0.00    -0.299 N 
ATOM     27  C   UNL     1      30.947 -23.362 -16.616  0.00  0.00    +0.267 C 
ATOM     28  H   UNL     1      31.283 -21.893 -18.017  0.00  0.00    +0.150 HD
BRANCH  27  31
ATOM     29  O   UNL     1      27.488 -23.196 -17.484  0.00  0.00    -0.358 OA
ATOM     30  N   UNL     1      28.802 -23.575 -17.737  0.00  0.00    -0.073 NA
ATOM     31  C   UNL     1      29.497 -23.132 -16.686  0.00  0.00    +0.176 C 
ATOM     32  C   UNL     1      28.685 -22.473 -15.747  0.00  0.00    +0.063 C 
ATOM     33  C   UNL     1      27.432 -22.540 -16.297  0.00  0.00    +0.155 C 
ATOM     34  C   UNL     1      26.109 -22.066 -15.872  0.00  0.00    +0.075 C 
ENDBRANCH  27  31
ENDBRANCH  24  26
ENDBRANCH  23  24
ENDBRANCH   2  23
TORSDOF 7
ENDMDL
MODEL 4
REMARK VINA RESULT:     -11.3      2.758     12.057
REMARK  Name = 32778
REMARK  7 active torsions:
REMARK  status: ('A' for Active; 'I' for Inactive)
REMARK    1  A    between atoms: C_1  and  S_7
REMARK    2  A    between atoms: C_2  and  C_23
REMARK    3  A    between atoms: S_7  and  N_12
REMARK    4  A    between atoms: N_11  and  N_16
REMARK    5  A    between atoms: C_23  and  C_24
REMARK    6  A    between atoms: C_24  and  N_26
REMARK    7  A    between atoms: C_27  and  C_31
REMARK                            x       y       z     vdW  Elec       q    Type
REMARK                         _______ _______ _______ _____ _____    ______ ____
ROOT
ATOM      1  C   UNL     1      35.706 -20.037 -21.007  0.00  0.00    +0.125 C 
ATOM      2  C   UNL     1      34.368 -21.937 -19.466  0.00  0.00    -0.020 C 
ATOM      3  C   UNL     1      34.312 -20.077 -21.007  0.00  0.00    +0.020 C 
ATOM      4  C   UNL     1      36.431 -20.947 -20.238  0.00  0.00    +0.020 C 
ATOM      5  C   UNL     1      33.643 -21.027 -20.236  0.00  0.00    -0.003 C 
ATOM      6  C   UNL     1      35.762 -21.897 -19.467  0.00  0.00    -0.003 C 
ENDROOT
BRANCH   1   7
ATOM      7  S   UNL     1      36.554 -18.833 -21.986  0.00  0.00    +0.077 S 
ATOM      8  O   UNL     1      36.232 -19.076 -23.379  0.00  0.00    -0.150 OA
ATOM      9  O   UNL     1      37.935 -18.827 -21.541  0.00  0.00    -0.150 OA
BRANCH   7  12
ATOM     10  O   UNL     1      34.973 -16.649 -23.525  0.00  0.00    -0.250 OA
ATOM     11  N   UNL     1      34.580 -15.409 -21.612  0.00  0.00    -0.230 N 
ATOM     12  N   UNL     1      35.789 -17.395 -21.470  0.00  0.00    -0.168 N 
ATOM     13  C   UNL     1      35.090 -16.476 -22.315  0.00  0.00    +0.333 C 
ATOM     14  H   UNL     1      34.717 -15.342 -20.639  0.00  0.00    +0.171 HD
ATOM     15  H   UNL     1      35.833 -17.179 -20.509  0.00  0.00    +0.178 HD
BRANCH  11  16
ATOM     16  N   UNL     1      33.872 -14.429 -22.290  0.00  0.00    -0.205 NA
ATOM     17  C   UNL     1      33.783 -11.468 -23.499  0.00  0.00    +0.002 C 
ATOM     18  C   UNL     1      32.492 -11.440 -22.691  0.00  0.00    +0.002 C 
ATOM     19  C   UNL     1      34.065 -12.788 -24.207  0.00  0.00    +0.019 C 
ATOM     20  C   UNL     1      32.123 -12.707 -21.926  0.00  0.00    +0.019 C 
ATOM     21  C   UNL     1      34.740 -13.822 -23.301  0.00  0.00    +0.092 C 
ATOM     22  C   UNL     1      33.296 -13.483 -21.329  0.00  0.00    +0.092 C 
ENDBRANCH  11  16
ENDBRANCH   7  12
ENDBRANCH   1   7
BRANCH   2  23
ATOM     23  C   UNL     1      33.651 -22.953 -18.641  0.00  0.00    +0.048 C 
BRANCH  23  24
ATOM     24  C   UNL     1      33.967 -22.858 -17.143  0.00  0.00    +0.094 C 
BRANCH  24  26
ATOM     25  O   UNL     1      34.131 -24.600 -14.909  0.00  0.00    -0.268 OA
ATOM     26  N   UNL     1      35.106 -23.654 -16.772  0.00  0.00    -0.299 N 
ATOM     27  C   UNL     1      35.103 -24.486 -15.654  0.00  0.00    +0.267 C 
ATOM     28  H   UNL     1      35.917 -23.609 -17.328  0.00  0.00    +0.150 HD
BRANCH  27  31
ATOM     29  O   UNL     1      37.754 -26.858 -15.356  0.00  0.00    -0.358 OA
ATOM     30  N   UNL     1      36.467 -26.495 -15.737  0.00  0.00    -0.073 NA
ATOM     31  C   UNL     1      36.356 -25.209 -15.393  0.00  0.00    +0.176 C 
ATOM     32  C   UNL     1      37.528 -24.712 -14.797  0.00  0.00    +0.063 C 
ATOM     33  C   UNL     1      38.375 -25.788 -14.797  0.00  0.00    +0.155 C 
ATOM     34  C   UNL     1      39.753 -25.997 -14.335  0.00  0.00    +0.075 C 
ENDBRANCH  27  31
ENDBRANCH  24  26
ENDBRANCH  23  24
ENDBRANCH   2  23
TORSDOF 7
ENDMDL
MODEL 5
REMARK VINA RESULT:     -10.8      3.654     11.746
REMARK  Name = 32778
REMARK  7 active torsions:
REMARK  status: ('A' for Active; 'I' for Inactive)
REMARK    1  A    between atoms: C_1  and  S_7
REMARK    2  A    between atoms: C_2  and  C_23
REMARK    3  A    between atoms: S_7  and  N_12
REMARK    4  A    between atoms: N_11  and  N_16
REMARK    5  A    between atoms: C_23  and  C_24
REMARK    6  A    between atoms: C_24  and  N_26
REMARK    7  A    between atoms: C_27  and  C_31
REMARK                            x       y       z     vdW  Elec       q    Type
REMARK                         _______ _______ _______ _____ _____    ______ ____
ROOT
ATOM      1  C   UNL     1      35.066 -17.411 -23.772  0.00  0.00    +0.125 C 
ATOM      2  C   UNL     1      35.047 -19.448 -21.866  0.00  0.00    -0.020 C 
ATOM      3  C   UNL     1      34.654 -18.695 -24.128  0.00  0.00    +0.020 C 
ATOM      4  C   UNL     1      35.469 -17.145 -22.463  0.00  0.00    +0.020 C 
ATOM      5  C   UNL     1      34.643 -19.713 -23.175  0.00  0.00    -0.003 C 
ATOM      6  C   UNL     1      35.459 -18.163 -21.510  0.00  0.00    -0.003 C 
ENDROOT
BRANCH   1   7
ATOM      7  S   UNL     1      35.080 -16.121 -24.981  0.00  0.00    +0.077 S 
ATOM      8  O   UNL     1      34.681 -16.691 -26.253  0.00  0.00    -0.150 OA
ATOM      9  O   UNL     1      36.352 -15.436 -24.848  0.00  0.00    -0.150 OA
BRANCH   7  12
ATOM     10  O   UNL     1      35.035 -13.932 -22.781  0.00  0.00    -0.250 OA
ATOM     11  N   UNL     1      32.790 -13.477 -23.103  0.00  0.00    -0.230 N 
ATOM     12  N   UNL     1      33.832 -15.111 -24.395  0.00  0.00    -0.168 N 
ATOM     13  C   UNL     1      33.971 -14.136 -23.358  0.00  0.00    +0.333 C 
ATOM     14  H   UNL     1      31.976 -13.699 -23.611  0.00  0.00    +0.171 HD
ATOM     15  H   UNL     1      32.941 -15.209 -24.806  0.00  0.00    +0.178 HD
BRANCH  11  16
ATOM     16  N   UNL     1      32.761 -12.497 -22.123  0.00  0.00    -0.205 NA
ATOM     17  C   UNL     1      31.137 -10.997 -19.810  0.00  0.00    +0.002 C 
ATOM     18  C   UNL     1      31.600  -9.785 -20.607  0.00  0.00    +0.002 C 
ATOM     19  C   UNL     1      32.164 -12.117 -19.694  0.00  0.00    +0.019 C 
ATOM     20  C   UNL     1      32.450 -10.051 -21.845  0.00  0.00    +0.019 C 
ATOM     21  C   UNL     1      32.171 -13.054 -20.905  0.00  0.00    +0.092 C 
ATOM     22  C   UNL     1      32.084 -11.303 -22.641  0.00  0.00    +0.092 C 
ENDBRANCH  11  16
ENDBRANCH   7  12
ENDBRANCH   1   7
BRANCH   2  23
ATOM     23  C   UNL     1      35.035 -20.536 -20.847  0.00  0.00    +0.048 C 
BRANCH  23  24
ATOM     24  C   UNL     1      33.639 -21.122 -20.591  0.00  0.00    +0.094 C 
BRANCH  24  26
ATOM     25  O   UNL     1      34.126 -23.793 -19.766  0.00  0.00    -0.268 OA
ATOM     26  N   UNL     1      33.497 -21.634 -19.255  0.00  0.00    -0.299 N 
ATOM     27  C   UNL     1      33.758 -22.964 -18.933  0.00  0.00    +0.267 C 
ATOM     28  H   UNL     1      33.206 -21.022 -18.540  0.00  0.00    +0.150 HD
BRANCH  27  31
ATOM     29  O   UNL     1      33.978 -24.123 -15.564  0.00  0.00    -0.358 OA
ATOM     30  N   UNL     1      34.518 -23.906 -16.827  0.00  0.00    -0.073 NA
ATOM     31  C   UNL     1      33.534 -23.338 -17.529  0.00  0.00    +0.176 C 
ATOM     32  C   UNL     1      32.362 -23.173 -16.771  0.00  0.00    +0.063 C 
ATOM     33  C   UNL     1      32.694 -23.683 -15.544  0.00  0.00    +0.155 C 
ATOM     34  C   UNL     1      31.967 -23.837 -14.277  0.00  0.00    +0.075 C 
ENDBRANCH  27  31
ENDBRANCH  24  26
ENDBRANCH  23  24
ENDBRANCH   2  23
TORSDOF 7
ENDMDL
MODEL 6
REMARK VINA RESULT:     -10.8      3.732     11.876
REMARK  Name = 32778
REMARK  7 active torsions:
REMARK  status: ('A' for Active; 'I' for Inactive)
REMARK    1  A    between atoms: C_1  and  S_7
REMARK    2  A    between atoms: C_2  and  C_23
REMARK    3  A    between atoms: S_7  and  N_12
REMARK    4  A    between atoms: N_11  and  N_16
REMARK    5  A    between atoms: C_23  and  C_24
REMARK    6  A    between atoms: C_24  and  N_26
REMARK    7  A    between atoms: C_27  and  C_31
REMARK                            x       y       z     vdW  Elec       q    Type
REMARK                         _______ _______ _______ _____ _____    ______ ____
ROOT
ATOM      1  C   UNL     1      35.057 -17.376 -23.880  0.00  0.00    +0.125 C 
ATOM      2  C   UNL     1      35.196 -19.480 -22.054  0.00  0.00    -0.020 C 
ATOM      3  C   UNL     1      34.629 -18.651 -24.251  0.00  0.00    +0.020 C 
ATOM      4  C   UNL     1      35.556 -17.153 -22.596  0.00  0.00    +0.020 C 
ATOM      5  C   UNL     1      34.698 -19.702 -23.337  0.00  0.00    -0.003 C 
ATOM      6  C   UNL     1      35.624 -18.205 -21.683  0.00  0.00    -0.003 C 
ENDROOT
BRANCH   1   7
ATOM      7  S   UNL     1      34.971 -16.044 -25.039  0.00  0.00    +0.077 S 
ATOM      8  O   UNL     1      34.518 -16.578 -26.308  0.00  0.00    -0.150 OA
ATOM      9  O   UNL     1      36.230 -15.328 -24.950  0.00  0.00    -0.150 OA
BRANCH   7  12
ATOM     10  O   UNL     1      35.019 -13.808 -22.885  0.00  0.00    -0.250 OA
ATOM     11  N   UNL     1      32.730 -13.487 -22.989  0.00  0.00    -0.230 N 
ATOM     12  N   UNL     1      33.731 -15.091 -24.349  0.00  0.00    -0.168 N 
ATOM     13  C   UNL     1      33.916 -14.085 -23.349  0.00  0.00    +0.333 C 
ATOM     14  H   UNL     1      31.884 -13.765 -23.409  0.00  0.00    +0.171 HD
ATOM     15  H   UNL     1      32.811 -15.248 -24.667  0.00  0.00    +0.178 HD
BRANCH  11  16
ATOM     16  N   UNL     1      32.742 -12.486 -22.029  0.00  0.00    -0.205 NA
ATOM     17  C   UNL     1      31.192 -10.894 -19.728  0.00  0.00    +0.002 C 
ATOM     18  C   UNL     1      31.681  -9.712 -20.555  0.00  0.00    +0.002 C 
ATOM     19  C   UNL     1      32.188 -12.040 -19.601  0.00  0.00    +0.019 C 
ATOM     20  C   UNL     1      32.507 -10.028 -21.797  0.00  0.00    +0.019 C 
ATOM     21  C   UNL     1      32.151 -13.002 -20.793  0.00  0.00    +0.092 C 
ATOM     22  C   UNL     1      32.095 -11.284 -22.563  0.00  0.00    +0.092 C 
ENDBRANCH  11  16
ENDBRANCH   7  12
ENDBRANCH   1   7
BRANCH   2  23
ATOM     23  C   UNL     1      35.268 -20.604 -21.077  0.00  0.00    +0.048 C 
BRANCH  23  24
ATOM     24  C   UNL     1      36.578 -20.639 -20.277  0.00  0.00    +0.094 C 
BRANCH  24  26
ATOM     25  O   UNL     1      37.718 -20.308 -17.700  0.00  0.00    -0.268 OA
ATOM     26  N   UNL     1      36.539 -21.597 -19.205  0.00  0.00    -0.299 N 
ATOM     27  C   UNL     1      37.127 -21.354 -17.965  0.00  0.00    +0.267 C 
ATOM     28  H   UNL     1      36.080 -22.455 -19.352  0.00  0.00    +0.150 HD
BRANCH  27  31
ATOM     29  O   UNL     1      36.133 -24.063 -15.863  0.00  0.00    -0.358 OA
ATOM     30  N   UNL     1      35.882 -23.120 -16.854  0.00  0.00    -0.073 NA
ATOM     31  C   UNL     1      37.028 -22.446 -16.986  0.00  0.00    +0.176 C 
ATOM     32  C   UNL     1      38.027 -22.913 -16.115  0.00  0.00    +0.063 C 
ATOM     33  C   UNL     1      37.414 -23.929 -15.432  0.00  0.00    +0.155 C 
ATOM     34  C   UNL     1      37.851 -24.854 -14.378  0.00  0.00    +0.075 C 
ENDBRANCH  27  31
ENDBRANCH  24  26
ENDBRANCH  23  24
ENDBRANCH   2  23
TORSDOF 7
ENDMDL
MODEL 7
REMARK VINA RESULT:     -10.7      3.080     12.845
REMARK  Name = 32778
REMARK  7 active torsions:
REMARK  status: ('A' for Active; 'I' for Inactive)
REMARK    1  A    between atoms: C_1  and  S_7
REMARK    2  A    between atoms: C_2  and  C_23
REMARK    3  A    between atoms: S_7  and  N_12
REMARK    4  A    between atoms: N_11  and  N_16
REMARK    5  A    between atoms: C_23  and  C_24
REMARK    6  A    between atoms: C_24  and  N_26
REMARK    7  A    between atoms: C_27  and  C_31
REMARK                            x       y       z     vdW  Elec       q    Type
REMARK                         _______ _______ _______ _____ _____    ______ ____
ROOT
ATOM      1  C   UNL     1      34.853 -17.033 -24.330  0.00  0.00    +0.125 C 
ATOM      2  C   UNL     1      35.409 -19.051 -22.486  0.00  0.00    -0.020 C 
ATOM      3  C   UNL     1      34.616 -18.366 -24.663  0.00  0.00    +0.020 C 
ATOM      4  C   UNL     1      35.369 -16.708 -23.075  0.00  0.00    +0.020 C 
ATOM      5  C   UNL     1      34.893 -19.375 -23.741  0.00  0.00    -0.003 C 
ATOM      6  C   UNL     1      35.646 -17.717 -22.153  0.00  0.00    -0.003 C 
ENDROOT
BRANCH   1   7
ATOM      7  S   UNL     1      34.503 -15.754 -25.500  0.00  0.00    +0.077 S 
ATOM      8  O   UNL     1      33.218 -16.040 -26.109  0.00  0.00    -0.150 OA
ATOM      9  O   UNL     1      35.689 -15.602 -26.322  0.00  0.00    -0.150 OA
BRANCH   7  12
ATOM     10  O   UNL     1      33.917 -12.760 -26.070  0.00  0.00    -0.250 OA
ATOM     11  N   UNL     1      34.016 -12.185 -23.831  0.00  0.00    -0.230 N 
ATOM     12  N   UNL     1      34.353 -14.400 -24.468  0.00  0.00    -0.168 N 
ATOM     13  C   UNL     1      34.077 -13.061 -24.891  0.00  0.00    +0.333 C 
ATOM     14  H   UNL     1      34.156 -12.506 -22.911  0.00  0.00    +0.171 HD
ATOM     15  H   UNL     1      34.467 -14.554 -23.502  0.00  0.00    +0.178 HD
BRANCH  11  16
ATOM     16  N   UNL     1      33.753 -10.846 -24.076  0.00  0.00    -0.205 NA
ATOM     17  C   UNL     1      34.396  -7.778 -23.438  0.00  0.00    +0.002 C 
ATOM     18  C   UNL     1      32.882  -7.749 -23.269  0.00  0.00    +0.002 C 
ATOM     19  C   UNL     1      34.896  -8.646 -24.586  0.00  0.00    +0.019 C 
ATOM     20  C   UNL     1      32.133  -9.057 -23.500  0.00  0.00    +0.019 C 
ATOM     21  C   UNL     1      35.021 -10.125 -24.208  0.00  0.00    +0.092 C 
ATOM     22  C   UNL     1      32.856 -10.323 -23.041  0.00  0.00    +0.092 C 
ENDBRANCH  11  16
ENDBRANCH   7  12
ENDBRANCH   1   7
BRANCH   2  23
ATOM     23  C   UNL     1      35.704 -20.130 -21.500  0.00  0.00    +0.048 C 
BRANCH  23  24
ATOM     24  C   UNL     1      34.472 -20.597 -20.715  0.00  0.00    +0.094 C 
BRANCH  24  26
ATOM     25  O   UNL     1      32.963 -22.671 -19.500  0.00  0.00    -0.268 OA
ATOM     26  N   UNL     1      34.824 -21.310 -19.516  0.00  0.00    -0.299 N 
ATOM     27  C   UNL     1      34.024 -22.318 -18.985  0.00  0.00    +0.267 C 
ATOM     28  H   UNL     1      35.662 -21.077 -19.055  0.00  0.00    +0.150 HD
BRANCH  27  31
ATOM     29  O   UNL     1      35.915 -23.547 -16.218  0.00  0.00    -0.358 OA
ATOM     30  N   UNL     1      35.809 -22.896 -17.442  0.00  0.00    -0.073 NA
ATOM     31  C   UNL     1      34.507 -22.928 -17.737  0.00  0.00    +0.176 C 
ATOM     32  C   UNL     1      33.750 -23.579 -16.748  0.00  0.00    +0.063 C 
ATOM     33  C   UNL     1      34.682 -23.949 -15.816  0.00  0.00    +0.155 C 
ATOM     34  C   UNL     1      34.610 -24.660 -14.533  0.00  0.00    +0.075 C 
ENDBRANCH  27  31
ENDBRANCH  24  26
ENDBRANCH  23  24
ENDBRANCH   2  23
TORSDOF 7
ENDMDL
MODEL 8
REMARK VINA RESULT:     -10.6      5.638     13.362
REMARK  Name = 32778
REMARK  7 active torsions:
REMARK  status: ('A' for Active; 'I' for Inactive)
REMARK    1  A    between atoms: C_1  and  S_7
REMARK    2  A    between atoms: C_2  and  C_23
REMARK    3  A    between atoms: S_7  and  N_12
REMARK    4  A    between atoms: N_11  and  N_16
REMARK    5  A    between atoms: C_23  and  C_24
REMARK    6  A    between atoms: C_24  and  N_26
REMARK    7  A    between atoms: C_27  and  C_31
REMARK                            x       y       z     vdW  Elec       q    Type
REMARK                         _______ _______ _______ _____ _____    ______ ____
ROOT
ATOM      1  C   UNL     1      32.696 -12.689 -21.408  0.00  0.00    +0.125 C 
ATOM      2  C   UNL     1      34.373 -14.245 -23.004  0.00  0.00    -0.020 C 
ATOM      3  C   UNL     1      33.456 -13.709 -20.834  0.00  0.00    +0.020 C 
ATOM      4  C   UNL     1      32.774 -12.448 -22.780  0.00  0.00    +0.020 C 
ATOM      5  C   UNL     1      34.295 -14.486 -21.632  0.00  0.00    -0.003 C 
ATOM      6  C   UNL     1      33.613 -13.226 -23.578  0.00  0.00    -0.003 C 
ENDROOT
BRANCH   1   7
ATOM      7  S   UNL     1      31.631 -11.706 -20.396  0.00  0.00    +0.077 S 
ATOM      8  O   UNL     1      31.600 -12.292 -19.070  0.00  0.00    -0.150 OA
ATOM      9  O   UNL     1      30.403 -11.512 -21.144  0.00  0.00    -0.150 OA
BRANCH   7  12
ATOM     10  O   UNL     1      31.693  -9.261 -22.308  0.00  0.00    -0.250 OA
ATOM     11  N   UNL     1      33.234  -8.126 -21.008  0.00  0.00    -0.230 N 
ATOM     12  N   UNL     1      32.498 -10.234 -20.345  0.00  0.00    -0.168 N 
ATOM     13  C   UNL     1      32.418  -9.189 -21.319  0.00  0.00    +0.333 C 
ATOM     14  H   UNL     1      33.788  -8.144 -20.193  0.00  0.00    +0.171 HD
ATOM     15  H   UNL     1      33.105 -10.093 -19.581  0.00  0.00    +0.178 HD
BRANCH  11  16
ATOM     16  N   UNL     1      33.268  -7.028 -21.855  0.00  0.00    -0.205 NA
ATOM     17  C   UNL     1      31.883  -5.344 -24.196  0.00  0.00    +0.002 C 
ATOM     18  C   UNL     1      33.278  -5.488 -24.792  0.00  0.00    +0.002 C 
ATOM     19  C   UNL     1      31.852  -5.105 -22.691  0.00  0.00    +0.019 C 
ATOM     20  C   UNL     1      34.310  -6.249 -23.967  0.00  0.00    +0.019 C 
ATOM     21  C   UNL     1      31.947  -6.398 -21.876  0.00  0.00    +0.092 C 
ATOM     22  C   UNL     1      33.773  -7.437 -23.170  0.00  0.00    +0.092 C 
ENDBRANCH  11  16
ENDBRANCH   7  12
ENDBRANCH   1   7
BRANCH   2  23
ATOM     23  C   UNL     1      35.271 -15.076 -23.857  0.00  0.00    +0.048 C 
BRANCH  23  24
ATOM     24  C   UNL     1      34.855 -16.551 -23.930  0.00  0.00    +0.094 C 
BRANCH  24  26
ATOM     25  O   UNL     1      34.774 -19.379 -23.708  0.00  0.00    -0.268 OA
ATOM     26  N   UNL     1      35.420 -17.333 -22.863  0.00  0.00    -0.299 N 
ATOM     27  C   UNL     1      35.335 -18.723 -22.830  0.00  0.00    +0.267 C 
ATOM     28  H   UNL     1      35.884 -16.868 -22.129  0.00  0.00    +0.150 HD
BRANCH  27  31
ATOM     29  O   UNL     1      37.314 -19.692 -20.022  0.00  0.00    -0.358 OA
ATOM     30  N   UNL     1      37.019 -18.844 -21.084  0.00  0.00    -0.073 NA
ATOM     31  C   UNL     1      35.934 -19.373 -21.656  0.00  0.00    +0.176 C 
ATOM     32  C   UNL     1      35.503 -20.542 -21.006  0.00  0.00    +0.063 C 
ATOM     33  C   UNL     1      36.404 -20.699 -19.987  0.00  0.00    +0.155 C 
ATOM     34  C   UNL     1      36.567 -21.694 -18.919  0.00  0.00    +0.075 C 
ENDBRANCH  27  31
ENDBRANCH  24  26
ENDBRANCH  23  24
ENDBRANCH   2  23
TORSDOF 7
ENDMDL
MODEL 9
REMARK VINA RESULT:     -10.3      3.442      4.521
REMARK  Name = 32778
REMARK  7 active torsions:
REMARK  status: ('A' for Active; 'I' for Inactive)
REMARK    1  A    between atoms: C_1  and  S_7
REMARK    2  A    between atoms: C_2  and  C_23
REMARK    3  A    between atoms: S_7  and  N_12
REMARK    4  A    between atoms: N_11  and  N_16
REMARK    5  A    between atoms: C_23  and  C_24
REMARK    6  A    between atoms: C_24  and  N_26
REMARK    7  A    between atoms: C_27  and  C_31
REMARK                            x       y       z     vdW  Elec       q    Type
REMARK                         _______ _______ _______ _____ _____    ______ ____
ROOT
ATOM      1  C   UNL     1      35.840 -20.220 -21.080  0.00  0.00    +0.125 C 
ATOM      2  C   UNL     1      35.369 -18.379 -23.122  0.00  0.00    -0.020 C 
ATOM      3  C   UNL     1      34.606 -20.200 -21.731  0.00  0.00    +0.020 C 
ATOM      4  C   UNL     1      36.838 -19.319 -21.450  0.00  0.00    +0.020 C 
ATOM      5  C   UNL     1      34.371 -19.280 -22.752  0.00  0.00    -0.003 C 
ATOM      6  C   UNL     1      36.603 -18.399 -22.472  0.00  0.00    -0.003 C 
ENDROOT
BRANCH   1   7
ATOM      7  S   UNL     1      36.136 -21.386 -19.785  0.00  0.00    +0.077 S 
ATOM      8  O   UNL     1      36.912 -20.727 -18.753  0.00  0.00    -0.150 OA
ATOM      9  O   UNL     1      36.629 -22.597 -20.415  0.00  0.00    -0.150 OA
BRANCH   7  12
ATOM     10  O   UNL     1      35.002 -23.256 -17.582  0.00  0.00    -0.250 OA
ATOM     11  N   UNL     1      32.823 -22.563 -17.940  0.00  0.00    -0.230 N 
ATOM     12  N   UNL     1      34.547 -21.654 -19.217  0.00  0.00    -0.168 N 
ATOM     13  C   UNL     1      34.179 -22.565 -18.177  0.00  0.00    +0.333 C 
ATOM     14  H   UNL     1      32.227 -21.978 -18.462  0.00  0.00    +0.171 HD
ATOM     15  H   UNL     1      33.822 -21.138 -19.641  0.00  0.00    +0.178 HD
BRANCH  11  16
ATOM     16  N   UNL     1      32.308 -23.393 -16.957  0.00  0.00    -0.205 NA
ATOM     17  C   UNL     1      30.391 -23.759 -14.422  0.00  0.00    +0.002 C 
ATOM     18  C   UNL     1      31.673 -24.346 -13.845  0.00  0.00    +0.002 C 
ATOM     19  C   UNL     1      30.130 -24.106 -15.883  0.00  0.00    +0.019 C 
ATOM     20  C   UNL     1      32.894 -24.380 -14.758  0.00  0.00    +0.019 C 
ATOM     21  C   UNL     1      30.863 -23.180 -16.859  0.00  0.00    +0.092 C 
ATOM     22  C   UNL     1      33.044 -23.191 -15.705  0.00  0.00    +0.092 C 
ENDBRANCH  11  16
ENDBRANCH   7  12
ENDBRANCH   1   7
BRANCH   2  23
ATOM     23  C   UNL     1      35.118 -17.395 -24.215  0.00  0.00    +0.048 C 
BRANCH  23  24
ATOM     24  C   UNL     1      35.750 -16.021 -23.960  0.00  0.00    +0.094 C 
BRANCH  24  26
ATOM     25  O   UNL     1      34.962 -15.434 -21.298  0.00  0.00    -0.268 OA
ATOM     26  N   UNL     1      34.779 -15.037 -23.562  0.00  0.00    -0.299 N 
ATOM     27  C   UNL     1      34.449 -14.811 -22.227  0.00  0.00    +0.267 C 
ATOM     28  H   UNL     1      34.332 -14.503 -24.258  0.00  0.00    +0.150 HD
BRANCH  27  31
ATOM     29  O   UNL     1      31.960 -12.261 -22.444  0.00  0.00    -0.358 OA
ATOM     30  N   UNL     1      32.887 -13.126 -23.016  0.00  0.00    -0.073 NA
ATOM     31  C   UNL     1      33.416 -13.794 -21.987  0.00  0.00    +0.176 C 
ATOM     32  C   UNL     1      32.867 -13.399 -20.755  0.00  0.00    +0.063 C 
ATOM     33  C   UNL     1      31.959 -12.434 -21.098  0.00  0.00    +0.155 C 
ATOM     34  C   UNL     1      31.030 -11.593 -20.330  0.00  0.00    +0.075 C 
ENDBRANCH  27  31
ENDBRANCH  24  26
ENDBRANCH  23  24
ENDBRANCH   2  23
TORSDOF 7
ENDMDL
