MODEL 1
REMARK VINA RESULT:     -13.3      0.000      0.000
REMARK  Name = 4887
REMARK  9 active torsions:
REMARK  status: ('A' for Active; 'I' for Inactive)
REMARK    1  A    between atoms: N_2  and  C_8
REMARK    2  A    between atoms: C_3  and  C_23
REMARK    3  A    between atoms: C_14  and  C_20
REMARK    4  A    between atoms: C_22  and  O_28
REMARK    5  A    between atoms: O_28  and  C_29
REMARK    6  A    between atoms: C_29  and  C_30
REMARK    7  A    between atoms: C_30  and  C_31
REMARK    8  A    between atoms: C_31  and  C_32
REMARK    9  A    between atoms: C_32  and  C_33
REMARK                            x       y       z     vdW  Elec       q    Type
REMARK                         _______ _______ _______ _____ _____    ______ ____
ROOT
ATOM      1  O   UNL     1      33.816 -23.857 -19.008  0.00  0.00    -0.270 OA
ATOM      2  N   UNL     1      32.608 -22.155 -17.926  0.00  0.00    -0.278 N 
ATOM      3  C   UNL     1      33.515 -22.678 -18.855  0.00  0.00    +0.250 C 
ATOM      4  H   UNL     1      32.487 -21.179 -17.942  0.00  0.00    +0.155 HD
ENDROOT
BRANCH   2   8
ATOM      5  O   UNL     1      33.840 -23.502 -15.879  0.00  0.00    -0.442 OA
ATOM      6  O   UNL     1      31.756 -25.562 -13.052  0.00  0.00    -0.286 OA
ATOM      7  C   UNL     1      32.470 -23.540 -15.931  0.00  0.00    +0.163 C 
ATOM      8  C   UNL     1      31.854 -22.851 -16.977  0.00  0.00    +0.086 C 
ATOM      9  C   UNL     1      31.695 -24.225 -14.998  0.00  0.00    +0.075 C 
ATOM     10  C   UNL     1      30.463 -22.853 -17.084  0.00  0.00    +0.018 C 
ATOM     11  C   UNL     1      30.303 -24.229 -15.101  0.00  0.00    +0.006 C 
ATOM     12  C   UNL     1      32.371 -24.941 -13.907  0.00  0.00    +0.202 C 
ATOM     13  C   UNL     1      29.689 -23.540 -16.148  0.00  0.00    +0.002 C 
ATOM     14  C   UNL     1      34.490 -24.178 -14.851  0.00  0.00    +0.213 C 
ATOM     15  C   UNL     1      33.846 -24.870 -13.897  0.00  0.00    +0.090 C 
BRANCH  14  20
ATOM     16  N   UNL     1      36.746 -24.737 -15.726  0.00  0.00    -0.107 NA
ATOM     17  N   UNL     1      36.564 -23.172 -14.099  0.00  0.00    -0.084 NA
ATOM     18  N   UNL     1      37.917 -24.209 -15.343  0.00  0.00    -0.140 N 
ATOM     19  N   UNL     1      37.857 -23.278 -14.381  0.00  0.00    -0.022 NA
ATOM     20  C   UNL     1      35.927 -24.056 -14.920  0.00  0.00    +0.109 C 
ATOM     21  H   UNL     1      38.771 -24.489 -15.744  0.00  0.00    +0.197 HD
ENDBRANCH  14  20
ENDBRANCH   2   8
BRANCH   3  23
ATOM     22  C   UNL     1      35.453 -19.789 -21.342  0.00  0.00    +0.139 C 
ATOM     23  C   UNL     1      34.189 -21.674 -19.720  0.00  0.00    +0.054 C 
ATOM     24  C   UNL     1      34.059 -19.847 -21.295  0.00  0.00    +0.037 C 
ATOM     25  C   UNL     1      36.214 -20.674 -20.578  0.00  0.00    +0.037 C 
ATOM     26  C   UNL     1      33.428 -20.790 -20.484  0.00  0.00    +0.008 C 
ATOM     27  C   UNL     1      35.583 -21.616 -19.767  0.00  0.00    +0.008 C 
BRANCH  22  28
ATOM     28  O   UNL     1      36.069 -18.868 -22.132  0.00  0.00    -0.475 OA
BRANCH  28  29
ATOM     29  C   UNL     1      35.880 -18.991 -23.541  0.00  0.00    +0.205 C 
BRANCH  29  30
ATOM     30  C   UNL     1      35.257 -17.706 -24.067  0.00  0.00    +0.048 C 
BRANCH  30  31
ATOM     31  C   UNL     1      35.536 -16.524 -23.140  0.00  0.00    +0.009 C 
BRANCH  31  32
ATOM     32  C   UNL     1      35.016 -15.215 -23.740  0.00  0.00    +0.026 C 
BRANCH  32  33
ATOM     33  C   UNL     1      34.093 -14.495 -22.790  0.00  0.00    -0.022 C 
ATOM     34  C   UNL     1      33.282 -13.460 -23.255  0.00  0.00    -0.004 C 
ATOM     35  C   UNL     1      34.050 -14.863 -21.446  0.00  0.00    -0.004 C 
ATOM     36  C   UNL     1      32.429 -12.793 -22.377  0.00  0.00    -0.000 C 
ATOM     37  C   UNL     1      33.196 -14.198 -20.567  0.00  0.00    -0.000 C 
ATOM     38  C   UNL     1      32.385 -13.163 -21.032  0.00  0.00    -0.000 C 
ENDBRANCH  32  33
ENDBRANCH  31  32
ENDBRANCH  30  31
ENDBRANCH  29  30
ENDBRANCH  28  29
ENDBRANCH  22  28
ENDBRANCH   3  23
TORSDOF 9
ENDMDL
MODEL 2
REMARK VINA RESULT:     -13.2      1.727      3.945
REMARK  Name = 4887
REMARK  9 active torsions:
REMARK  status: ('A' for Active; 'I' for Inactive)
REMARK    1  A    between atoms: N_2  and  C_8
REMARK    2  A    between atoms: C_3  and  C_23
REMARK    3  A    between atoms: C_14  and  C_20
REMARK    4  A    between atoms: C_22  and  O_28
REMARK    5  A    between atoms: O_28  and  C_29
REMARK    6  A    between atoms: C_29  and  C_30
REMARK    7  A    between atoms: C_30  and  C_31
REMARK    8  A    between atoms: C_31  and  C_32
REMARK    9  A    between atoms: C_32  and  C_33
REMARK                            x       y       z     vdW  Elec       q    Type
REMARK                         _______ _______ _______ _____ _____    ______ ____
ROOT
ATOM      1  O   UNL     1      33.792 -24.130 -18.757  0.00  0.00    -0.270 OA
ATOM      2  N   UNL     1      34.134 -22.552 -17.048  0.00  0.00    -0.278 N 
ATOM      3  C   UNL     1      34.027 -22.989 -18.374  0.00  0.00    +0.250 C 
ATOM      4  H   UNL     1      34.326 -21.595 -16.923  0.00  0.00    +0.155 HD
ENDROOT
BRANCH   2   8
ATOM      5  O   UNL     1      31.657 -23.325 -16.161  0.00  0.00    -0.442 OA
ATOM      6  O   UNL     1      31.139 -25.535 -12.780  0.00  0.00    -0.286 OA
ATOM      7  C   UNL     1      32.746 -23.708 -15.421  0.00  0.00    +0.163 C 
ATOM      8  C   UNL     1      34.002 -23.309 -15.881  0.00  0.00    +0.086 C 
ATOM      9  C   UNL     1      32.642 -24.464 -14.255  0.00  0.00    +0.075 C 
ATOM     10  C   UNL     1      35.147 -23.668 -15.172  0.00  0.00    +0.018 C 
ATOM     11  C   UNL     1      33.786 -24.825 -13.541  0.00  0.00    +0.006 C 
ATOM     12  C   UNL     1      31.307 -24.870 -13.793  0.00  0.00    +0.202 C 
ATOM     13  C   UNL     1      35.040 -24.424 -14.004  0.00  0.00    +0.002 C 
ATOM     14  C   UNL     1      30.389 -23.704 -15.732  0.00  0.00    +0.213 C 
ATOM     15  C   UNL     1      30.168 -24.432 -14.624  0.00  0.00    +0.090 C 
BRANCH  14  20
ATOM     16  N   UNL     1      28.890 -23.833 -17.707  0.00  0.00    -0.107 NA
ATOM     17  N   UNL     1      28.706 -22.058 -16.313  0.00  0.00    -0.084 NA
ATOM     18  N   UNL     1      27.948 -22.950 -18.068  0.00  0.00    -0.140 N 
ATOM     19  N   UNL     1      27.804 -21.883 -17.271  0.00  0.00    -0.022 NA
ATOM     20  C   UNL     1      29.338 -23.232 -16.602  0.00  0.00    +0.109 C 
ATOM     21  H   UNL     1      27.394 -23.079 -18.871  0.00  0.00    +0.197 HD
ENDBRANCH  14  20
ENDBRANCH   2   8
BRANCH   3  23
ATOM     22  C   UNL     1      34.663 -19.981 -21.346  0.00  0.00    +0.139 C 
ATOM     23  C   UNL     1      34.247 -21.943 -19.407  0.00  0.00    +0.054 C 
ATOM     24  C   UNL     1      35.754 -20.602 -20.737  0.00  0.00    +0.037 C 
ATOM     25  C   UNL     1      33.364 -20.341 -20.986  0.00  0.00    +0.037 C 
ATOM     26  C   UNL     1      35.546 -21.582 -19.767  0.00  0.00    +0.008 C 
ATOM     27  C   UNL     1      33.156 -21.322 -20.017  0.00  0.00    +0.008 C 
BRANCH  22  28
ATOM     28  O   UNL     1      34.866 -19.025 -22.293  0.00  0.00    -0.475 OA
BRANCH  28  29
ATOM     29  C   UNL     1      34.706 -19.418 -23.656  0.00  0.00    +0.205 C 
BRANCH  29  30
ATOM     30  C   UNL     1      34.886 -18.195 -24.544  0.00  0.00    +0.048 C 
BRANCH  30  31
ATOM     31  C   UNL     1      35.665 -17.091 -23.831  0.00  0.00    +0.009 C 
BRANCH  31  32
ATOM     32  C   UNL     1      35.238 -15.706 -24.322  0.00  0.00    +0.026 C 
BRANCH  32  33
ATOM     33  C   UNL     1      34.490 -14.944 -23.257  0.00  0.00    -0.022 C 
ATOM     34  C   UNL     1      33.566 -13.964 -23.620  0.00  0.00    -0.004 C 
ATOM     35  C   UNL     1      34.723 -15.217 -21.911  0.00  0.00    -0.004 C 
ATOM     36  C   UNL     1      32.874 -13.258 -22.636  0.00  0.00    -0.000 C 
ATOM     37  C   UNL     1      34.031 -14.513 -20.925  0.00  0.00    -0.000 C 
ATOM     38  C   UNL     1      33.107 -13.533 -21.288  0.00  0.00    -0.000 C 
ENDBRANCH  32  33
ENDBRANCH  31  32
ENDBRANCH  30  31
ENDBRANCH  29  30
ENDBRANCH  28  29
ENDBRANCH  22  28
ENDBRANCH   3  23
TORSDOF 9
ENDMDL
MODEL 3
REMARK VINA RESULT:     -12.9      1.323      2.090
REMARK  Name = 4887
REMARK  9 active torsions:
REMARK  status: ('A' for Active; 'I' for Inactive)
REMARK    1  A    between atoms: N_2  and  C_8
REMARK    2  A    between atoms: C_3  and  C_23
REMARK    3  A    between atoms: C_14  and  C_20
REMARK    4  A    between atoms: C_22  and  O_28
REMARK    5  A    between atoms: O_28  and  C_29
REMARK    6  A    between atoms: C_29  and  C_30
REMARK    7  A    between atoms: C_30  and  C_31
REMARK    8  A    between atoms: C_31  and  C_32
REMARK    9  A    between atoms: C_32  and  C_33
REMARK                            x       y       z     vdW  Elec       q    Type
REMARK                         _______ _______ _______ _____ _____    ______ ____
ROOT
ATOM      1  O   UNL     1      33.802 -23.926 -18.884  0.00  0.00    -0.270 OA
ATOM      2  N   UNL     1      32.531 -22.212 -17.896  0.00  0.00    -0.278 N 
ATOM      3  C   UNL     1      33.462 -22.752 -18.792  0.00  0.00    +0.250 C 
ATOM      4  H   UNL     1      32.379 -21.242 -17.963  0.00  0.00    +0.155 HD
ENDROOT
BRANCH   2   8
ATOM      5  O   UNL     1      33.797 -23.547 -15.861  0.00  0.00    -0.442 OA
ATOM      6  O   UNL     1      31.757 -25.537 -12.953  0.00  0.00    -0.286 OA
ATOM      7  C   UNL     1      32.425 -23.566 -15.879  0.00  0.00    +0.163 C 
ATOM      8  C   UNL     1      31.792 -22.884 -16.919  0.00  0.00    +0.086 C 
ATOM      9  C   UNL     1      31.665 -24.227 -14.916  0.00  0.00    +0.075 C 
ATOM     10  C   UNL     1      30.399 -22.867 -16.991  0.00  0.00    +0.018 C 
ATOM     11  C   UNL     1      30.270 -24.212 -14.984  0.00  0.00    +0.006 C 
ATOM     12  C   UNL     1      32.359 -24.936 -13.833  0.00  0.00    +0.202 C 
ATOM     13  C   UNL     1      29.640 -23.530 -16.025  0.00  0.00    +0.002 C 
ATOM     14  C   UNL     1      34.463 -24.217 -14.841  0.00  0.00    +0.213 C 
ATOM     15  C   UNL     1      33.834 -24.886 -13.860  0.00  0.00    +0.090 C 
BRANCH  14  20
ATOM     16  N   UNL     1      36.712 -24.969 -15.576  0.00  0.00    -0.107 NA
ATOM     17  N   UNL     1      36.542 -23.064 -14.364  0.00  0.00    -0.084 NA
ATOM     18  N   UNL     1      37.886 -24.367 -15.337  0.00  0.00    -0.140 N 
ATOM     19  N   UNL     1      37.832 -23.235 -14.622  0.00  0.00    -0.022 NA
ATOM     20  C   UNL     1      35.899 -24.116 -14.947  0.00  0.00    +0.109 C 
ATOM     21  H   UNL     1      38.737 -24.735 -15.667  0.00  0.00    +0.197 HD
ENDBRANCH  14  20
ENDBRANCH   2   8
BRANCH   3  23
ATOM     22  C   UNL     1      35.329 -19.930 -21.407  0.00  0.00    +0.139 C 
ATOM     23  C   UNL     1      34.111 -21.771 -19.702  0.00  0.00    +0.054 C 
ATOM     24  C   UNL     1      36.111 -20.768 -20.612  0.00  0.00    +0.037 C 
ATOM     25  C   UNL     1      33.938 -20.012 -21.349  0.00  0.00    +0.037 C 
ATOM     26  C   UNL     1      35.502 -21.688 -19.759  0.00  0.00    +0.008 C 
ATOM     27  C   UNL     1      33.328 -20.933 -20.497  0.00  0.00    +0.008 C 
BRANCH  22  28
ATOM     28  O   UNL     1      35.923 -19.033 -22.241  0.00  0.00    -0.475 OA
BRANCH  28  29
ATOM     29  C   UNL     1      35.226 -18.702 -23.441  0.00  0.00    +0.205 C 
BRANCH  29  30
ATOM     30  C   UNL     1      35.398 -17.215 -23.715  0.00  0.00    +0.048 C 
BRANCH  30  31
ATOM     31  C   UNL     1      35.204 -16.888 -25.195  0.00  0.00    +0.009 C 
BRANCH  31  32
ATOM     32  C   UNL     1      33.808 -16.321 -25.458  0.00  0.00    +0.026 C 
BRANCH  32  33
ATOM     33  C   UNL     1      33.842 -14.825 -25.646  0.00  0.00    -0.022 C 
ATOM     34  C   UNL     1      34.094 -13.991 -24.557  0.00  0.00    -0.004 C 
ATOM     35  C   UNL     1      33.620 -14.275 -26.907  0.00  0.00    -0.004 C 
ATOM     36  C   UNL     1      34.124 -12.608 -24.729  0.00  0.00    -0.000 C 
ATOM     37  C   UNL     1      33.651 -12.891 -27.081  0.00  0.00    -0.000 C 
ATOM     38  C   UNL     1      33.903 -12.058 -25.992  0.00  0.00    -0.000 C 
ENDBRANCH  32  33
ENDBRANCH  31  32
ENDBRANCH  30  31
ENDBRANCH  29  30
ENDBRANCH  28  29
ENDBRANCH  22  28
ENDBRANCH   3  23
TORSDOF 9
ENDMDL
MODEL 4
REMARK VINA RESULT:     -12.3      1.838      4.015
REMARK  Name = 4887
REMARK  9 active torsions:
REMARK  status: ('A' for Active; 'I' for Inactive)
REMARK    1  A    between atoms: N_2  and  C_8
REMARK    2  A    between atoms: C_3  and  C_23
REMARK    3  A    between atoms: C_14  and  C_20
REMARK    4  A    between atoms: C_22  and  O_28
REMARK    5  A    between atoms: O_28  and  C_29
REMARK    6  A    between atoms: C_29  and  C_30
REMARK    7  A    between atoms: C_30  and  C_31
REMARK    8  A    between atoms: C_31  and  C_32
REMARK    9  A    between atoms: C_32  and  C_33
REMARK                            x       y       z     vdW  Elec       q    Type
REMARK                         _______ _______ _______ _____ _____    ______ ____
ROOT
ATOM      1  O   UNL     1      37.634 -20.834 -17.914  0.00  0.00    -0.270 OA
ATOM      2  N   UNL     1      35.821 -22.306 -17.647  0.00  0.00    -0.278 N 
ATOM      3  C   UNL     1      36.581 -21.329 -18.301  0.00  0.00    +0.250 C 
ATOM      4  H   UNL     1      34.998 -22.591 -18.105  0.00  0.00    +0.155 HD
ENDROOT
BRANCH   2   8
ATOM      5  O   UNL     1      33.771 -23.058 -15.987  0.00  0.00    -0.442 OA
ATOM      6  O   UNL     1      34.418 -24.871 -12.399  0.00  0.00    -0.286 OA
ATOM      7  C   UNL     1      35.053 -23.312 -15.570  0.00  0.00    +0.163 C 
ATOM      8  C   UNL     1      36.088 -22.925 -16.423  0.00  0.00    +0.086 C 
ATOM      9  C   UNL     1      35.346 -23.928 -14.356  0.00  0.00    +0.075 C 
ATOM     10  C   UNL     1      37.413 -23.156 -16.054  0.00  0.00    +0.018 C 
ATOM     11  C   UNL     1      36.671 -24.162 -13.983  0.00  0.00    +0.006 C 
ATOM     12  C   UNL     1      34.236 -24.325 -13.479  0.00  0.00    +0.202 C 
ATOM     13  C   UNL     1      37.705 -23.774 -14.837  0.00  0.00    +0.002 C 
ATOM     14  C   UNL     1      32.713 -23.428 -15.164  0.00  0.00    +0.213 C 
ATOM     15  C   UNL     1      32.877 -24.028 -13.973  0.00  0.00    +0.090 C 
BRANCH  14  20
ATOM     16  N   UNL     1      30.265 -23.027 -15.064  0.00  0.00    -0.107 NA
ATOM     17  N   UNL     1      31.322 -22.828 -17.057  0.00  0.00    -0.084 NA
ATOM     18  N   UNL     1      29.456 -22.694 -16.080  0.00  0.00    -0.140 N 
ATOM     19  N   UNL     1      30.040 -22.566 -17.279  0.00  0.00    -0.022 NA
ATOM     20  C   UNL     1      31.424 -23.099 -15.724  0.00  0.00    +0.109 C 
ATOM     21  H   UNL     1      28.491 -22.553 -15.953  0.00  0.00    +0.197 HD
ENDBRANCH  14  20
ENDBRANCH   2   8
BRANCH   3  23
ATOM     22  C   UNL     1      34.962 -19.924 -22.001  0.00  0.00    +0.139 C 
ATOM     23  C   UNL     1      36.018 -20.841 -19.587  0.00  0.00    +0.054 C 
ATOM     24  C   UNL     1      36.274 -19.605 -21.647  0.00  0.00    +0.037 C 
ATOM     25  C   UNL     1      34.179 -20.702 -21.148  0.00  0.00    +0.037 C 
ATOM     26  C   UNL     1      36.801 -20.063 -20.440  0.00  0.00    +0.008 C 
ATOM     27  C   UNL     1      34.707 -21.161 -19.941  0.00  0.00    +0.008 C 
BRANCH  22  28
ATOM     28  O   UNL     1      34.448 -19.479 -23.179  0.00  0.00    -0.475 OA
BRANCH  28  29
ATOM     29  C   UNL     1      35.321 -18.735 -24.028  0.00  0.00    +0.205 C 
BRANCH  29  30
ATOM     30  C   UNL     1      34.502 -18.114 -25.151  0.00  0.00    +0.048 C 
BRANCH  30  31
ATOM     31  C   UNL     1      34.658 -16.594 -25.187  0.00  0.00    +0.009 C 
BRANCH  31  32
ATOM     32  C   UNL     1      35.575 -16.105 -24.064  0.00  0.00    +0.026 C 
BRANCH  32  33
ATOM     33  C   UNL     1      34.812 -15.323 -23.024  0.00  0.00    -0.022 C 
ATOM     34  C   UNL     1      34.956 -15.635 -21.672  0.00  0.00    -0.004 C 
ATOM     35  C   UNL     1      33.961 -14.290 -23.413  0.00  0.00    -0.004 C 
ATOM     36  C   UNL     1      34.250 -14.914 -20.710  0.00  0.00    -0.000 C 
ATOM     37  C   UNL     1      33.255 -13.567 -22.451  0.00  0.00    -0.000 C 
ATOM     38  C   UNL     1      33.400 -13.879 -21.100  0.00  0.00    -0.000 C 
ENDBRANCH  32  33
ENDBRANCH  31  32
ENDBRANCH  30  31
ENDBRANCH  29  30
ENDBRANCH  28  29
ENDBRANCH  22  28
ENDBRANCH   3  23
TORSDOF 9
ENDMDL
MODEL 5
REMARK VINA RESULT:     -12.3      1.693      3.893
REMARK  Name = 4887
REMARK  9 active torsions:
REMARK  status: ('A' for Active; 'I' for Inactive)
REMARK    1  A    between atoms: N_2  and  C_8
REMARK    2  A    between atoms: C_3  and  C_23
REMARK    3  A    between atoms: C_14  and  C_20
REMARK    4  A    between atoms: C_22  and  O_28
REMARK    5  A    between atoms: O_28  and  C_29
REMARK    6  A    between atoms: C_29  and  C_30
REMARK    7  A    between atoms: C_30  and  C_31
REMARK    8  A    between atoms: C_31  and  C_32
REMARK    9  A    between atoms: C_32  and  C_33
REMARK                            x       y       z     vdW  Elec       q    Type
REMARK                         _______ _______ _______ _____ _____    ______ ____
ROOT
ATOM      1  O   UNL     1      34.476 -23.516 -18.729  0.00  0.00    -0.270 OA
ATOM      2  N   UNL     1      35.814 -22.035 -17.487  0.00  0.00    -0.278 N 
ATOM      3  C   UNL     1      35.070 -22.451 -18.597  0.00  0.00    +0.250 C 
ATOM      4  H   UNL     1      36.225 -21.143 -17.552  0.00  0.00    +0.155 HD
ENDROOT
BRANCH   2   8
ATOM      5  O   UNL     1      33.715 -22.923 -15.961  0.00  0.00    -0.442 OA
ATOM      6  O   UNL     1      34.254 -24.967 -12.481  0.00  0.00    -0.286 OA
ATOM      7  C   UNL     1      34.984 -23.188 -15.513  0.00  0.00    +0.163 C 
ATOM      8  C   UNL     1      36.044 -22.732 -16.297  0.00  0.00    +0.086 C 
ATOM      9  C   UNL     1      35.241 -23.882 -14.333  0.00  0.00    +0.075 C 
ATOM     10  C   UNL     1      37.358 -22.971 -15.895  0.00  0.00    +0.018 C 
ATOM     11  C   UNL     1      36.555 -24.124 -13.926  0.00  0.00    +0.006 C 
ATOM     12  C   UNL     1      34.105 -24.351 -13.527  0.00  0.00    +0.202 C 
ATOM     13  C   UNL     1      37.613 -23.666 -14.712  0.00  0.00    +0.002 C 
ATOM     14  C   UNL     1      32.633 -23.361 -15.205  0.00  0.00    +0.213 C 
ATOM     15  C   UNL     1      32.761 -24.038 -14.052  0.00  0.00    +0.090 C 
BRANCH  14  20
ATOM     16  N   UNL     1      31.101 -22.851 -17.092  0.00  0.00    -0.107 NA
ATOM     17  N   UNL     1      30.281 -22.814 -14.981  0.00  0.00    -0.084 NA
ATOM     18  N   UNL     1      29.798 -22.544 -17.017  0.00  0.00    -0.140 N 
ATOM     19  N   UNL     1      29.271 -22.510 -15.785  0.00  0.00    -0.022 NA
ATOM     20  C   UNL     1      31.360 -23.012 -15.791  0.00  0.00    +0.109 C 
ATOM     21  H   UNL     1      29.260 -22.354 -17.819  0.00  0.00    +0.197 HD
ENDBRANCH  14  20
ENDBRANCH   2   8
BRANCH   3  23
ATOM     22  C   UNL     1      34.959 -19.690 -21.860  0.00  0.00    +0.139 C 
ATOM     23  C   UNL     1      35.031 -21.491 -19.732  0.00  0.00    +0.054 C 
ATOM     24  C   UNL     1      36.185 -20.102 -21.336  0.00  0.00    +0.037 C 
ATOM     25  C   UNL     1      33.770 -20.178 -21.320  0.00  0.00    +0.037 C 
ATOM     26  C   UNL     1      36.220 -21.002 -20.272  0.00  0.00    +0.008 C 
ATOM     27  C   UNL     1      33.805 -21.079 -20.256  0.00  0.00    +0.008 C 
BRANCH  22  28
ATOM     28  O   UNL     1      34.924 -18.813 -22.900  0.00  0.00    -0.475 OA
BRANCH  28  29
ATOM     29  C   UNL     1      35.707 -17.627 -22.776  0.00  0.00    +0.205 C 
BRANCH  29  30
ATOM     30  C   UNL     1      35.327 -16.921 -21.482  0.00  0.00    +0.048 C 
BRANCH  30  31
ATOM     31  C   UNL     1      34.868 -15.486 -21.737  0.00  0.00    +0.009 C 
BRANCH  31  32
ATOM     32  C   UNL     1      34.015 -14.963 -20.579  0.00  0.00    +0.026 C 
BRANCH  32  33
ATOM     33  C   UNL     1      33.171 -13.785 -20.997  0.00  0.00    -0.022 C 
ATOM     34  C   UNL     1      33.147 -13.384 -22.333  0.00  0.00    -0.004 C 
ATOM     35  C   UNL     1      32.415 -13.097 -20.049  0.00  0.00    -0.004 C 
ATOM     36  C   UNL     1      32.367 -12.295 -22.720  0.00  0.00    -0.000 C 
ATOM     37  C   UNL     1      31.634 -12.008 -20.436  0.00  0.00    -0.000 C 
ATOM     38  C   UNL     1      31.610 -11.607 -21.772  0.00  0.00    -0.000 C 
ENDBRANCH  32  33
ENDBRANCH  31  32
ENDBRANCH  30  31
ENDBRANCH  29  30
ENDBRANCH  28  29
ENDBRANCH  22  28
ENDBRANCH   3  23
TORSDOF 9
ENDMDL
MODEL 6
REMARK VINA RESULT:     -11.7      1.829      4.118
REMARK  Name = 4887
REMARK  9 active torsions:
REMARK  status: ('A' for Active; 'I' for Inactive)
REMARK    1  A    between atoms: N_2  and  C_8
REMARK    2  A    between atoms: C_3  and  C_23
REMARK    3  A    between atoms: C_14  and  C_20
REMARK    4  A    between atoms: C_22  and  O_28
REMARK    5  A    between atoms: O_28  and  C_29
REMARK    6  A    between atoms: C_29  and  C_30
REMARK    7  A    between atoms: C_30  and  C_31
REMARK    8  A    between atoms: C_31  and  C_32
REMARK    9  A    between atoms: C_32  and  C_33
REMARK                            x       y       z     vdW  Elec       q    Type
REMARK                         _______ _______ _______ _____ _____    ______ ____
ROOT
ATOM      1  O   UNL     1      34.473 -23.519 -18.627  0.00  0.00    -0.270 OA
ATOM      2  N   UNL     1      35.853 -22.077 -17.384  0.00  0.00    -0.278 N 
ATOM      3  C   UNL     1      35.089 -22.467 -18.491  0.00  0.00    +0.250 C 
ATOM      4  H   UNL     1      36.281 -21.194 -17.444  0.00  0.00    +0.155 HD
ENDROOT
BRANCH   2   8
ATOM      5  O   UNL     1      33.750 -22.982 -15.872  0.00  0.00    -0.442 OA
ATOM      6  O   UNL     1      34.282 -25.072 -12.419  0.00  0.00    -0.286 OA
ATOM      7  C   UNL     1      35.018 -23.256 -15.427  0.00  0.00    +0.163 C 
ATOM      8  C   UNL     1      36.080 -22.791 -16.203  0.00  0.00    +0.086 C 
ATOM      9  C   UNL     1      35.272 -23.965 -14.255  0.00  0.00    +0.075 C 
ATOM     10  C   UNL     1      37.393 -23.037 -15.802  0.00  0.00    +0.018 C 
ATOM     11  C   UNL     1      36.585 -24.215 -13.850  0.00  0.00    +0.006 C 
ATOM     12  C   UNL     1      34.134 -24.443 -13.457  0.00  0.00    +0.202 C 
ATOM     13  C   UNL     1      37.645 -23.748 -14.628  0.00  0.00    +0.002 C 
ATOM     14  C   UNL     1      32.666 -23.428 -15.124  0.00  0.00    +0.213 C 
ATOM     15  C   UNL     1      32.791 -24.121 -13.979  0.00  0.00    +0.090 C 
BRANCH  14  20
ATOM     16  N   UNL     1      30.227 -22.967 -15.067  0.00  0.00    -0.107 NA
ATOM     17  N   UNL     1      31.323 -22.796 -17.041  0.00  0.00    -0.084 NA
ATOM     18  N   UNL     1      29.445 -22.616 -16.097  0.00  0.00    -0.140 N 
ATOM     19  N   UNL     1      30.052 -22.503 -17.286  0.00  0.00    -0.022 NA
ATOM     20  C   UNL     1      31.395 -23.069 -15.707  0.00  0.00    +0.109 C 
ATOM     21  H   UNL     1      28.481 -22.451 -15.987  0.00  0.00    +0.197 HD
ENDBRANCH  14  20
ENDBRANCH   2   8
BRANCH   3  23
ATOM     22  C   UNL     1      35.003 -19.672 -21.725  0.00  0.00    +0.139 C 
ATOM     23  C   UNL     1      35.059 -21.496 -19.615  0.00  0.00    +0.054 C 
ATOM     24  C   UNL     1      36.224 -20.064 -21.174  0.00  0.00    +0.037 C 
ATOM     25  C   UNL     1      33.811 -20.193 -21.222  0.00  0.00    +0.037 C 
ATOM     26  C   UNL     1      36.251 -20.975 -20.118  0.00  0.00    +0.008 C 
ATOM     27  C   UNL     1      33.838 -21.105 -20.167  0.00  0.00    +0.008 C 
BRANCH  22  28
ATOM     28  O   UNL     1      34.976 -18.785 -22.757  0.00  0.00    -0.475 OA
BRANCH  28  29
ATOM     29  C   UNL     1      35.795 -17.623 -22.634  0.00  0.00    +0.205 C 
BRANCH  29  30
ATOM     30  C   UNL     1      35.301 -16.796 -21.455  0.00  0.00    +0.048 C 
BRANCH  30  31
ATOM     31  C   UNL     1      34.367 -15.674 -21.905  0.00  0.00    +0.009 C 
BRANCH  31  32
ATOM     32  C   UNL     1      35.134 -14.582 -22.655  0.00  0.00    +0.026 C 
BRANCH  32  33
ATOM     33  C   UNL     1      34.558 -14.339 -24.027  0.00  0.00    -0.022 C 
ATOM     34  C   UNL     1      34.256 -13.041 -24.437  0.00  0.00    -0.004 C 
ATOM     35  C   UNL     1      34.327 -15.412 -24.886  0.00  0.00    -0.004 C 
ATOM     36  C   UNL     1      33.723 -12.815 -25.705  0.00  0.00    -0.000 C 
ATOM     37  C   UNL     1      33.794 -15.188 -26.156  0.00  0.00    -0.000 C 
ATOM     38  C   UNL     1      33.492 -13.890 -26.565  0.00  0.00    -0.000 C 
ENDBRANCH  32  33
ENDBRANCH  31  32
ENDBRANCH  30  31
ENDBRANCH  29  30
ENDBRANCH  28  29
ENDBRANCH  22  28
ENDBRANCH   3  23
TORSDOF 9
ENDMDL
MODEL 7
REMARK VINA RESULT:     -11.3      1.473      2.235
REMARK  Name = 4887
REMARK  9 active torsions:
REMARK  status: ('A' for Active; 'I' for Inactive)
REMARK    1  A    between atoms: N_2  and  C_8
REMARK    2  A    between atoms: C_3  and  C_23
REMARK    3  A    between atoms: C_14  and  C_20
REMARK    4  A    between atoms: C_22  and  O_28
REMARK    5  A    between atoms: O_28  and  C_29
REMARK    6  A    between atoms: C_29  and  C_30
REMARK    7  A    between atoms: C_30  and  C_31
REMARK    8  A    between atoms: C_31  and  C_32
REMARK    9  A    between atoms: C_32  and  C_33
REMARK                            x       y       z     vdW  Elec       q    Type
REMARK                         _______ _______ _______ _____ _____    ______ ____
ROOT
ATOM      1  O   UNL     1      33.176 -23.937 -18.306  0.00  0.00    -0.270 OA
ATOM      2  N   UNL     1      33.994 -22.416 -16.710  0.00  0.00    -0.278 N 
ATOM      3  C   UNL     1      33.765 -22.905 -18.002  0.00  0.00    +0.250 C 
ATOM      4  H   UNL     1      34.486 -21.566 -16.651  0.00  0.00    +0.155 HD
ENDROOT
BRANCH   2   8
ATOM      5  O   UNL     1      35.819 -23.748 -15.155  0.00  0.00    -0.442 OA
ATOM      6  O   UNL     1      34.823 -25.455 -11.595  0.00  0.00    -0.286 OA
ATOM      7  C   UNL     1      34.529 -23.668 -14.695  0.00  0.00    +0.163 C 
ATOM      8  C   UNL     1      33.609 -22.989 -15.495  0.00  0.00    +0.086 C 
ATOM      9  C   UNL     1      34.119 -24.229 -13.488  0.00  0.00    +0.075 C 
ATOM     10  C   UNL     1      32.282 -22.874 -15.081  0.00  0.00    +0.018 C 
ATOM     11  C   UNL     1      32.792 -24.116 -13.069  0.00  0.00    +0.006 C 
ATOM     12  C   UNL     1      35.110 -24.939 -12.666  0.00  0.00    +0.202 C 
ATOM     13  C   UNL     1      31.874 -23.437 -13.871  0.00  0.00    +0.002 C 
ATOM     14  C   UNL     1      36.763 -24.419 -14.386  0.00  0.00    +0.213 C 
ATOM     15  C   UNL     1      36.483 -24.997 -13.206  0.00  0.00    +0.090 C 
BRANCH  14  20
ATOM     16  N   UNL     1      38.979 -25.408 -14.914  0.00  0.00    -0.107 NA
ATOM     17  N   UNL     1      38.484 -23.350 -15.719  0.00  0.00    -0.084 NA
ATOM     18  N   UNL     1      39.959 -24.857 -15.644  0.00  0.00    -0.140 N 
ATOM     19  N   UNL     1      39.709 -23.638 -16.141  0.00  0.00    -0.022 NA
ATOM     20  C   UNL     1      38.075 -24.427 -14.989  0.00  0.00    +0.109 C 
ATOM     21  H   UNL     1      40.812 -25.320 -15.806  0.00  0.00    +0.197 HD
ENDBRANCH  14  20
ENDBRANCH   2   8
BRANCH   3  23
ATOM     22  C   UNL     1      35.380 -20.527 -21.168  0.00  0.00    +0.139 C 
ATOM     23  C   UNL     1      34.326 -22.078 -19.103  0.00  0.00    +0.054 C 
ATOM     24  C   UNL     1      36.230 -21.284 -20.360  0.00  0.00    +0.037 C 
ATOM     25  C   UNL     1      34.004 -20.546 -20.943  0.00  0.00    +0.037 C 
ATOM     26  C   UNL     1      35.703 -22.059 -19.327  0.00  0.00    +0.008 C 
ATOM     27  C   UNL     1      33.476 -21.322 -19.911  0.00  0.00    +0.008 C 
BRANCH  22  28
ATOM     28  O   UNL     1      35.894 -19.772 -22.176  0.00  0.00    -0.475 OA
BRANCH  28  29
ATOM     29  C   UNL     1      36.013 -18.370 -21.942  0.00  0.00    +0.205 C 
BRANCH  29  30
ATOM     30  C   UNL     1      35.345 -17.622 -23.088  0.00  0.00    +0.048 C 
BRANCH  30  31
ATOM     31  C   UNL     1      35.423 -16.109 -22.894  0.00  0.00    +0.009 C 
BRANCH  31  32
ATOM     32  C   UNL     1      34.911 -15.700 -21.510  0.00  0.00    +0.026 C 
BRANCH  32  33
ATOM     33  C   UNL     1      33.938 -14.551 -21.594  0.00  0.00    -0.022 C 
ATOM     34  C   UNL     1      33.096 -14.271 -20.518  0.00  0.00    -0.004 C 
ATOM     35  C   UNL     1      33.878 -13.770 -22.747  0.00  0.00    -0.004 C 
ATOM     36  C   UNL     1      32.195 -13.210 -20.595  0.00  0.00    -0.000 C 
ATOM     37  C   UNL     1      32.978 -12.708 -22.825  0.00  0.00    -0.000 C 
ATOM     38  C   UNL     1      32.136 -12.428 -21.749  0.00  0.00    -0.000 C 
ENDBRANCH  32  33
ENDBRANCH  31  32
ENDBRANCH  30  31
ENDBRANCH  29  30
ENDBRANCH  28  29
ENDBRANCH  22  28
ENDBRANCH   3  23
TORSDOF 9
ENDMDL
MODEL 8
REMARK VINA RESULT:     -11.0      6.927     12.930
REMARK  Name = 4887
REMARK  9 active torsions:
REMARK  status: ('A' for Active; 'I' for Inactive)
REMARK    1  A    between atoms: N_2  and  C_8
REMARK    2  A    between atoms: C_3  and  C_23
REMARK    3  A    between atoms: C_14  and  C_20
REMARK    4  A    between atoms: C_22  and  O_28
REMARK    5  A    between atoms: O_28  and  C_29
REMARK    6  A    between atoms: C_29  and  C_30
REMARK    7  A    between atoms: C_30  and  C_31
REMARK    8  A    between atoms: C_31  and  C_32
REMARK    9  A    between atoms: C_32  and  C_33
REMARK                            x       y       z     vdW  Elec       q    Type
REMARK                         _______ _______ _______ _____ _____    ______ ____
ROOT
ATOM      1  O   UNL     1      35.530 -10.554 -25.564  0.00  0.00    -0.270 OA
ATOM      2  N   UNL     1      33.645 -10.381 -24.170  0.00  0.00    -0.278 N 
ATOM      3  C   UNL     1      34.562 -11.045 -24.994  0.00  0.00    +0.250 C 
ATOM      4  H   UNL     1      32.924 -10.934 -23.793  0.00  0.00    +0.155 HD
ENDROOT
BRANCH   2   8
ATOM      5  O   UNL     1      32.881  -9.600 -21.655  0.00  0.00    -0.442 OA
ATOM      6  O   UNL     1      32.794  -5.693 -20.512  0.00  0.00    -0.286 OA
ATOM      7  C   UNL     1      33.241  -8.619 -22.543  0.00  0.00    +0.163 C 
ATOM      8  C   UNL     1      33.628  -9.028 -23.820  0.00  0.00    +0.086 C 
ATOM      9  C   UNL     1      33.234  -7.265 -22.219  0.00  0.00    +0.075 C 
ATOM     10  C   UNL     1      34.006  -8.077 -24.768  0.00  0.00    +0.018 C 
ATOM     11  C   UNL     1      33.612  -6.309 -23.165  0.00  0.00    +0.006 C 
ATOM     12  C   UNL     1      32.823  -6.863 -20.867  0.00  0.00    +0.202 C 
ATOM     13  C   UNL     1      33.999  -6.720 -24.442  0.00  0.00    +0.002 C 
ATOM     14  C   UNL     1      32.488  -9.231 -20.373  0.00  0.00    +0.213 C 
ATOM     15  C   UNL     1      32.443  -7.956 -19.950  0.00  0.00    +0.090 C 
BRANCH  14  20
ATOM     16  N   UNL     1      31.956 -10.353 -18.222  0.00  0.00    -0.107 NA
ATOM     17  N   UNL     1      31.953 -11.583 -20.125  0.00  0.00    -0.084 NA
ATOM     18  N   UNL     1      31.655 -11.646 -18.037  0.00  0.00    -0.140 N 
ATOM     19  N   UNL     1      31.641 -12.412 -19.136  0.00  0.00    -0.022 NA
ATOM     20  C   UNL     1      32.134 -10.361 -19.546  0.00  0.00    +0.109 C 
ATOM     21  H   UNL     1      31.456 -12.012 -17.145  0.00  0.00    +0.197 HD
ENDBRANCH  14  20
ENDBRANCH   2   8
BRANCH   3  23
ATOM     22  C   UNL     1      33.800 -15.210 -25.590  0.00  0.00    +0.139 C 
ATOM     23  C   UNL     1      34.296 -12.493 -25.201  0.00  0.00    +0.054 C 
ATOM     24  C   UNL     1      34.252 -14.754 -24.351  0.00  0.00    +0.037 C 
ATOM     25  C   UNL     1      33.595 -14.308 -26.634  0.00  0.00    +0.037 C 
ATOM     26  C   UNL     1      34.501 -13.395 -24.158  0.00  0.00    +0.008 C 
ATOM     27  C   UNL     1      33.843 -12.949 -26.440  0.00  0.00    +0.008 C 
BRANCH  22  28
ATOM     28  O   UNL     1      33.555 -16.536 -25.778  0.00  0.00    -0.475 OA
BRANCH  28  29
ATOM     29  C   UNL     1      34.643 -17.434 -25.564  0.00  0.00    +0.205 C 
BRANCH  29  30
ATOM     30  C   UNL     1      34.121 -18.678 -24.859  0.00  0.00    +0.048 C 
BRANCH  30  31
ATOM     31  C   UNL     1      35.213 -19.358 -24.035  0.00  0.00    +0.009 C 
BRANCH  31  32
ATOM     32  C   UNL     1      35.308 -18.750 -22.633  0.00  0.00    +0.026 C 
BRANCH  32  33
ATOM     33  C   UNL     1      35.043 -19.778 -21.562  0.00  0.00    -0.022 C 
ATOM     34  C   UNL     1      36.109 -20.390 -20.904  0.00  0.00    -0.004 C 
ATOM     35  C   UNL     1      33.732 -20.117 -21.230  0.00  0.00    -0.004 C 
ATOM     36  C   UNL     1      35.865 -21.342 -19.915  0.00  0.00    -0.000 C 
ATOM     37  C   UNL     1      33.486 -21.068 -20.240  0.00  0.00    -0.000 C 
ATOM     38  C   UNL     1      34.553 -21.680 -19.582  0.00  0.00    -0.000 C 
ENDBRANCH  32  33
ENDBRANCH  31  32
ENDBRANCH  30  31
ENDBRANCH  29  30
ENDBRANCH  28  29
ENDBRANCH  22  28
ENDBRANCH   3  23
TORSDOF 9
ENDMDL
MODEL 9
REMARK VINA RESULT:     -10.9      6.831     13.079
REMARK  Name = 4887
REMARK  9 active torsions:
REMARK  status: ('A' for Active; 'I' for Inactive)
REMARK    1  A    between atoms: N_2  and  C_8
REMARK    2  A    between atoms: C_3  and  C_23
REMARK    3  A    between atoms: C_14  and  C_20
REMARK    4  A    between atoms: C_22  and  O_28
REMARK    5  A    between atoms: O_28  and  C_29
REMARK    6  A    between atoms: C_29  and  C_30
REMARK    7  A    between atoms: C_30  and  C_31
REMARK    8  A    between atoms: C_31  and  C_32
REMARK    9  A    between atoms: C_32  and  C_33
REMARK                            x       y       z     vdW  Elec       q    Type
REMARK                         _______ _______ _______ _____ _____    ______ ____
ROOT
ATOM      1  O   UNL     1      33.092 -11.290 -25.804  0.00  0.00    -0.270 OA
ATOM      2  N   UNL     1      34.606 -10.692 -24.108  0.00  0.00    -0.278 N 
ATOM      3  C   UNL     1      33.929 -11.577 -24.956  0.00  0.00    +0.250 C 
ATOM      4  H   UNL     1      35.249 -11.098 -23.484  0.00  0.00    +0.155 HD
ENDROOT
BRANCH   2   8
ATOM      5  O   UNL     1      33.181  -9.520 -22.079  0.00  0.00    -0.442 OA
ATOM      6  O   UNL     1      32.737  -5.484 -21.767  0.00  0.00    -0.286 OA
ATOM      7  C   UNL     1      33.755  -8.695 -23.012  0.00  0.00    +0.163 C 
ATOM      8  C   UNL     1      34.478  -9.302 -24.040  0.00  0.00    +0.086 C 
ATOM      9  C   UNL     1      33.643  -7.307 -22.966  0.00  0.00    +0.075 C 
ATOM     10  C   UNL     1      35.085  -8.515 -25.019  0.00  0.00    +0.018 C 
ATOM     11  C   UNL     1      34.250  -6.516 -23.944  0.00  0.00    +0.006 C 
ATOM     12  C   UNL     1      32.876  -6.695 -21.872  0.00  0.00    +0.202 C 
ATOM     13  C   UNL     1      34.971  -7.125 -24.971  0.00  0.00    +0.002 C 
ATOM     14  C   UNL     1      32.451  -8.951 -21.040  0.00  0.00    +0.213 C 
ATOM     15  C   UNL     1      32.278  -7.627 -20.895  0.00  0.00    +0.090 C 
BRANCH  14  20
ATOM     16  N   UNL     1      30.930 -10.809 -20.407  0.00  0.00    -0.107 NA
ATOM     17  N   UNL     1      32.388 -10.019 -18.864  0.00  0.00    -0.084 NA
ATOM     18  N   UNL     1      30.860 -11.429 -19.220  0.00  0.00    -0.140 N 
ATOM     19  N   UNL     1      31.705 -10.993 -18.276  0.00  0.00    -0.022 NA
ATOM     20  C   UNL     1      31.902  -9.934 -20.136  0.00  0.00    +0.109 C 
ATOM     21  H   UNL     1      30.224 -12.161 -19.052  0.00  0.00    +0.197 HD
ENDBRANCH  14  20
ENDBRANCH   2   8
BRANCH   3  23
ATOM     22  C   UNL     1      34.891 -15.709 -24.423  0.00  0.00    +0.139 C 
ATOM     23  C   UNL     1      34.263 -13.014 -24.771  0.00  0.00    +0.054 C 
ATOM     24  C   UNL     1      35.015 -14.821 -23.354  0.00  0.00    +0.037 C 
ATOM     25  C   UNL     1      34.454 -15.250 -25.665  0.00  0.00    +0.037 C 
ATOM     26  C   UNL     1      34.701 -13.473 -23.529  0.00  0.00    +0.008 C 
ATOM     27  C   UNL     1      34.140 -13.902 -25.840  0.00  0.00    +0.008 C 
BRANCH  22  28
ATOM     28  O   UNL     1      35.195 -17.025 -24.252  0.00  0.00    -0.475 OA
BRANCH  28  29
ATOM     29  C   UNL     1      34.499 -17.963 -25.071  0.00  0.00    +0.205 C 
BRANCH  29  30
ATOM     30  C   UNL     1      34.382 -19.281 -24.317  0.00  0.00    +0.048 C 
BRANCH  30  31
ATOM     31  C   UNL     1      35.536 -19.472 -23.335  0.00  0.00    +0.009 C 
BRANCH  31  32
ATOM     32  C   UNL     1      35.156 -18.990 -21.933  0.00  0.00    +0.026 C 
BRANCH  32  33
ATOM     33  C   UNL     1      34.934 -20.145 -20.989  0.00  0.00    -0.022 C 
ATOM     34  C   UNL     1      36.026 -20.810 -20.433  0.00  0.00    -0.004 C 
ATOM     35  C   UNL     1      33.638 -20.548 -20.672  0.00  0.00    -0.004 C 
ATOM     36  C   UNL     1      35.823 -21.879 -19.560  0.00  0.00    -0.000 C 
ATOM     37  C   UNL     1      33.432 -21.617 -19.799  0.00  0.00    -0.000 C 
ATOM     38  C   UNL     1      34.525 -22.282 -19.243  0.00  0.00    -0.000 C 
ENDBRANCH  32  33
ENDBRANCH  31  32
ENDBRANCH  30  31
ENDBRANCH  29  30
ENDBRANCH  28  29
ENDBRANCH  22  28
ENDBRANCH   3  23
TORSDOF 9
ENDMDL
