MODEL 1
REMARK VINA RESULT:     -12.1      0.000      0.000
REMARK  Name = 24808489
REMARK  4 active torsions:
REMARK  status: ('A' for Active; 'I' for Inactive)
REMARK    1  A    between atoms: N_1  and  C_10
REMARK    2  A    between atoms: N_1  and  C_21
REMARK    3  A    between atoms: C_18  and  C_24
REMARK    4  A    between atoms: C_24  and  N_25
REMARK                            x       y       z     vdW  Elec       q    Type
REMARK                         _______ _______ _______ _____ _____    ______ ____
ROOT
ATOM      1  N   UNL     1      34.578 -22.695 -19.073  0.00  0.00    -0.311 N 
ATOM      2  H   UNL     1      35.157 -23.490 -19.105  0.00  0.00    +0.152 HD
ENDROOT
BRANCH   1  10
ATOM      3 BR   UNL     1      28.032 -22.764 -16.814  0.00  0.00    -0.049 Br
ATOM      4  O   UNL     1      35.793 -23.380 -16.951  0.00  0.00    -0.270 OA
ATOM      5  O   UNL     1      33.545 -24.254 -13.047  0.00  0.00    -0.270 OA
ATOM      6  N   UNL     1      34.631 -23.808 -15.021  0.00  0.00    -0.248 N 
ATOM      7  C   UNL     1      33.403 -23.160 -17.010  0.00  0.00    +0.068 C 
ATOM      8  C   UNL     1      32.146 -23.266 -16.238  0.00  0.00    +0.010 C 
ATOM      9  C   UNL     1      32.201 -23.640 -14.885  0.00  0.00    +0.054 C 
ATOM     10  C   UNL     1      33.471 -22.811 -18.307  0.00  0.00    +0.066 C 
ATOM     11  C   UNL     1      34.719 -23.450 -16.359  0.00  0.00    +0.253 C 
ATOM     12  C   UNL     1      30.880 -23.008 -16.793  0.00  0.00    +0.007 C 
ATOM     13  C   UNL     1      33.496 -23.929 -14.229  0.00  0.00    +0.252 C 
ATOM     14  C   UNL     1      31.029 -23.752 -14.118  0.00  0.00    +0.005 C 
ATOM     15  C   UNL     1      29.714 -23.120 -16.028  0.00  0.00    +0.035 C 
ATOM     16  C   UNL     1      29.789 -23.491 -14.692  0.00  0.00    +0.007 C 
ATOM     17  H   UNL     1      35.487 -24.004 -14.575  0.00  0.00    +0.158 HD
ENDBRANCH   1  10
BRANCH   1  21
ATOM     18  C   UNL     1      35.886 -19.405 -21.328  0.00  0.00    -0.043 C 
ATOM     19  C   UNL     1      36.811 -20.197 -20.648  0.00  0.00    -0.005 C 
ATOM     20  C   UNL     1      34.526 -19.706 -21.258  0.00  0.00    -0.005 C 
ATOM     21  C   UNL     1      35.017 -21.591 -19.829  0.00  0.00    +0.048 C 
ATOM     22  C   UNL     1      36.376 -21.290 -19.898  0.00  0.00    +0.014 C 
ATOM     23  C   UNL     1      34.091 -20.799 -20.509  0.00  0.00    +0.014 C 
BRANCH  18  24
ATOM     24  C   UNL     1      36.351 -18.236 -22.128  0.00  0.00    -0.050 C 
BRANCH  24  25
ATOM     25  N   UNL     1      35.340 -17.766 -23.064  0.00  0.00    +0.390 N 
ATOM     26  C   UNL     1      35.474 -16.340 -23.362  0.00  0.00    -0.077 C 
ATOM     27  C   UNL     1      35.426 -18.435 -24.361  0.00  0.00    -0.077 C 
ATOM     28  C   UNL     1      34.612 -16.168 -24.604  0.00  0.00    -0.025 C 
ATOM     29  C   UNL     1      34.578 -17.546 -25.259  0.00  0.00    -0.025 C 
ATOM     30  H   UNL     1      34.457 -17.969 -22.595  0.00  0.00    -0.079 HD
ENDBRANCH  24  25
ENDBRANCH  18  24
ENDBRANCH   1  21
TORSDOF 4
ENDMDL
MODEL 2
REMARK VINA RESULT:     -12.1      0.755      1.465
REMARK  Name = 24808489
REMARK  4 active torsions:
REMARK  status: ('A' for Active; 'I' for Inactive)
REMARK    1  A    between atoms: N_1  and  C_10
REMARK    2  A    between atoms: N_1  and  C_21
REMARK    3  A    between atoms: C_18  and  C_24
REMARK    4  A    between atoms: C_24  and  N_25
REMARK                            x       y       z     vdW  Elec       q    Type
REMARK                         _______ _______ _______ _____ _____    ______ ____
ROOT
ATOM      1  N   UNL     1      34.858 -22.441 -18.990  0.00  0.00    -0.311 N 
ATOM      2  H   UNL     1      35.566 -23.108 -18.846  0.00  0.00    +0.152 HD
ENDROOT
BRANCH   1  10
ATOM      3 BR   UNL     1      28.213 -22.852 -17.080  0.00  0.00    -0.049 Br
ATOM      4  O   UNL     1      35.987 -23.241 -16.861  0.00  0.00    -0.270 OA
ATOM      5  O   UNL     1      33.578 -24.454 -13.148  0.00  0.00    -0.270 OA
ATOM      6  N   UNL     1      34.746 -23.838 -15.028  0.00  0.00    -0.248 N 
ATOM      7  C   UNL     1      33.597 -23.084 -17.028  0.00  0.00    +0.068 C 
ATOM      8  C   UNL     1      32.308 -23.280 -16.330  0.00  0.00    +0.010 C 
ATOM      9  C   UNL     1      32.308 -23.748 -15.005  0.00  0.00    +0.054 C 
ATOM     10  C   UNL     1      33.718 -22.642 -18.292  0.00  0.00    +0.066 C 
ATOM     11  C   UNL     1      34.888 -23.383 -16.331  0.00  0.00    +0.253 C 
ATOM     12  C   UNL     1      31.063 -23.018 -16.930  0.00  0.00    +0.007 C 
ATOM     13  C   UNL     1      33.577 -24.046 -14.305  0.00  0.00    +0.252 C 
ATOM     14  C   UNL     1      31.104 -23.946 -14.309  0.00  0.00    +0.005 C 
ATOM     15  C   UNL     1      29.865 -23.216 -16.236  0.00  0.00    +0.035 C 
ATOM     16  C   UNL     1      29.886 -23.680 -14.927  0.00  0.00    +0.007 C 
ATOM     17  H   UNL     1      35.584 -24.041 -14.553  0.00  0.00    +0.158 HD
ENDBRANCH   1  10
BRANCH   1  21
ATOM     18  C   UNL     1      35.782 -19.354 -21.680  0.00  0.00    -0.043 C 
ATOM     19  C   UNL     1      34.464 -19.788 -21.542  0.00  0.00    -0.005 C 
ATOM     20  C   UNL     1      36.794 -19.947 -20.925  0.00  0.00    -0.005 C 
ATOM     21  C   UNL     1      35.168 -21.406 -19.893  0.00  0.00    +0.048 C 
ATOM     22  C   UNL     1      34.157 -20.814 -20.648  0.00  0.00    +0.014 C 
ATOM     23  C   UNL     1      36.487 -20.973 -20.031  0.00  0.00    +0.014 C 
BRANCH  18  24
ATOM     24  C   UNL     1      36.110 -18.258 -22.636  0.00  0.00    -0.050 C 
BRANCH  24  25
ATOM     25  N   UNL     1      35.183 -17.141 -22.539  0.00  0.00    +0.390 N 
ATOM     26  C   UNL     1      35.317 -16.411 -21.278  0.00  0.00    -0.077 C 
ATOM     27  C   UNL     1      35.403 -16.140 -23.582  0.00  0.00    -0.077 C 
ATOM     28  C   UNL     1      34.572 -15.113 -21.554  0.00  0.00    -0.025 C 
ATOM     29  C   UNL     1      34.626 -14.937 -23.068  0.00  0.00    -0.025 C 
ATOM     30  H   UNL     1      34.263 -17.575 -22.624  0.00  0.00    -0.079 HD
ENDBRANCH  24  25
ENDBRANCH  18  24
ENDBRANCH   1  21
TORSDOF 4
ENDMDL
MODEL 3
REMARK VINA RESULT:     -11.7      2.577      3.463
REMARK  Name = 24808489
REMARK  4 active torsions:
REMARK  status: ('A' for Active; 'I' for Inactive)
REMARK    1  A    between atoms: N_1  and  C_10
REMARK    2  A    between atoms: N_1  and  C_21
REMARK    3  A    between atoms: C_18  and  C_24
REMARK    4  A    between atoms: C_24  and  N_25
REMARK                            x       y       z     vdW  Elec       q    Type
REMARK                         _______ _______ _______ _____ _____    ______ ____
ROOT
ATOM      1  N   UNL     1      33.946 -22.727 -18.734  0.00  0.00    -0.311 N 
ATOM      2  H   UNL     1      33.122 -23.168 -19.041  0.00  0.00    +0.152 HD
ENDROOT
BRANCH   1  10
ATOM      3 BR   UNL     1      38.082 -24.940 -13.638  0.00  0.00    -0.049 Br
ATOM      4  O   UNL     1      31.725 -22.649 -17.507  0.00  0.00    -0.270 OA
ATOM      5  O   UNL     1      31.354 -23.825 -13.087  0.00  0.00    -0.270 OA
ATOM      6  N   UNL     1      31.584 -23.245 -15.298  0.00  0.00    -0.248 N 
ATOM      7  C   UNL     1      33.740 -23.343 -16.404  0.00  0.00    +0.068 C 
ATOM      8  C   UNL     1      34.341 -23.812 -15.136  0.00  0.00    +0.010 C 
ATOM      9  C   UNL     1      33.521 -23.975 -14.007  0.00  0.00    +0.054 C 
ATOM     10  C   UNL     1      34.426 -23.152 -17.545  0.00  0.00    +0.066 C 
ATOM     11  C   UNL     1      32.276 -23.042 -16.483  0.00  0.00    +0.253 C 
ATOM     12  C   UNL     1      35.708 -24.110 -14.998  0.00  0.00    +0.007 C 
ATOM     13  C   UNL     1      32.071 -23.682 -14.072  0.00  0.00    +0.252 C 
ATOM     14  C   UNL     1      34.053 -24.418 -12.785  0.00  0.00    +0.005 C 
ATOM     15  C   UNL     1      36.237 -24.551 -13.781  0.00  0.00    +0.035 C 
ATOM     16  C   UNL     1      35.410 -24.706 -12.676  0.00  0.00    +0.007 C 
ATOM     17  H   UNL     1      30.618 -23.051 -15.329  0.00  0.00    +0.158 HD
ENDBRANCH   1  10
BRANCH   1  21
ATOM     18  C   UNL     1      35.494 -19.781 -21.293  0.00  0.00    -0.043 C 
ATOM     19  C   UNL     1      34.114 -19.925 -21.149  0.00  0.00    -0.005 C 
ATOM     20  C   UNL     1      36.360 -20.616 -20.587  0.00  0.00    -0.005 C 
ATOM     21  C   UNL     1      34.466 -21.739 -19.593  0.00  0.00    +0.048 C 
ATOM     22  C   UNL     1      33.600 -20.905 -20.299  0.00  0.00    +0.014 C 
ATOM     23  C   UNL     1      35.846 -21.595 -19.737  0.00  0.00    +0.014 C 
BRANCH  18  24
ATOM     24  C   UNL     1      36.043 -18.735 -22.202  0.00  0.00    -0.050 C 
BRANCH  24  25
ATOM     25  N   UNL     1      35.092 -18.338 -23.230  0.00  0.00    +0.390 N 
ATOM     26  C   UNL     1      35.488 -17.105 -23.910  0.00  0.00    -0.077 C 
ATOM     27  C   UNL     1      34.968 -19.335 -24.292  0.00  0.00    -0.077 C 
ATOM     28  C   UNL     1      34.605 -17.101 -25.150  0.00  0.00    -0.025 C 
ATOM     29  C   UNL     1      34.262 -18.566 -25.399  0.00  0.00    -0.025 C 
ATOM     30  H   UNL     1      34.215 -18.220 -22.721  0.00  0.00    -0.079 HD
ENDBRANCH  24  25
ENDBRANCH  18  24
ENDBRANCH   1  21
TORSDOF 4
ENDMDL
MODEL 4
REMARK VINA RESULT:     -11.4      4.043      9.810
REMARK  Name = 24808489
REMARK  4 active torsions:
REMARK  status: ('A' for Active; 'I' for Inactive)
REMARK    1  A    between atoms: N_1  and  C_10
REMARK    2  A    between atoms: N_1  and  C_21
REMARK    3  A    between atoms: C_18  and  C_24
REMARK    4  A    between atoms: C_24  and  N_25
REMARK                            x       y       z     vdW  Elec       q    Type
REMARK                         _______ _______ _______ _____ _____    ______ ____
ROOT
ATOM      1  N   UNL     1      36.036 -18.671 -21.548  0.00  0.00    -0.311 N 
ATOM      2  H   UNL     1      36.945 -18.769 -21.912  0.00  0.00    +0.152 HD
ENDROOT
BRANCH   1  10
ATOM      3 BR   UNL     1      33.044 -12.480 -20.719  0.00  0.00    -0.049 Br
ATOM      4  O   UNL     1      36.039 -18.833 -24.081  0.00  0.00    -0.270 OA
ATOM      5  O   UNL     1      34.327 -15.495 -26.725  0.00  0.00    -0.270 OA
ATOM      6  N   UNL     1      35.174 -17.142 -25.365  0.00  0.00    -0.248 N 
ATOM      7  C   UNL     1      35.138 -16.917 -22.950  0.00  0.00    +0.068 C 
ATOM      8  C   UNL     1      34.490 -15.597 -23.108  0.00  0.00    +0.010 C 
ATOM      9  C   UNL     1      34.215 -15.117 -24.400  0.00  0.00    +0.054 C 
ATOM     10  C   UNL     1      35.446 -17.476 -21.767  0.00  0.00    +0.066 C 
ATOM     11  C   UNL     1      35.499 -17.732 -24.153  0.00  0.00    +0.253 C 
ATOM     12  C   UNL     1      34.127 -14.785 -22.019  0.00  0.00    +0.007 C 
ATOM     13  C   UNL     1      34.567 -15.913 -25.596  0.00  0.00    +0.252 C 
ATOM     14  C   UNL     1      33.601 -13.868 -24.591  0.00  0.00    +0.005 C 
ATOM     15  C   UNL     1      33.516 -13.541 -22.211  0.00  0.00    +0.035 C 
ATOM     16  C   UNL     1      33.253 -13.084 -23.496  0.00  0.00    +0.007 C 
ATOM     17  H   UNL     1      35.405 -17.662 -26.169  0.00  0.00    +0.158 HD
ENDBRANCH   1  10
BRANCH   1  21
ATOM     18  C   UNL     1      34.516 -22.024 -19.529  0.00  0.00    -0.043 C 
ATOM     19  C   UNL     1      35.888 -21.768 -19.523  0.00  0.00    -0.005 C 
ATOM     20  C   UNL     1      33.650 -21.166 -20.207  0.00  0.00    -0.005 C 
ATOM     21  C   UNL     1      35.526 -19.796 -20.872  0.00  0.00    +0.048 C 
ATOM     22  C   UNL     1      36.392 -20.654 -20.194  0.00  0.00    +0.014 C 
ATOM     23  C   UNL     1      34.154 -20.052 -20.878  0.00  0.00    +0.014 C 
BRANCH  18  24
ATOM     24  C   UNL     1      33.977 -23.215 -18.812  0.00  0.00    -0.050 C 
BRANCH  24  25
ATOM     25  N   UNL     1      33.617 -22.917 -17.434  0.00  0.00    +0.390 N 
ATOM     26  C   UNL     1      32.190 -23.109 -17.176  0.00  0.00    -0.077 C 
ATOM     27  C   UNL     1      34.296 -23.790 -16.478  0.00  0.00    -0.077 C 
ATOM     28  C   UNL     1      32.117 -23.130 -15.657  0.00  0.00    -0.025 C 
ATOM     29  C   UNL     1      33.503 -23.575 -15.198  0.00  0.00    -0.025 C 
ATOM     30  H   UNL     1      33.891 -21.942 -17.313  0.00  0.00    -0.079 HD
ENDBRANCH  24  25
ENDBRANCH  18  24
ENDBRANCH   1  21
TORSDOF 4
ENDMDL
MODEL 5
REMARK VINA RESULT:     -10.7      3.583      5.047
REMARK  Name = 24808489
REMARK  4 active torsions:
REMARK  status: ('A' for Active; 'I' for Inactive)
REMARK    1  A    between atoms: N_1  and  C_10
REMARK    2  A    between atoms: N_1  and  C_21
REMARK    3  A    between atoms: C_18  and  C_24
REMARK    4  A    between atoms: C_24  and  N_25
REMARK                            x       y       z     vdW  Elec       q    Type
REMARK                         _______ _______ _______ _____ _____    ______ ____
ROOT
ATOM      1  N   UNL     1      34.204 -23.647 -16.912  0.00  0.00    -0.311 N 
ATOM      2  H   UNL     1      33.349 -23.993 -16.569  0.00  0.00    +0.152 HD
ENDROOT
BRANCH   1  10
ATOM      3 BR   UNL     1      40.643 -25.664 -15.353  0.00  0.00    -0.049 Br
ATOM      4  O   UNL     1      33.111 -23.828 -14.628  0.00  0.00    -0.270 OA
ATOM      5  O   UNL     1      35.446 -25.210 -10.927  0.00  0.00    -0.270 OA
ATOM      6  N   UNL     1      34.314 -24.523 -12.804  0.00  0.00    -0.248 N 
ATOM      7  C   UNL     1      35.426 -24.372 -14.955  0.00  0.00    +0.068 C 
ATOM      8  C   UNL     1      36.676 -24.834 -14.313  0.00  0.00    +0.010 C 
ATOM      9  C   UNL     1      36.676 -25.119 -12.937  0.00  0.00    +0.054 C 
ATOM     10  C   UNL     1      35.308 -24.072 -16.260  0.00  0.00    +0.066 C 
ATOM     11  C   UNL     1      34.176 -24.209 -14.148  0.00  0.00    +0.253 C 
ATOM     12  C   UNL     1      37.881 -25.007 -15.015  0.00  0.00    +0.007 C 
ATOM     13  C   UNL     1      35.447 -24.961 -12.128  0.00  0.00    +0.252 C 
ATOM     14  C   UNL     1      37.843 -25.559 -12.290  0.00  0.00    +0.005 C 
ATOM     15  C   UNL     1      39.042 -25.445 -14.371  0.00  0.00    +0.035 C 
ATOM     16  C   UNL     1      39.023 -25.721 -13.010  0.00  0.00    +0.007 C 
ATOM     17  H   UNL     1      33.502 -24.420 -12.256  0.00  0.00    +0.158 HD
ENDBRANCH   1  10
BRANCH   1  21
ATOM     18  C   UNL     1      33.927 -21.053 -20.201  0.00  0.00    -0.043 C 
ATOM     19  C   UNL     1      35.170 -21.547 -19.805  0.00  0.00    -0.005 C 
ATOM     20  C   UNL     1      32.776 -21.420 -19.504  0.00  0.00    -0.005 C 
ATOM     21  C   UNL     1      34.110 -22.776 -18.015  0.00  0.00    +0.048 C 
ATOM     22  C   UNL     1      35.261 -22.409 -18.712  0.00  0.00    +0.014 C 
ATOM     23  C   UNL     1      32.867 -22.282 -18.411  0.00  0.00    +0.014 C 
BRANCH  18  24
ATOM     24  C   UNL     1      33.829 -20.131 -21.369  0.00  0.00    -0.050 C 
BRANCH  24  25
ATOM     25  N   UNL     1      35.130 -19.825 -21.945  0.00  0.00    +0.390 N 
ATOM     26  C   UNL     1      35.061 -19.588 -23.386  0.00  0.00    -0.077 C 
ATOM     27  C   UNL     1      35.715 -18.607 -21.387  0.00  0.00    -0.077 C 
ATOM     28  C   UNL     1      36.397 -18.924 -23.687  0.00  0.00    -0.025 C 
ATOM     29  C   UNL     1      36.828 -18.282 -22.372  0.00  0.00    -0.025 C 
ATOM     30  H   UNL     1      35.696 -20.646 -21.727  0.00  0.00    -0.079 HD
ENDBRANCH  24  25
ENDBRANCH  18  24
ENDBRANCH   1  21
TORSDOF 4
ENDMDL
MODEL 6
REMARK VINA RESULT:     -10.0      7.575     12.219
REMARK  Name = 24808489
REMARK  4 active torsions:
REMARK  status: ('A' for Active; 'I' for Inactive)
REMARK    1  A    between atoms: N_1  and  C_10
REMARK    2  A    between atoms: N_1  and  C_21
REMARK    3  A    between atoms: C_18  and  C_24
REMARK    4  A    between atoms: C_24  and  N_25
REMARK                            x       y       z     vdW  Elec       q    Type
REMARK                         _______ _______ _______ _____ _____    ______ ____
ROOT
ATOM      1  N   UNL     1      32.642 -12.954 -23.341  0.00  0.00    -0.311 N 
ATOM      2  H   UNL     1      31.689 -13.191 -23.392  0.00  0.00    +0.152 HD
ENDROOT
BRANCH   1  10
ATOM      3 BR   UNL     1      34.737  -6.574 -25.036  0.00  0.00    -0.049 Br
ATOM      4  O   UNL     1      31.693 -12.515 -21.028  0.00  0.00    -0.270 OA
ATOM      5  O   UNL     1      31.729  -8.329 -19.147  0.00  0.00    -0.270 OA
ATOM      6  N   UNL     1      31.730 -10.408 -20.125  0.00  0.00    -0.248 N 
ATOM      7  C   UNL     1      32.654 -10.751 -22.342  0.00  0.00    +0.068 C 
ATOM      8  C   UNL     1      32.982  -9.310 -22.401  0.00  0.00    +0.010 C 
ATOM      9  C   UNL     1      32.664  -8.488 -21.307  0.00  0.00    +0.054 C 
ATOM     10  C   UNL     1      32.913 -11.630 -23.326  0.00  0.00    +0.066 C 
ATOM     11  C   UNL     1      31.989 -11.328 -21.131  0.00  0.00    +0.253 C 
ATOM     12  C   UNL     1      33.606  -8.709 -23.509  0.00  0.00    +0.007 C 
ATOM     13  C   UNL     1      32.007  -9.046 -20.104  0.00  0.00    +0.252 C 
ATOM     14  C   UNL     1      32.959  -7.115 -21.325  0.00  0.00    +0.005 C 
ATOM     15  C   UNL     1      33.899  -7.342 -23.525  0.00  0.00    +0.035 C 
ATOM     16  C   UNL     1      33.576  -6.546 -22.434  0.00  0.00    +0.007 C 
ATOM     17  H   UNL     1      31.292 -10.768 -19.320  0.00  0.00    +0.158 HD
ENDBRANCH   1  10
BRANCH   1  21
ATOM     18  C   UNL     1      35.315 -16.188 -23.197  0.00  0.00    -0.043 C 
ATOM     19  C   UNL     1      34.946 -15.534 -22.021  0.00  0.00    -0.005 C 
ATOM     20  C   UNL     1      34.795 -15.767 -24.421  0.00  0.00    -0.005 C 
ATOM     21  C   UNL     1      33.539 -14.039 -23.293  0.00  0.00    +0.048 C 
ATOM     22  C   UNL     1      34.059 -14.459 -22.069  0.00  0.00    +0.014 C 
ATOM     23  C   UNL     1      33.908 -14.692 -24.469  0.00  0.00    +0.014 C 
BRANCH  18  24
ATOM     24  C   UNL     1      36.264 -17.337 -23.145  0.00  0.00    -0.050 C 
BRANCH  24  25
ATOM     25  N   UNL     1      36.009 -18.217 -22.015  0.00  0.00    +0.390 N 
ATOM     26  C   UNL     1      35.078 -19.296 -22.347  0.00  0.00    -0.077 C 
ATOM     27  C   UNL     1      37.220 -18.891 -21.546  0.00  0.00    -0.077 C 
ATOM     28  C   UNL     1      35.265 -20.274 -21.196  0.00  0.00    -0.025 C 
ATOM     29  C   UNL     1      36.671 -20.005 -20.668  0.00  0.00    -0.025 C 
ATOM     30  H   UNL     1      35.624 -17.598 -21.301  0.00  0.00    -0.079 HD
ENDBRANCH  24  25
ENDBRANCH  18  24
ENDBRANCH   1  21
TORSDOF 4
ENDMDL
MODEL 7
REMARK VINA RESULT:     -10.0     11.762     16.979
REMARK  Name = 24808489
REMARK  4 active torsions:
REMARK  status: ('A' for Active; 'I' for Inactive)
REMARK    1  A    between atoms: N_1  and  C_10
REMARK    2  A    between atoms: N_1  and  C_21
REMARK    3  A    between atoms: C_18  and  C_24
REMARK    4  A    between atoms: C_24  and  N_25
REMARK                            x       y       z     vdW  Elec       q    Type
REMARK                         _______ _______ _______ _____ _____    ______ ____
ROOT
ATOM      1  N   UNL     1      32.301  -7.064 -21.640  0.00  0.00    -0.311 N 
ATOM      2  H   UNL     1      32.026  -6.523 -20.865  0.00  0.00    +0.152 HD
ENDROOT
BRANCH   1  10
ATOM      3 BR   UNL     1      35.806  -4.907 -27.211  0.00  0.00    -0.049 Br
ATOM      4  O   UNL     1      30.528  -5.252 -21.496  0.00  0.00    -0.270 OA
ATOM      5  O   UNL     1      30.355  -1.786 -24.499  0.00  0.00    -0.270 OA
ATOM      6  N   UNL     1      30.477  -3.538 -23.017  0.00  0.00    -0.248 N 
ATOM      7  C   UNL     1      32.199  -5.234 -23.219  0.00  0.00    +0.068 C 
ATOM      8  C   UNL     1      32.723  -4.525 -24.407  0.00  0.00    +0.010 C 
ATOM      9  C   UNL     1      32.089  -3.348 -24.839  0.00  0.00    +0.054 C 
ATOM     10  C   UNL     1      32.725  -6.365 -22.716  0.00  0.00    +0.066 C 
ATOM     11  C   UNL     1      31.006  -4.705 -22.486  0.00  0.00    +0.253 C 
ATOM     12  C   UNL     1      33.839  -4.971 -25.137  0.00  0.00    +0.007 C 
ATOM     13  C   UNL     1      30.909  -2.814 -24.123  0.00  0.00    +0.252 C 
ATOM     14  C   UNL     1      32.556  -2.646 -25.963  0.00  0.00    +0.005 C 
ATOM     15  C   UNL     1      34.302  -4.272 -26.256  0.00  0.00    +0.035 C 
ATOM     16  C   UNL     1      33.662  -3.111 -26.668  0.00  0.00    +0.007 C 
ATOM     17  H   UNL     1      29.690  -3.174 -22.550  0.00  0.00    +0.158 HD
ENDBRANCH   1  10
BRANCH   1  21
ATOM     18  C   UNL     1      32.001 -11.223 -21.158  0.00  0.00    -0.043 C 
ATOM     19  C   UNL     1      31.905 -10.659 -22.431  0.00  0.00    -0.005 C 
ATOM     20  C   UNL     1      32.196 -10.405 -20.046  0.00  0.00    -0.005 C 
ATOM     21  C   UNL     1      32.200  -8.459 -21.478  0.00  0.00    +0.048 C 
ATOM     22  C   UNL     1      32.005  -9.277 -22.590  0.00  0.00    +0.014 C 
ATOM     23  C   UNL     1      32.296  -9.023 -20.205  0.00  0.00    +0.014 C 
BRANCH  18  24
ATOM     24  C   UNL     1      31.894 -12.700 -20.988  0.00  0.00    -0.050 C 
BRANCH  24  25
ATOM     25  N   UNL     1      33.174 -13.373 -21.156  0.00  0.00    +0.390 N 
ATOM     26  C   UNL     1      33.277 -14.588 -20.349  0.00  0.00    -0.077 C 
ATOM     27  C   UNL     1      33.398 -13.811 -22.533  0.00  0.00    -0.077 C 
ATOM     28  C   UNL     1      34.473 -15.303 -20.959  0.00  0.00    -0.025 C 
ATOM     29  C   UNL     1      34.554 -14.791 -22.394  0.00  0.00    -0.025 C 
ATOM     30  H   UNL     1      33.860 -12.673 -20.869  0.00  0.00    -0.079 HD
ENDBRANCH  24  25
ENDBRANCH  18  24
ENDBRANCH   1  21
TORSDOF 4
ENDMDL
MODEL 8
REMARK VINA RESULT:      -9.5      9.663     15.049
REMARK  Name = 24808489
REMARK  4 active torsions:
REMARK  status: ('A' for Active; 'I' for Inactive)
REMARK    1  A    between atoms: N_1  and  C_10
REMARK    2  A    between atoms: N_1  and  C_21
REMARK    3  A    between atoms: C_18  and  C_24
REMARK    4  A    between atoms: C_24  and  N_25
REMARK                            x       y       z     vdW  Elec       q    Type
REMARK                         _______ _______ _______ _____ _____    ______ ____
ROOT
ATOM      1  N   UNL     1      33.681 -10.122 -23.298  0.00  0.00    -0.311 N 
ATOM      2  H   UNL     1      33.524 -10.130 -22.327  0.00  0.00    +0.152 HD
ENDROOT
BRANCH   1  10
ATOM      3 BR   UNL     1      35.897  -4.724 -27.029  0.00  0.00    -0.049 Br
ATOM      4  O   UNL     1      31.694  -9.068 -22.121  0.00  0.00    -0.270 OA
ATOM      5  O   UNL     1      30.520  -4.684 -22.798  0.00  0.00    -0.270 OA
ATOM      6  N   UNL     1      31.142  -6.873 -22.488  0.00  0.00    -0.248 N 
ATOM      7  C   UNL     1      33.052  -7.812 -23.650  0.00  0.00    +0.068 C 
ATOM      8  C   UNL     1      33.268  -6.502 -24.302  0.00  0.00    +0.010 C 
ATOM      9  C   UNL     1      32.400  -5.438 -24.006  0.00  0.00    +0.054 C 
ATOM     10  C   UNL     1      33.818  -8.899 -23.855  0.00  0.00    +0.066 C 
ATOM     11  C   UNL     1      31.921  -8.003 -22.689  0.00  0.00    +0.253 C 
ATOM     12  C   UNL     1      34.312  -6.260 -25.213  0.00  0.00    +0.007 C 
ATOM     13  C   UNL     1      31.279  -5.613 -23.057  0.00  0.00    +0.252 C 
ATOM     14  C   UNL     1      32.572  -4.178 -24.605  0.00  0.00    +0.005 C 
ATOM     15  C   UNL     1      34.481  -5.006 -25.808  0.00  0.00    +0.035 C 
ATOM     16  C   UNL     1      33.613  -3.966 -25.504  0.00  0.00    +0.007 C 
ATOM     17  H   UNL     1      30.391  -6.979 -21.859  0.00  0.00    +0.158 HD
ENDBRANCH   1  10
BRANCH   1  21
ATOM     18  C   UNL     1      33.835 -13.887 -25.149  0.00  0.00    -0.043 C 
ATOM     19  C   UNL     1      34.237 -12.748 -25.848  0.00  0.00    -0.005 C 
ATOM     20  C   UNL     1      33.382 -13.774 -23.835  0.00  0.00    -0.005 C 
ATOM     21  C   UNL     1      33.732 -11.385 -23.919  0.00  0.00    +0.048 C 
ATOM     22  C   UNL     1      34.185 -11.498 -25.233  0.00  0.00    +0.014 C 
ATOM     23  C   UNL     1      33.330 -12.523 -23.220  0.00  0.00    +0.014 C 
BRANCH  18  24
ATOM     24  C   UNL     1      33.890 -15.224 -25.807  0.00  0.00    -0.050 C 
BRANCH  24  25
ATOM     25  N   UNL     1      34.135 -16.300 -24.858  0.00  0.00    +0.390 N 
ATOM     26  C   UNL     1      34.156 -17.615 -25.498  0.00  0.00    -0.077 C 
ATOM     27  C   UNL     1      35.434 -16.177 -24.198  0.00  0.00    -0.077 C 
ATOM     28  C   UNL     1      34.796 -18.500 -24.439  0.00  0.00    -0.025 C 
ATOM     29  C   UNL     1      35.633 -17.555 -23.582  0.00  0.00    -0.025 C 
ATOM     30  H   UNL     1      33.366 -16.220 -24.192  0.00  0.00    -0.079 HD
ENDBRANCH  24  25
ENDBRANCH  18  24
ENDBRANCH   1  21
TORSDOF 4
ENDMDL
MODEL 9
REMARK VINA RESULT:      -9.5     11.237     16.687
REMARK  Name = 24808489
REMARK  4 active torsions:
REMARK  status: ('A' for Active; 'I' for Inactive)
REMARK    1  A    between atoms: N_1  and  C_10
REMARK    2  A    between atoms: N_1  and  C_21
REMARK    3  A    between atoms: C_18  and  C_24
REMARK    4  A    between atoms: C_24  and  N_25
REMARK                            x       y       z     vdW  Elec       q    Type
REMARK                         _______ _______ _______ _____ _____    ______ ____
ROOT
ATOM      1  N   UNL     1      32.907  -7.820 -22.617  0.00  0.00    -0.311 N 
ATOM      2  H   UNL     1      32.614  -7.438 -21.760  0.00  0.00    +0.152 HD
ENDROOT
BRANCH   1  10
ATOM      3 BR   UNL     1      36.337  -4.523 -27.650  0.00  0.00    -0.049 Br
ATOM      4  O   UNL     1      30.995  -6.194 -22.238  0.00  0.00    -0.270 OA
ATOM      5  O   UNL     1      30.607  -2.304 -24.642  0.00  0.00    -0.270 OA
ATOM      6  N   UNL     1      30.838  -4.261 -23.462  0.00  0.00    -0.248 N 
ATOM      7  C   UNL     1      32.692  -5.769 -23.881  0.00  0.00    +0.068 C 
ATOM      8  C   UNL     1      33.181  -4.837 -24.921  0.00  0.00    +0.010 C 
ATOM      9  C   UNL     1      32.465  -3.656 -25.176  0.00  0.00    +0.054 C 
ATOM     10  C   UNL     1      33.295  -6.925 -23.552  0.00  0.00    +0.066 C 
ATOM     11  C   UNL     1      31.447  -5.457 -23.110  0.00  0.00    +0.253 C 
ATOM     12  C   UNL     1      34.342  -5.073 -25.678  0.00  0.00    +0.007 C 
ATOM     13  C   UNL     1      31.233  -3.336 -24.421  0.00  0.00    +0.252 C 
ATOM     14  C   UNL     1      32.896  -2.747 -26.156  0.00  0.00    +0.005 C 
ATOM     15  C   UNL     1      34.771  -4.167 -26.653  0.00  0.00    +0.035 C 
ATOM     16  C   UNL     1      34.049  -3.005 -26.892  0.00  0.00    +0.007 C 
ATOM     17  H   UNL     1      30.016  -4.039 -22.966  0.00  0.00    +0.158 HD
ENDBRANCH   1  10
BRANCH   1  21
ATOM     18  C   UNL     1      32.781 -12.008 -22.880  0.00  0.00    -0.043 C 
ATOM     19  C   UNL     1      32.034 -11.347 -21.904  0.00  0.00    -0.005 C 
ATOM     20  C   UNL     1      33.570 -11.277 -23.767  0.00  0.00    -0.005 C 
ATOM     21  C   UNL     1      32.865  -9.225 -22.705  0.00  0.00    +0.048 C 
ATOM     22  C   UNL     1      32.076  -9.956 -21.817  0.00  0.00    +0.014 C 
ATOM     23  C   UNL     1      33.613  -9.886 -23.680  0.00  0.00    +0.014 C 
BRANCH  18  24
ATOM     24  C   UNL     1      32.736 -13.495 -22.972  0.00  0.00    -0.050 C 
BRANCH  24  25
ATOM     25  N   UNL     1      33.871 -14.041 -23.702  0.00  0.00    +0.390 N 
ATOM     26  C   UNL     1      34.587 -15.063 -22.939  0.00  0.00    -0.077 C 
ATOM     27  C   UNL     1      33.471 -14.703 -24.942  0.00  0.00    -0.077 C 
ATOM     28  C   UNL     1      35.442 -15.743 -23.997  0.00  0.00    -0.025 C 
ATOM     29  C   UNL     1      34.710 -15.504 -25.315  0.00  0.00    -0.025 C 
ATOM     30  H   UNL     1      34.461 -13.228 -23.884  0.00  0.00    -0.079 HD
ENDBRANCH  24  25
ENDBRANCH  18  24
ENDBRANCH   1  21
TORSDOF 4
ENDMDL
