MODEL 1
REMARK VINA RESULT:     -10.0      0.000      0.000
REMARK  Name = 56640146
REMARK  6 active torsions:
REMARK  status: ('A' for Active; 'I' for Inactive)
REMARK    1  A    between atoms: C_1  and  C_32
REMARK    2  A    between atoms: C_2  and  O_36
REMARK    3  A    between atoms: C_3  and  C_7
REMARK    4  A    between atoms: C_5  and  N_25
REMARK    5  A    between atoms: C_15  and  N_17
REMARK    6  A    between atoms: N_17  and  S_19
REMARK                            x       y       z     vdW  Elec       q    Type
REMARK                         _______ _______ _______ _____ _____    ______ ____
ROOT
ATOM      1  C   UNL     1      32.289 -11.273 -21.217  0.00  0.00    +0.012 C 
ATOM      2  C   UNL     1      32.305 -10.016 -21.821  0.00  0.00    +0.135 C 
ATOM      3  C   UNL     1      32.777  -9.875 -23.127  0.00  0.00    +0.035 C 
ATOM      4  C   UNL     1      32.746 -12.390 -21.917  0.00  0.00    +0.014 C 
ATOM      5  C   UNL     1      33.219 -12.249 -23.222  0.00  0.00    +0.059 C 
ATOM      6  C   UNL     1      33.234 -10.992 -23.826  0.00  0.00    +0.018 C 
ENDROOT
BRANCH   3   7
ATOM      7  C   UNL     1      32.802  -8.581 -23.773  0.00  0.00    +0.003 C 
ATOM      8  C   UNL     1      34.015  -8.033 -24.189  0.00  0.00    +0.000 C 
ATOM      9  C   UNL     1      34.055  -6.776 -24.817  0.00  0.00    +0.000 C 
ATOM     10  C   UNL     1      31.614  -7.884 -23.977  0.00  0.00    +0.000 C 
ATOM     11  C   UNL     1      32.848  -6.068 -25.025  0.00  0.00    +0.001 C 
ATOM     12  C   UNL     1      31.636  -6.636 -24.599  0.00  0.00    +0.000 C 
ATOM     13  C   UNL     1      35.267  -6.209 -25.243  0.00  0.00    +0.001 C 
ATOM     14  C   UNL     1      32.888  -4.812 -25.653  0.00  0.00    +0.016 C 
ATOM     15  C   UNL     1      34.101  -4.263 -26.069  0.00  0.00    +0.064 C 
ATOM     16  C   UNL     1      35.289  -4.960 -25.865  0.00  0.00    +0.016 C 
BRANCH  15  17
ATOM     17  N   UNL     1      34.125  -2.986 -26.705  0.00  0.00    -0.219 N 
ATOM     18  H   UNL     1      34.114  -2.156 -26.175  0.00  0.00    +0.173 HD
BRANCH  17  19
ATOM     19  S   UNL     1      34.174  -2.934 -28.427  0.00  0.00    +0.056 S 
ATOM     20  O   UNL     1      35.154  -1.943 -28.828  0.00  0.00    -0.154 OA
ATOM     21  O   UNL     1      34.208  -4.271 -28.985  0.00  0.00    -0.154 OA
ATOM     22  C   UNL     1      32.571  -2.242 -28.766  0.00  0.00    +0.200 C 
ENDBRANCH  17  19
ENDBRANCH  15  17
ENDBRANCH   3   7
BRANCH   5  25
ATOM     23  O   UNL     1      34.964 -14.277 -22.151  0.00  0.00    -0.251 OA
ATOM     24  O   UNL     1      34.988 -16.627 -26.090  0.00  0.00    -0.270 OA
ATOM     25  N   UNL     1      33.693 -13.410 -23.950  0.00  0.00    -0.220 N 
ATOM     26  N   UNL     1      35.010 -15.382 -24.141  0.00  0.00    -0.235 N 
ATOM     27  C   UNL     1      34.587 -14.322 -23.326  0.00  0.00    +0.318 C 
ATOM     28  C   UNL     1      33.265 -13.653 -25.251  0.00  0.00    +0.078 C 
ATOM     29  C   UNL     1      33.656 -14.690 -25.993  0.00  0.00    +0.075 C 
ATOM     30  C   UNL     1      34.608 -15.661 -25.434  0.00  0.00    +0.254 C 
ATOM     31  H   UNL     1      35.670 -15.998 -23.748  0.00  0.00    +0.159 HD
ENDBRANCH   5  25
BRANCH   1  32
ATOM     32  C   UNL     1      31.786 -11.444 -19.822  0.00  0.00    +0.022 C 
ATOM     33  C   UNL     1      31.961 -12.916 -19.336  0.00  0.00    +0.004 C 
ATOM     34  C   UNL     1      32.493 -10.561 -18.742  0.00  0.00    +0.004 C 
ATOM     35  C   UNL     1      30.270 -11.091 -19.720  0.00  0.00    +0.004 C 
ENDBRANCH   1  32
BRANCH   2  36
ATOM     36  O   UNL     1      31.855  -8.930 -21.127  0.00  0.00    -0.472 OA
ATOM     37  C   UNL     1      32.841  -8.021 -20.645  0.00  0.00    +0.252 C 
ENDBRANCH   2  36
TORSDOF 6
ENDMDL
MODEL 2
REMARK VINA RESULT:      -9.7     10.491     14.630
REMARK  Name = 56640146
REMARK  6 active torsions:
REMARK  status: ('A' for Active; 'I' for Inactive)
REMARK    1  A    between atoms: C_1  and  C_32
REMARK    2  A    between atoms: C_2  and  O_36
REMARK    3  A    between atoms: C_3  and  C_7
REMARK    4  A    between atoms: C_5  and  N_25
REMARK    5  A    between atoms: C_15  and  N_17
REMARK    6  A    between atoms: N_17  and  S_19
REMARK                            x       y       z     vdW  Elec       q    Type
REMARK                         _______ _______ _______ _____ _____    ______ ____
ROOT
ATOM      1  C   UNL     1      35.834 -23.787 -15.717  0.00  0.00    +0.012 C 
ATOM      2  C   UNL     1      35.922 -23.006 -16.868  0.00  0.00    +0.135 C 
ATOM      3  C   UNL     1      34.768 -22.683 -17.583  0.00  0.00    +0.035 C 
ATOM      4  C   UNL     1      34.592 -24.248 -15.279  0.00  0.00    +0.014 C 
ATOM      5  C   UNL     1      33.438 -23.927 -15.994  0.00  0.00    +0.059 C 
ATOM      6  C   UNL     1      33.526 -23.144 -17.145  0.00  0.00    +0.018 C 
ENDROOT
BRANCH   3   7
ATOM      7  C   UNL     1      34.836 -21.873 -18.780  0.00  0.00    +0.003 C 
ATOM      8  C   UNL     1      36.037 -21.267 -19.144  0.00  0.00    +0.000 C 
ATOM      9  C   UNL     1      36.119 -20.477 -20.303  0.00  0.00    +0.000 C 
ATOM     10  C   UNL     1      33.700 -21.700 -19.566  0.00  0.00    +0.000 C 
ATOM     11  C   UNL     1      34.965 -20.300 -21.102  0.00  0.00    +0.001 C 
ATOM     12  C   UNL     1      33.763 -20.919 -20.720  0.00  0.00    +0.000 C 
ATOM     13  C   UNL     1      37.321 -19.859 -20.685  0.00  0.00    +0.001 C 
ATOM     14  C   UNL     1      35.047 -19.511 -22.261  0.00  0.00    +0.016 C 
ATOM     15  C   UNL     1      36.249 -18.904 -22.625  0.00  0.00    +0.064 C 
ATOM     16  C   UNL     1      37.384 -19.078 -21.840  0.00  0.00    +0.016 C 
BRANCH  15  17
ATOM     17  N   UNL     1      36.315 -18.104 -23.806  0.00  0.00    -0.219 N 
ATOM     18  H   UNL     1      36.876 -18.373 -24.569  0.00  0.00    +0.173 HD
BRANCH  17  19
ATOM     19  S   UNL     1      35.386 -16.654 -23.858  0.00  0.00    +0.056 S 
ATOM     20  O   UNL     1      34.731 -16.482 -22.575  0.00  0.00    -0.154 OA
ATOM     21  O   UNL     1      36.148 -15.571 -24.448  0.00  0.00    -0.154 OA
ATOM     22  C   UNL     1      34.126 -17.131 -25.020  0.00  0.00    +0.200 C 
ENDBRANCH  17  19
ENDBRANCH  15  17
ENDBRANCH   3   7
BRANCH   5  25
ATOM     23  O   UNL     1      32.872 -24.899 -13.340  0.00  0.00    -0.251 OA
ATOM     24  O   UNL     1      28.483 -25.748 -14.365  0.00  0.00    -0.270 OA
ATOM     25  N   UNL     1      32.147 -24.405 -15.539  0.00  0.00    -0.220 N 
ATOM     26  N   UNL     1      30.718 -25.373 -13.902  0.00  0.00    -0.235 N 
ATOM     27  C   UNL     1      32.000 -24.900 -14.214  0.00  0.00    +0.318 C 
ATOM     28  C   UNL     1      31.040 -24.364 -16.381  0.00  0.00    +0.078 C 
ATOM     29  C   UNL     1      29.821 -24.788 -16.045  0.00  0.00    +0.075 C 
ATOM     30  C   UNL     1      29.593 -25.349 -14.705  0.00  0.00    +0.254 C 
ATOM     31  H   UNL     1      30.604 -25.768 -13.007  0.00  0.00    +0.159 HD
ENDBRANCH   5  25
BRANCH   1  32
ATOM     32  C   UNL     1      37.058 -24.143 -14.938  0.00  0.00    +0.022 C 
ATOM     33  C   UNL     1      36.945 -25.576 -14.334  0.00  0.00    +0.004 C 
ATOM     34  C   UNL     1      38.394 -24.135 -15.750  0.00  0.00    +0.004 C 
ATOM     35  C   UNL     1      37.283 -23.150 -13.756  0.00  0.00    +0.004 C 
ENDBRANCH   1  32
BRANCH   2  36
ATOM     36  O   UNL     1      37.142 -22.560 -17.288  0.00  0.00    -0.472 OA
ATOM     37  C   UNL     1      37.554 -21.278 -16.821  0.00  0.00    +0.252 C 
ENDBRANCH   2  36
TORSDOF 6
ENDMDL
MODEL 3
REMARK VINA RESULT:      -9.1     11.190     15.286
REMARK  Name = 56640146
REMARK  6 active torsions:
REMARK  status: ('A' for Active; 'I' for Inactive)
REMARK    1  A    between atoms: C_1  and  C_32
REMARK    2  A    between atoms: C_2  and  O_36
REMARK    3  A    between atoms: C_3  and  C_7
REMARK    4  A    between atoms: C_5  and  N_25
REMARK    5  A    between atoms: C_15  and  N_17
REMARK    6  A    between atoms: N_17  and  S_19
REMARK                            x       y       z     vdW  Elec       q    Type
REMARK                         _______ _______ _______ _____ _____    ______ ____
ROOT
ATOM      1  C   UNL     1      32.915 -24.300 -14.974  0.00  0.00    +0.012 C 
ATOM      2  C   UNL     1      32.853 -23.518 -16.127  0.00  0.00    +0.135 C 
ATOM      3  C   UNL     1      34.013 -23.262 -16.860  0.00  0.00    +0.035 C 
ATOM      4  C   UNL     1      34.136 -24.824 -14.551  0.00  0.00    +0.014 C 
ATOM      5  C   UNL     1      35.296 -24.567 -15.283  0.00  0.00    +0.059 C 
ATOM      6  C   UNL     1      35.234 -23.786 -16.437  0.00  0.00    +0.018 C 
ENDROOT
BRANCH   3   7
ATOM      7  C   UNL     1      33.971 -22.454 -18.060  0.00  0.00    +0.003 C 
ATOM      8  C   UNL     1      35.157 -22.049 -18.670  0.00  0.00    +0.000 C 
ATOM      9  C   UNL     1      35.132 -21.264 -19.834  0.00  0.00    +0.000 C 
ATOM     10  C   UNL     1      32.744 -22.082 -18.603  0.00  0.00    +0.000 C 
ATOM     11  C   UNL     1      33.886 -20.885 -20.387  0.00  0.00    +0.001 C 
ATOM     12  C   UNL     1      32.701 -21.303 -19.760  0.00  0.00    +0.000 C 
ATOM     13  C   UNL     1      36.318 -20.847 -20.462  0.00  0.00    +0.001 C 
ATOM     14  C   UNL     1      33.861 -20.101 -21.553  0.00  0.00    +0.016 C 
ATOM     15  C   UNL     1      35.049 -19.696 -22.162  0.00  0.00    +0.064 C 
ATOM     16  C   UNL     1      36.274 -20.068 -21.619  0.00  0.00    +0.016 C 
BRANCH  15  17
ATOM     17  N   UNL     1      35.006 -18.898 -23.345  0.00  0.00    -0.219 N 
ATOM     18  H   UNL     1      34.610 -19.246 -24.177  0.00  0.00    +0.173 HD
BRANCH  17  19
ATOM     19  S   UNL     1      35.666 -17.307 -23.278  0.00  0.00    +0.056 S 
ATOM     20  O   UNL     1      34.933 -16.548 -22.283  0.00  0.00    -0.154 OA
ATOM     21  O   UNL     1      37.114 -17.348 -23.254  0.00  0.00    -0.154 OA
ATOM     22  C   UNL     1      35.163 -16.692 -24.869  0.00  0.00    +0.200 C 
ENDBRANCH  17  19
ENDBRANCH  15  17
ENDBRANCH   3   7
BRANCH   5  25
ATOM     23  O   UNL     1      36.398 -27.091 -16.132  0.00  0.00    -0.251 OA
ATOM     24  O   UNL     1      40.140 -26.566 -13.534  0.00  0.00    -0.270 OA
ATOM     25  N   UNL     1      36.566 -25.112 -14.844  0.00  0.00    -0.220 N 
ATOM     26  N   UNL     1      38.209 -26.831 -14.778  0.00  0.00    -0.235 N 
ATOM     27  C   UNL     1      36.985 -26.390 -15.302  0.00  0.00    +0.318 C 
ATOM     28  C   UNL     1      37.393 -24.385 -13.992  0.00  0.00    +0.078 C 
ATOM     29  C   UNL     1      38.570 -24.814 -13.537  0.00  0.00    +0.075 C 
ATOM     30  C   UNL     1      39.060 -26.142 -13.935  0.00  0.00    +0.254 C 
ATOM     31  H   UNL     1      38.496 -27.736 -15.041  0.00  0.00    +0.159 HD
ENDBRANCH   5  25
BRANCH   1  32
ATOM     32  C   UNL     1      31.685 -24.587 -14.177  0.00  0.00    +0.022 C 
ATOM     33  C   UNL     1      30.974 -23.269 -13.744  0.00  0.00    +0.004 C 
ATOM     34  C   UNL     1      30.591 -25.430 -14.912  0.00  0.00    +0.004 C 
ATOM     35  C   UNL     1      32.026 -25.387 -12.882  0.00  0.00    +0.004 C 
ENDBRANCH   1  32
BRANCH   2  36
ATOM     36  O   UNL     1      31.652 -23.011 -16.533  0.00  0.00    -0.472 OA
ATOM     37  C   UNL     1      30.773 -23.902 -17.213  0.00  0.00    +0.252 C 
ENDBRANCH   2  36
TORSDOF 6
ENDMDL
MODEL 4
REMARK VINA RESULT:      -8.7     11.003     15.254
REMARK  Name = 56640146
REMARK  6 active torsions:
REMARK  status: ('A' for Active; 'I' for Inactive)
REMARK    1  A    between atoms: C_1  and  C_32
REMARK    2  A    between atoms: C_2  and  O_36
REMARK    3  A    between atoms: C_3  and  C_7
REMARK    4  A    between atoms: C_5  and  N_25
REMARK    5  A    between atoms: C_15  and  N_17
REMARK    6  A    between atoms: N_17  and  S_19
REMARK                            x       y       z     vdW  Elec       q    Type
REMARK                         _______ _______ _______ _____ _____    ______ ____
ROOT
ATOM      1  C   UNL     1      36.167 -23.935 -14.447  0.00  0.00    +0.012 C 
ATOM      2  C   UNL     1      36.558 -23.141 -15.525  0.00  0.00    +0.135 C 
ATOM      3  C   UNL     1      35.619 -22.742 -16.476  0.00  0.00    +0.035 C 
ATOM      4  C   UNL     1      34.836 -24.331 -14.320  0.00  0.00    +0.014 C 
ATOM      5  C   UNL     1      33.896 -23.934 -15.271  0.00  0.00    +0.059 C 
ATOM      6  C   UNL     1      34.288 -23.139 -16.349  0.00  0.00    +0.018 C 
ENDROOT
BRANCH   3   7
ATOM      7  C   UNL     1      36.003 -21.918 -17.601  0.00  0.00    +0.003 C 
ATOM      8  C   UNL     1      35.157 -21.804 -18.703  0.00  0.00    +0.000 C 
ATOM      9  C   UNL     1      35.517 -21.009 -19.804  0.00  0.00    +0.000 C 
ATOM     10  C   UNL     1      37.219 -21.241 -17.582  0.00  0.00    +0.000 C 
ATOM     11  C   UNL     1      36.753 -20.320 -19.785  0.00  0.00    +0.001 C 
ATOM     12  C   UNL     1      37.593 -20.446 -18.666  0.00  0.00    +0.000 C 
ATOM     13  C   UNL     1      34.677 -20.882 -20.923  0.00  0.00    +0.001 C 
ATOM     14  C   UNL     1      37.113 -19.524 -20.885  0.00  0.00    +0.016 C 
ATOM     15  C   UNL     1      36.266 -19.410 -21.988  0.00  0.00    +0.064 C 
ATOM     16  C   UNL     1      35.050 -20.087 -22.007  0.00  0.00    +0.016 C 
BRANCH  15  17
ATOM     17  N   UNL     1      36.647 -18.598 -23.098  0.00  0.00    -0.219 N 
ATOM     18  H   UNL     1      37.461 -18.797 -23.615  0.00  0.00    +0.173 HD
BRANCH  17  19
ATOM     19  S   UNL     1      35.643 -17.260 -23.511  0.00  0.00    +0.056 S 
ATOM     20  O   UNL     1      34.791 -16.959 -22.376  0.00  0.00    -0.154 OA
ATOM     21  O   UNL     1      36.412 -16.213 -24.153  0.00  0.00    -0.154 OA
ATOM     22  C   UNL     1      34.608 -18.014 -24.746  0.00  0.00    +0.200 C 
ENDBRANCH  17  19
ENDBRANCH  15  17
ENDBRANCH   3   7
BRANCH   5  25
ATOM     23  O   UNL     1      32.765 -25.226 -12.956  0.00  0.00    -0.251 OA
ATOM     24  O   UNL     1      28.607 -25.482 -14.875  0.00  0.00    -0.270 OA
ATOM     25  N   UNL     1      32.512 -24.345 -15.139  0.00  0.00    -0.220 N 
ATOM     26  N   UNL     1      30.732 -25.399 -13.964  0.00  0.00    -0.235 N 
ATOM     27  C   UNL     1      32.080 -25.013 -13.961  0.00  0.00    +0.318 C 
ATOM     28  C   UNL     1      31.593 -24.073 -16.147  0.00  0.00    +0.078 C 
ATOM     29  C   UNL     1      30.306 -24.421 -16.109  0.00  0.00    +0.075 C 
ATOM     30  C   UNL     1      29.787 -25.147 -14.941  0.00  0.00    +0.254 C 
ATOM     31  H   UNL     1      30.422 -25.910 -13.181  0.00  0.00    +0.159 HD
ENDBRANCH   5  25
BRANCH   1  32
ATOM     32  C   UNL     1      37.158 -24.371 -13.418  0.00  0.00    +0.022 C 
ATOM     33  C   UNL     1      36.468 -25.183 -12.280  0.00  0.00    +0.004 C 
ATOM     34  C   UNL     1      38.311 -25.287 -13.945  0.00  0.00    +0.004 C 
ATOM     35  C   UNL     1      37.865 -23.146 -12.761  0.00  0.00    +0.004 C 
ENDBRANCH   1  32
BRANCH   2  36
ATOM     36  O   UNL     1      37.864 -22.759 -15.640  0.00  0.00    -0.472 OA
ATOM     37  C   UNL     1      38.743 -23.661 -16.307  0.00  0.00    +0.252 C 
ENDBRANCH   2  36
TORSDOF 6
ENDMDL
MODEL 5
REMARK VINA RESULT:      -8.5     11.292     15.522
REMARK  Name = 56640146
REMARK  6 active torsions:
REMARK  status: ('A' for Active; 'I' for Inactive)
REMARK    1  A    between atoms: C_1  and  C_32
REMARK    2  A    between atoms: C_2  and  O_36
REMARK    3  A    between atoms: C_3  and  C_7
REMARK    4  A    between atoms: C_5  and  N_25
REMARK    5  A    between atoms: C_15  and  N_17
REMARK    6  A    between atoms: N_17  and  S_19
REMARK                            x       y       z     vdW  Elec       q    Type
REMARK                         _______ _______ _______ _____ _____    ______ ____
ROOT
ATOM      1  C   UNL     1      32.308 -24.317 -15.341  0.00  0.00    +0.012 C 
ATOM      2  C   UNL     1      32.644 -23.580 -16.476  0.00  0.00    +0.135 C 
ATOM      3  C   UNL     1      33.984 -23.355 -16.791  0.00  0.00    +0.035 C 
ATOM      4  C   UNL     1      33.311 -24.827 -14.517  0.00  0.00    +0.014 C 
ATOM      5  C   UNL     1      34.652 -24.601 -14.831  0.00  0.00    +0.059 C 
ATOM      6  C   UNL     1      34.988 -23.865 -15.967  0.00  0.00    +0.018 C 
ENDROOT
BRANCH   3   7
ATOM      7  C   UNL     1      34.355 -22.595 -17.964  0.00  0.00    +0.003 C 
ATOM      8  C   UNL     1      33.368 -22.029 -18.770  0.00  0.00    +0.000 C 
ATOM      9  C   UNL     1      33.713 -21.289 -19.913  0.00  0.00    +0.000 C 
ATOM     10  C   UNL     1      35.699 -22.429 -18.288  0.00  0.00    +0.000 C 
ATOM     11  C   UNL     1      35.079 -21.121 -20.242  0.00  0.00    +0.001 C 
ATOM     12  C   UNL     1      36.060 -21.697 -19.419  0.00  0.00    +0.000 C 
ATOM     13  C   UNL     1      32.731 -20.712 -20.736  0.00  0.00    +0.001 C 
ATOM     14  C   UNL     1      35.423 -20.380 -21.385  0.00  0.00    +0.016 C 
ATOM     15  C   UNL     1      34.435 -19.815 -22.191  0.00  0.00    +0.064 C 
ATOM     16  C   UNL     1      33.092 -19.980 -21.868  0.00  0.00    +0.016 C 
BRANCH  15  17
ATOM     17  N   UNL     1      34.802 -19.066 -23.350  0.00  0.00    -0.219 N 
ATOM     18  H   UNL     1      34.531 -19.360 -24.250  0.00  0.00    +0.173 HD
BRANCH  17  19
ATOM     19  S   UNL     1      35.733 -17.633 -23.131  0.00  0.00    +0.056 S 
ATOM     20  O   UNL     1      35.754 -16.904 -24.385  0.00  0.00    -0.154 OA
ATOM     21  O   UNL     1      35.374 -16.965 -21.897  0.00  0.00    -0.154 OA
ATOM     22  C   UNL     1      37.351 -18.340 -22.918  0.00  0.00    +0.200 C 
ENDBRANCH  17  19
ENDBRANCH  15  17
ENDBRANCH   3   7
BRANCH   5  25
ATOM     23  O   UNL     1      34.965 -24.001 -12.029  0.00  0.00    -0.251 OA
ATOM     24  O   UNL     1      38.681 -26.663 -11.663  0.00  0.00    -0.270 OA
ATOM     25  N   UNL     1      35.696 -25.132 -13.976  0.00  0.00    -0.220 N 
ATOM     26  N   UNL     1      36.846 -25.275 -11.899  0.00  0.00    -0.235 N 
ATOM     27  C   UNL     1      35.771 -24.729 -12.615  0.00  0.00    +0.318 C 
ATOM     28  C   UNL     1      36.615 -26.053 -14.469  0.00  0.00    +0.078 C 
ATOM     29  C   UNL     1      37.608 -26.584 -13.755  0.00  0.00    +0.075 C 
ATOM     30  C   UNL     1      37.778 -26.192 -12.348  0.00  0.00    +0.254 C 
ATOM     31  H   UNL     1      36.950 -24.971 -10.968  0.00  0.00    +0.159 HD
ENDBRANCH   5  25
BRANCH   1  32
ATOM     32  C   UNL     1      30.879 -24.569 -14.988  0.00  0.00    +0.022 C 
ATOM     33  C   UNL     1      30.106 -23.232 -14.772  0.00  0.00    +0.004 C 
ATOM     34  C   UNL     1      30.054 -25.360 -16.056  0.00  0.00    +0.004 C 
ATOM     35  C   UNL     1      30.760 -25.400 -13.673  0.00  0.00    +0.004 C 
ENDBRANCH   1  32
BRANCH   2  36
ATOM     36  O   UNL     1      31.653 -23.085 -17.275  0.00  0.00    -0.472 OA
ATOM     37  C   UNL     1      30.861 -22.029 -16.739  0.00  0.00    +0.252 C 
ENDBRANCH   2  36
TORSDOF 6
ENDMDL
MODEL 6
REMARK VINA RESULT:      -8.5     11.337     15.451
REMARK  Name = 56640146
REMARK  6 active torsions:
REMARK  status: ('A' for Active; 'I' for Inactive)
REMARK    1  A    between atoms: C_1  and  C_32
REMARK    2  A    between atoms: C_2  and  O_36
REMARK    3  A    between atoms: C_3  and  C_7
REMARK    4  A    between atoms: C_5  and  N_25
REMARK    5  A    between atoms: C_15  and  N_17
REMARK    6  A    between atoms: N_17  and  S_19
REMARK                            x       y       z     vdW  Elec       q    Type
REMARK                         _______ _______ _______ _____ _____    ______ ____
ROOT
ATOM      1  C   UNL     1      34.603 -23.956 -14.824  0.00  0.00    +0.012 C 
ATOM      2  C   UNL     1      34.567 -23.192 -15.990  0.00  0.00    +0.135 C 
ATOM      3  C   UNL     1      35.714 -23.060 -16.774  0.00  0.00    +0.035 C 
ATOM      4  C   UNL     1      35.786 -24.587 -14.439  0.00  0.00    +0.014 C 
ATOM      5  C   UNL     1      36.933 -24.454 -15.222  0.00  0.00    +0.059 C 
ATOM      6  C   UNL     1      36.897 -23.690 -16.389  0.00  0.00    +0.018 C 
ENDROOT
BRANCH   3   7
ATOM      7  C   UNL     1      35.698 -22.273 -17.988  0.00  0.00    +0.003 C 
ATOM      8  C   UNL     1      34.491 -22.016 -18.637  0.00  0.00    +0.000 C 
ATOM      9  C   UNL     1      34.461 -21.255 -19.818  0.00  0.00    +0.000 C 
ATOM     10  C   UNL     1      36.890 -21.772 -18.506  0.00  0.00    +0.000 C 
ATOM     11  C   UNL     1      35.671 -20.746 -20.344  0.00  0.00    +0.001 C 
ATOM     12  C   UNL     1      36.877 -21.014 -19.676  0.00  0.00    +0.000 C 
ATOM     13  C   UNL     1      33.254 -20.986 -20.485  0.00  0.00    +0.001 C 
ATOM     14  C   UNL     1      35.640 -19.984 -21.524  0.00  0.00    +0.016 C 
ATOM     15  C   UNL     1      34.433 -19.728 -22.174  0.00  0.00    +0.064 C 
ATOM     16  C   UNL     1      33.242 -20.228 -21.656  0.00  0.00    +0.016 C 
BRANCH  15  17
ATOM     17  N   UNL     1      34.419 -18.953 -23.373  0.00  0.00    -0.219 N 
ATOM     18  H   UNL     1      33.754 -19.124 -24.078  0.00  0.00    +0.173 HD
BRANCH  17  19
ATOM     19  S   UNL     1      35.597 -17.708 -23.550  0.00  0.00    +0.056 S 
ATOM     20  O   UNL     1      36.912 -18.290 -23.357  0.00  0.00    -0.154 OA
ATOM     21  O   UNL     1      35.317 -16.892 -24.714  0.00  0.00    -0.154 OA
ATOM     22  C   UNL     1      35.246 -16.735 -22.104  0.00  0.00    +0.200 C 
ENDBRANCH  17  19
ENDBRANCH  15  17
ENDBRANCH   3   7
BRANCH   5  25
ATOM     23  O   UNL     1      37.205 -26.241 -12.977  0.00  0.00    -0.251 OA
ATOM     24  O   UNL     1      41.675 -26.889 -13.771  0.00  0.00    -0.270 OA
ATOM     25  N   UNL     1      38.163 -25.110 -14.823  0.00  0.00    -0.220 N 
ATOM     26  N   UNL     1      39.436 -26.486 -13.358  0.00  0.00    -0.235 N 
ATOM     27  C   UNL     1      38.182 -25.939 -13.669  0.00  0.00    +0.318 C 
ATOM     28  C   UNL     1      39.325 -24.953 -15.572  0.00  0.00    +0.078 C 
ATOM     29  C   UNL     1      40.497 -25.513 -15.273  0.00  0.00    +0.075 C 
ATOM     30  C   UNL     1      40.611 -26.358 -14.074  0.00  0.00    +0.254 C 
ATOM     31  H   UNL     1      39.486 -27.022 -12.534  0.00  0.00    +0.159 HD
ENDBRANCH   5  25
BRANCH   1  32
ATOM     32  C   UNL     1      33.385 -24.111 -13.973  0.00  0.00    +0.022 C 
ATOM     33  C   UNL     1      33.768 -24.372 -12.484  0.00  0.00    +0.004 C 
ATOM     34  C   UNL     1      32.424 -22.878 -13.948  0.00  0.00    +0.004 C 
ATOM     35  C   UNL     1      32.511 -25.311 -14.452  0.00  0.00    +0.004 C 
ENDBRANCH   1  32
BRANCH   2  36
ATOM     36  O   UNL     1      33.403 -22.579 -16.358  0.00  0.00    -0.472 OA
ATOM     37  C   UNL     1      32.516 -23.327 -17.186  0.00  0.00    +0.252 C 
ENDBRANCH   2  36
TORSDOF 6
ENDMDL
