MODEL 1
REMARK VINA RESULT:     -12.5      0.000      0.000
REMARK  Name = 24767976
REMARK  5 active torsions:
REMARK  status: ('A' for Active; 'I' for Inactive)
REMARK    1  A    between atoms: C_1  and  N_9
REMARK    2  A    between atoms: C_2  and  O_19
REMARK    3  A    between atoms: C_10  and  C_14
REMARK    4  A    between atoms: O_19  and  C_27
REMARK    5  A    between atoms: C_31  and  C_33
REMARK                            x       y       z     vdW  Elec       q    Type
REMARK                         _______ _______ _______ _____ _____    ______ ____
ROOT
ATOM      1  C   UNL     1      35.665 -21.608 -19.173  0.00  0.00    +0.050 C 
ATOM      2  C   UNL     1      36.009 -19.955 -20.900  0.00  0.00    +0.148 C 
ATOM      3  C   UNL     1      34.313 -21.674 -19.504  0.00  0.00    -0.008 C 
ATOM      4  C   UNL     1      36.514 -20.748 -19.871  0.00  0.00    +0.052 C 
ATOM      5  C   UNL     1      33.807 -20.880 -20.534  0.00  0.00    +0.000 C 
ATOM      6  C   UNL     1      34.656 -20.020 -21.232  0.00  0.00    +0.037 C 
ATOM      7  C   UNL     1      33.381 -22.585 -18.773  0.00  0.00    +0.032 C 
ENDROOT
BRANCH   1   9
ATOM      8  O   UNL     1      37.564 -20.898 -16.963  0.00  0.00    -0.268 OA
ATOM      9  N   UNL     1      36.190 -22.395 -18.145  0.00  0.00    -0.279 N 
ATOM     10  C   UNL     1      37.078 -22.011 -17.134  0.00  0.00    +0.265 C 
ATOM     11  H   UNL     1      35.900 -23.337 -18.131  0.00  0.00    +0.155 HD
BRANCH  10  14
ATOM     12  N   UNL     1      36.652 -23.722 -15.313  0.00  0.00    -0.206 N 
ATOM     13  N   UNL     1      37.262 -24.665 -14.575  0.00  0.00    -0.182 NA
ATOM     14  C   UNL     1      37.480 -23.092 -16.195  0.00  0.00    +0.124 C 
ATOM     15  C   UNL     1      38.718 -23.661 -16.021  0.00  0.00    +0.037 C 
ATOM     16  C   UNL     1      38.523 -24.623 -15.011  0.00  0.00    +0.078 C 
ATOM     17  C   UNL     1      35.242 -23.473 -15.117  0.00  0.00    +0.140 C 
ATOM     18  C   UNL     1      39.528 -25.531 -14.432  0.00  0.00    +0.054 C 
ENDBRANCH  10  14
ENDBRANCH   1   9
BRANCH   2  19
ATOM     19  O   UNL     1      36.856 -19.096 -21.598  0.00  0.00    -0.435 OA
BRANCH  19  27
ATOM     20  N   UNL     1      34.235 -14.768 -23.287  0.00  0.00    -0.373 NA
ATOM     21  N   UNL     1      34.909 -16.203 -21.718  0.00  0.00    -0.173 N 
ATOM     22  N   UNL     1      35.522 -17.269 -21.132  0.00  0.00    -0.138 NA
ATOM     23  C   UNL     1      33.743 -14.394 -22.062  0.00  0.00    +0.187 C 
ATOM     24  C   UNL     1      34.144 -15.264 -21.078  0.00  0.00    +0.193 C 
ATOM     25  C   UNL     1      34.936 -15.861 -23.060  0.00  0.00    +0.204 C 
ATOM     26  C   UNL     1      35.675 -16.700 -23.926  0.00  0.00    +0.054 C 
ATOM     27  C   UNL     1      36.180 -17.994 -21.978  0.00  0.00    +0.245 C 
ATOM     28  C   UNL     1      36.309 -17.771 -23.434  0.00  0.00    +0.063 C 
ATOM     29  O   UNL     1      32.489 -13.261 -19.571  0.00  0.00    -0.275 OA
ATOM     30  N   UNL     1      32.952 -13.283 -21.886  0.00  0.00    -0.261 N 
ATOM     31  C   UNL     1      32.383 -12.787 -20.695  0.00  0.00    +0.227 C 
ATOM     32  H   UNL     1      32.757 -12.766 -22.699  0.00  0.00    +0.157 HD
BRANCH  31  33
ATOM     33  C   UNL     1      31.571 -11.541 -20.867  0.00  0.00    +0.077 C 
ATOM     34  C   UNL     1      32.129 -10.234 -20.385  0.00  0.00    +0.010 C 
ATOM     35  C   UNL     1      30.987 -10.878 -19.654  0.00  0.00    +0.010 C 
ENDBRANCH  31  33
ENDBRANCH  19  27
ENDBRANCH   2  19
TORSDOF 5
ENDMDL
MODEL 2
REMARK VINA RESULT:     -11.8      3.801     12.420
REMARK  Name = 24767976
REMARK  5 active torsions:
REMARK  status: ('A' for Active; 'I' for Inactive)
REMARK    1  A    between atoms: C_1  and  N_9
REMARK    2  A    between atoms: C_2  and  O_19
REMARK    3  A    between atoms: C_10  and  C_14
REMARK    4  A    between atoms: O_19  and  C_27
REMARK    5  A    between atoms: C_31  and  C_33
REMARK                            x       y       z     vdW  Elec       q    Type
REMARK                         _______ _______ _______ _____ _____    ______ ____
ROOT
ATOM      1  C   UNL     1      32.923 -10.867 -23.205  0.00  0.00    +0.050 C 
ATOM      2  C   UNL     1      33.926 -12.897 -24.046  0.00  0.00    +0.148 C 
ATOM      3  C   UNL     1      32.270 -11.599 -22.214  0.00  0.00    -0.008 C 
ATOM      4  C   UNL     1      33.751 -11.516 -24.121  0.00  0.00    +0.052 C 
ATOM      5  C   UNL     1      32.445 -12.982 -22.139  0.00  0.00    +0.000 C 
ATOM      6  C   UNL     1      33.274 -13.630 -23.056  0.00  0.00    +0.037 C 
ATOM      7  C   UNL     1      31.377 -10.931 -21.220  0.00  0.00    +0.032 C 
ENDROOT
BRANCH   1   9
ATOM      8  O   UNL     1      34.954  -8.701 -23.627  0.00  0.00    -0.268 OA
ATOM      9  N   UNL     1      32.761  -9.482 -23.296  0.00  0.00    -0.279 N 
ATOM     10  C   UNL     1      33.749  -8.511 -23.494  0.00  0.00    +0.265 C 
ATOM     11  H   UNL     1      31.838  -9.148 -23.208  0.00  0.00    +0.155 HD
BRANCH  10  14
ATOM     12  N   UNL     1      32.816  -6.405 -22.436  0.00  0.00    -0.206 N 
ATOM     13  N   UNL     1      32.433  -5.150 -22.724  0.00  0.00    -0.182 NA
ATOM     14  C   UNL     1      33.265  -7.105 -23.517  0.00  0.00    +0.124 C 
ATOM     15  C   UNL     1      33.169  -6.249 -24.587  0.00  0.00    +0.037 C 
ATOM     16  C   UNL     1      32.651  -5.060 -24.039  0.00  0.00    +0.078 C 
ATOM     17  C   UNL     1      32.722  -6.878 -21.074  0.00  0.00    +0.140 C 
ATOM     18  C   UNL     1      32.349  -3.804 -24.746  0.00  0.00    +0.054 C 
ENDBRANCH  10  14
ENDBRANCH   1   9
BRANCH   2  19
ATOM     19  O   UNL     1      34.753 -13.545 -24.960  0.00  0.00    -0.435 OA
BRANCH  19  27
ATOM     20  N   UNL     1      34.741 -18.811 -24.112  0.00  0.00    -0.373 NA
ATOM     21  N   UNL     1      35.232 -16.706 -23.563  0.00  0.00    -0.173 N 
ATOM     22  N   UNL     1      35.317 -15.348 -23.633  0.00  0.00    -0.138 NA
ATOM     23  C   UNL     1      35.403 -18.779 -22.911  0.00  0.00    +0.187 C 
ATOM     24  C   UNL     1      35.718 -17.491 -22.551  0.00  0.00    +0.193 C 
ATOM     25  C   UNL     1      34.647 -17.553 -24.490  0.00  0.00    +0.204 C 
ATOM     26  C   UNL     1      34.072 -16.956 -25.638  0.00  0.00    +0.054 C 
ATOM     27  C   UNL     1      34.773 -14.868 -24.704  0.00  0.00    +0.245 C 
ATOM     28  C   UNL     1      34.111 -15.627 -25.786  0.00  0.00    +0.063 C 
ATOM     29  O   UNL     1      36.818 -19.114 -20.276  0.00  0.00    -0.275 OA
ATOM     30  N   UNL     1      35.695 -19.914 -22.192  0.00  0.00    -0.261 N 
ATOM     31  C   UNL     1      36.364 -20.025 -20.955  0.00  0.00    +0.227 C 
ATOM     32  H   UNL     1      35.398 -20.761 -22.593  0.00  0.00    +0.157 HD
BRANCH  31  33
ATOM     33  C   UNL     1      36.510 -21.428 -20.453  0.00  0.00    +0.077 C 
ATOM     34  C   UNL     1      35.392 -22.038 -19.659  0.00  0.00    +0.010 C 
ATOM     35  C   UNL     1      36.675 -21.661 -18.980  0.00  0.00    +0.010 C 
ENDBRANCH  31  33
ENDBRANCH  19  27
ENDBRANCH   2  19
TORSDOF 5
ENDMDL
MODEL 3
REMARK VINA RESULT:     -11.4      2.151      2.432
REMARK  Name = 24767976
REMARK  5 active torsions:
REMARK  status: ('A' for Active; 'I' for Inactive)
REMARK    1  A    between atoms: C_1  and  N_9
REMARK    2  A    between atoms: C_2  and  O_19
REMARK    3  A    between atoms: C_10  and  C_14
REMARK    4  A    between atoms: O_19  and  C_27
REMARK    5  A    between atoms: C_31  and  C_33
REMARK                            x       y       z     vdW  Elec       q    Type
REMARK                         _______ _______ _______ _____ _____    ______ ____
ROOT
ATOM      1  C   UNL     1      35.133 -22.197 -18.359  0.00  0.00    +0.050 C 
ATOM      2  C   UNL     1      35.834 -20.783 -20.188  0.00  0.00    +0.148 C 
ATOM      3  C   UNL     1      33.811 -22.101 -18.791  0.00  0.00    -0.008 C 
ATOM      4  C   UNL     1      36.145 -21.538 -19.057  0.00  0.00    +0.052 C 
ATOM      5  C   UNL     1      33.500 -21.345 -19.922  0.00  0.00    +0.000 C 
ATOM      6  C   UNL     1      34.512 -20.686 -20.621  0.00  0.00    +0.037 C 
ATOM      7  C   UNL     1      32.706 -22.795 -18.063  0.00  0.00    +0.032 C 
ENDROOT
BRANCH   1   9
ATOM      8  O   UNL     1      37.296 -21.787 -16.323  0.00  0.00    -0.268 OA
ATOM      9  N   UNL     1      35.464 -22.949 -17.229  0.00  0.00    -0.279 N 
ATOM     10  C   UNL     1      36.490 -22.712 -16.308  0.00  0.00    +0.265 C 
ATOM     11  H   UNL     1      34.908 -23.745 -17.062  0.00  0.00    +0.155 HD
BRANCH  10  14
ATOM     12  N   UNL     1      35.588 -24.154 -14.428  0.00  0.00    -0.206 N 
ATOM     13  N   UNL     1      35.960 -25.065 -13.513  0.00  0.00    -0.182 NA
ATOM     14  C   UNL     1      36.611 -23.716 -15.217  0.00  0.00    +0.124 C 
ATOM     15  C   UNL     1      37.730 -24.387 -14.789  0.00  0.00    +0.037 C 
ATOM     16  C   UNL     1      37.269 -25.204 -13.738  0.00  0.00    +0.078 C 
ATOM     17  C   UNL     1      34.205 -23.740 -14.491  0.00  0.00    +0.140 C 
ATOM     18  C   UNL     1      38.057 -26.139 -12.918  0.00  0.00    +0.054 C 
ENDBRANCH  10  14
ENDBRANCH   1   9
BRANCH   2  19
ATOM     19  O   UNL     1      36.845 -20.125 -20.885  0.00  0.00    -0.435 OA
BRANCH  19  27
ATOM     20  N   UNL     1      34.689 -16.925 -24.568  0.00  0.00    -0.373 NA
ATOM     21  N   UNL     1      35.584 -17.341 -22.568  0.00  0.00    -0.173 N 
ATOM     22  N   UNL     1      36.146 -18.021 -21.530  0.00  0.00    -0.138 NA
ATOM     23  C   UNL     1      34.747 -15.771 -23.828  0.00  0.00    +0.187 C 
ATOM     24  C   UNL     1      35.294 -16.002 -22.589  0.00  0.00    +0.193 C 
ATOM     25  C   UNL     1      35.198 -17.860 -23.792  0.00  0.00    +0.204 C 
ATOM     26  C   UNL     1      35.403 -19.245 -24.000  0.00  0.00    +0.054 C 
ATOM     27  C   UNL     1      36.305 -19.279 -21.785  0.00  0.00    +0.245 C 
ATOM     28  C   UNL     1      35.950 -19.989 -23.032  0.00  0.00    +0.063 C 
ATOM     29  O   UNL     1      34.705 -13.057 -22.527  0.00  0.00    -0.275 OA
ATOM     30  N   UNL     1      34.301 -14.560 -24.302  0.00  0.00    -0.261 N 
ATOM     31  C   UNL     1      34.301 -13.307 -23.655  0.00  0.00    +0.227 C 
ATOM     32  H   UNL     1      33.935 -14.568 -25.214  0.00  0.00    +0.157 HD
BRANCH  31  33
ATOM     33  C   UNL     1      33.739 -12.186 -24.472  0.00  0.00    +0.077 C 
ATOM     34  C   UNL     1      34.528 -11.667 -25.638  0.00  0.00    +0.010 C 
ATOM     35  C   UNL     1      34.385 -10.834 -24.398  0.00  0.00    +0.010 C 
ENDBRANCH  31  33
ENDBRANCH  19  27
ENDBRANCH   2  19
TORSDOF 5
ENDMDL
MODEL 4
REMARK VINA RESULT:     -11.2      2.980     10.884
REMARK  Name = 24767976
REMARK  5 active torsions:
REMARK  status: ('A' for Active; 'I' for Inactive)
REMARK    1  A    between atoms: C_1  and  N_9
REMARK    2  A    between atoms: C_2  and  O_19
REMARK    3  A    between atoms: C_10  and  C_14
REMARK    4  A    between atoms: O_19  and  C_27
REMARK    5  A    between atoms: C_31  and  C_33
REMARK                            x       y       z     vdW  Elec       q    Type
REMARK                         _______ _______ _______ _____ _____    ______ ____
ROOT
ATOM      1  C   UNL     1      35.147 -19.363 -21.607  0.00  0.00    +0.050 C 
ATOM      2  C   UNL     1      34.342 -21.244 -20.323  0.00  0.00    +0.148 C 
ATOM      3  C   UNL     1      36.452 -19.647 -21.207  0.00  0.00    -0.008 C 
ATOM      4  C   UNL     1      34.091 -20.161 -21.165  0.00  0.00    +0.052 C 
ATOM      5  C   UNL     1      36.702 -20.730 -20.363  0.00  0.00    +0.000 C 
ATOM      6  C   UNL     1      35.647 -21.528 -19.921  0.00  0.00    +0.037 C 
ATOM      7  C   UNL     1      37.601 -18.808 -21.664  0.00  0.00    +0.032 C 
ENDROOT
BRANCH   1   9
ATOM      8  O   UNL     1      35.256 -19.167 -24.597  0.00  0.00    -0.268 OA
ATOM      9  N   UNL     1      34.876 -18.284 -22.452  0.00  0.00    -0.279 N 
ATOM     10  C   UNL     1      34.943 -18.246 -23.850  0.00  0.00    +0.265 C 
ATOM     11  H   UNL     1      34.605 -17.446 -22.010  0.00  0.00    +0.155 HD
BRANCH  10  14
ATOM     12  N   UNL     1      34.671 -15.726 -23.833  0.00  0.00    -0.206 N 
ATOM     13  N   UNL     1      34.331 -14.687 -24.615  0.00  0.00    -0.182 NA
ATOM     14  C   UNL     1      34.621 -16.933 -24.467  0.00  0.00    +0.124 C 
ATOM     15  C   UNL     1      34.220 -16.665 -25.753  0.00  0.00    +0.037 C 
ATOM     16  C   UNL     1      34.057 -15.266 -25.787  0.00  0.00    +0.078 C 
ATOM     17  C   UNL     1      35.041 -15.484 -22.458  0.00  0.00    +0.140 C 
ATOM     18  C   UNL     1      33.637 -14.440 -26.930  0.00  0.00    +0.054 C 
ENDBRANCH  10  14
ENDBRANCH   1   9
BRANCH   2  19
ATOM     19  O   UNL     1      33.289 -22.041 -19.881  0.00  0.00    -0.435 OA
BRANCH  19  27
ATOM     20  N   UNL     1      34.063 -23.739 -14.884  0.00  0.00    -0.373 NA
ATOM     21  N   UNL     1      34.764 -23.114 -16.907  0.00  0.00    -0.173 N 
ATOM     22  N   UNL     1      34.735 -22.685 -18.199  0.00  0.00    -0.138 NA
ATOM     23  C   UNL     1      35.432 -23.802 -14.949  0.00  0.00    +0.187 C 
ATOM     24  C   UNL     1      35.889 -23.422 -16.187  0.00  0.00    +0.193 C 
ATOM     25  C   UNL     1      33.678 -23.322 -16.073  0.00  0.00    +0.204 C 
ATOM     26  C   UNL     1      32.394 -23.067 -16.609  0.00  0.00    +0.054 C 
ATOM     27  C   UNL     1      33.533 -22.470 -18.626  0.00  0.00    +0.245 C 
ATOM     28  C   UNL     1      32.273 -22.642 -17.872  0.00  0.00    +0.063 C 
ATOM     29  O   UNL     1      38.420 -24.066 -14.705  0.00  0.00    -0.275 OA
ATOM     30  N   UNL     1      36.210 -24.201 -13.888  0.00  0.00    -0.261 N 
ATOM     31  C   UNL     1      37.614 -24.311 -13.817  0.00  0.00    +0.227 C 
ATOM     32  H   UNL     1      35.722 -24.441 -13.069  0.00  0.00    +0.157 HD
BRANCH  31  33
ATOM     33  C   UNL     1      38.134 -24.778 -12.493  0.00  0.00    +0.077 C 
ATOM     34  C   UNL     1      37.846 -26.183 -12.051  0.00  0.00    +0.010 C 
ATOM     35  C   UNL     1      37.164 -25.029 -11.376  0.00  0.00    +0.010 C 
ENDBRANCH  31  33
ENDBRANCH  19  27
ENDBRANCH   2  19
TORSDOF 5
ENDMDL
MODEL 5
REMARK VINA RESULT:     -10.4      1.883     10.453
REMARK  Name = 24767976
REMARK  5 active torsions:
REMARK  status: ('A' for Active; 'I' for Inactive)
REMARK    1  A    between atoms: C_1  and  N_9
REMARK    2  A    between atoms: C_2  and  O_19
REMARK    3  A    between atoms: C_10  and  C_14
REMARK    4  A    between atoms: O_19  and  C_27
REMARK    5  A    between atoms: C_31  and  C_33
REMARK                            x       y       z     vdW  Elec       q    Type
REMARK                         _______ _______ _______ _____ _____    ______ ____
ROOT
ATOM      1  C   UNL     1      35.294 -17.128 -23.361  0.00  0.00    +0.050 C 
ATOM      2  C   UNL     1      36.612 -18.827 -22.262  0.00  0.00    +0.148 C 
ATOM      3  C   UNL     1      34.963 -18.034 -24.367  0.00  0.00    -0.008 C 
ATOM      4  C   UNL     1      36.119 -17.524 -22.308  0.00  0.00    +0.052 C 
ATOM      5  C   UNL     1      35.457 -19.339 -24.321  0.00  0.00    +0.000 C 
ATOM      6  C   UNL     1      36.281 -19.735 -23.268  0.00  0.00    +0.037 C 
ATOM      7  C   UNL     1      34.082 -17.637 -25.507  0.00  0.00    +0.032 C 
ENDROOT
BRANCH   1   9
ATOM      8  O   UNL     1      34.744 -15.216 -21.117  0.00  0.00    -0.268 OA
ATOM      9  N   UNL     1      34.809 -15.818 -23.389  0.00  0.00    -0.279 N 
ATOM     10  C   UNL     1      34.569 -14.965 -22.305  0.00  0.00    +0.265 C 
ATOM     11  H   UNL     1      34.610 -15.450 -24.281  0.00  0.00    +0.155 HD
BRANCH  10  14
ATOM     12  N   UNL     1      32.991 -13.002 -22.016  0.00  0.00    -0.206 N 
ATOM     13  N   UNL     1      32.685 -11.799 -22.529  0.00  0.00    -0.182 NA
ATOM     14  C   UNL     1      34.020 -13.628 -22.656  0.00  0.00    +0.124 C 
ATOM     15  C   UNL     1      34.415 -12.775 -23.658  0.00  0.00    +0.037 C 
ATOM     16  C   UNL     1      33.558 -11.665 -23.531  0.00  0.00    +0.078 C 
ATOM     17  C   UNL     1      32.240 -13.502 -20.888  0.00  0.00    +0.140 C 
ATOM     18  C   UNL     1      33.543 -10.446 -24.356  0.00  0.00    +0.054 C 
ENDBRANCH  10  14
ENDBRANCH   1   9
BRANCH   2  19
ATOM     19  O   UNL     1      37.436 -19.224 -21.211  0.00  0.00    -0.435 OA
BRANCH  19  27
ATOM     20  N   UNL     1      34.683 -22.638 -18.173  0.00  0.00    -0.373 NA
ATOM     21  N   UNL     1      36.477 -21.406 -18.662  0.00  0.00    -0.173 N 
ATOM     22  N   UNL     1      37.303 -20.548 -19.323  0.00  0.00    -0.138 NA
ATOM     23  C   UNL     1      35.643 -22.797 -17.206  0.00  0.00    +0.187 C 
ATOM     24  C   UNL     1      36.760 -22.048 -17.486  0.00  0.00    +0.193 C 
ATOM     25  C   UNL     1      35.204 -21.795 -19.043  0.00  0.00    +0.204 C 
ATOM     26  C   UNL     1      34.694 -21.251 -20.245  0.00  0.00    +0.054 C 
ATOM     27  C   UNL     1      36.777 -20.088 -20.412  0.00  0.00    +0.245 C 
ATOM     28  C   UNL     1      35.440 -20.399 -20.959  0.00  0.00    +0.063 C 
ATOM     29  O   UNL     1      37.486 -23.401 -14.904  0.00  0.00    -0.275 OA
ATOM     30  N   UNL     1      35.470 -23.614 -16.114  0.00  0.00    -0.261 N 
ATOM     31  C   UNL     1      36.365 -23.869 -15.054  0.00  0.00    +0.227 C 
ATOM     32  H   UNL     1      34.607 -24.082 -16.065  0.00  0.00    +0.157 HD
BRANCH  31  33
ATOM     33  C   UNL     1      35.846 -24.818 -14.019  0.00  0.00    +0.077 C 
ATOM     34  C   UNL     1      35.369 -24.273 -12.704  0.00  0.00    +0.010 C 
ATOM     35  C   UNL     1      36.652 -25.050 -12.774  0.00  0.00    +0.010 C 
ENDBRANCH  31  33
ENDBRANCH  19  27
ENDBRANCH   2  19
TORSDOF 5
ENDMDL
MODEL 6
REMARK VINA RESULT:     -10.2      4.958     13.953
REMARK  Name = 24767976
REMARK  5 active torsions:
REMARK  status: ('A' for Active; 'I' for Inactive)
REMARK    1  A    between atoms: C_1  and  N_9
REMARK    2  A    between atoms: C_2  and  O_19
REMARK    3  A    between atoms: C_10  and  C_14
REMARK    4  A    between atoms: O_19  and  C_27
REMARK    5  A    between atoms: C_31  and  C_33
REMARK                            x       y       z     vdW  Elec       q    Type
REMARK                         _______ _______ _______ _____ _____    ______ ____
ROOT
ATOM      1  C   UNL     1      32.868  -7.917 -22.446  0.00  0.00    +0.050 C 
ATOM      2  C   UNL     1      31.725  -9.981 -21.929  0.00  0.00    +0.148 C 
ATOM      3  C   UNL     1      32.835  -7.561 -21.098  0.00  0.00    -0.008 C 
ATOM      4  C   UNL     1      32.312  -9.127 -22.861  0.00  0.00    +0.052 C 
ATOM      5  C   UNL     1      32.247  -8.415 -20.165  0.00  0.00    +0.000 C 
ATOM      6  C   UNL     1      31.692  -9.626 -20.581  0.00  0.00    +0.037 C 
ATOM      7  C   UNL     1      33.422  -6.270 -20.625  0.00  0.00    +0.032 C 
ENDROOT
BRANCH   1   9
ATOM      8  O   UNL     1      31.606  -6.004 -24.380  0.00  0.00    -0.268 OA
ATOM      9  N   UNL     1      33.453  -7.075 -23.395  0.00  0.00    -0.279 N 
ATOM     10  C   UNL     1      32.813  -6.197 -24.278  0.00  0.00    +0.265 C 
ATOM     11  H   UNL     1      34.436  -7.104 -23.451  0.00  0.00    +0.155 HD
BRANCH  10  14
ATOM     12  N   UNL     1      33.500  -4.183 -25.654  0.00  0.00    -0.206 N 
ATOM     13  N   UNL     1      34.465  -3.734 -26.475  0.00  0.00    -0.182 NA
ATOM     14  C   UNL     1      33.713  -5.450 -25.196  0.00  0.00    +0.124 C 
ATOM     15  C   UNL     1      34.898  -5.858 -25.756  0.00  0.00    +0.037 C 
ATOM     16  C   UNL     1      35.317  -4.761 -26.533  0.00  0.00    +0.078 C 
ATOM     17  C   UNL     1      32.379  -3.325 -25.347  0.00  0.00    +0.140 C 
ATOM     18  C   UNL     1      36.535  -4.656 -27.353  0.00  0.00    +0.054 C 
ENDBRANCH  10  14
ENDBRANCH   1   9
BRANCH   2  19
ATOM     19  O   UNL     1      31.169 -11.189 -22.343  0.00  0.00    -0.435 OA
BRANCH  19  27
ATOM     20  N   UNL     1      34.137 -15.207 -20.471  0.00  0.00    -0.373 NA
ATOM     21  N   UNL     1      33.288 -13.951 -22.108  0.00  0.00    -0.173 N 
ATOM     22  N   UNL     1      32.580 -12.974 -22.740  0.00  0.00    -0.138 NA
ATOM     23  C   UNL     1      34.576 -15.659 -21.690  0.00  0.00    +0.187 C 
ATOM     24  C   UNL     1      34.066 -14.901 -22.716  0.00  0.00    +0.193 C 
ATOM     25  C   UNL     1      33.361 -14.177 -20.743  0.00  0.00    +0.204 C 
ATOM     26  C   UNL     1      32.626 -13.307 -19.904  0.00  0.00    +0.054 C 
ATOM     27  C   UNL     1      31.932 -12.215 -21.916  0.00  0.00    +0.245 C 
ATOM     28  C   UNL     1      31.902 -12.318 -20.441  0.00  0.00    +0.063 C 
ATOM     29  O   UNL     1      35.745 -16.935 -24.153  0.00  0.00    -0.275 OA
ATOM     30  N   UNL     1      35.419 -16.737 -21.823  0.00  0.00    -0.261 N 
ATOM     31  C   UNL     1      35.944 -17.304 -23.003  0.00  0.00    +0.227 C 
ATOM     32  H   UNL     1      35.692 -17.171 -20.984  0.00  0.00    +0.157 HD
BRANCH  31  33
ATOM     33  C   UNL     1      36.841 -18.482 -22.780  0.00  0.00    +0.077 C 
ATOM     34  C   UNL     1      36.258 -19.746 -22.218  0.00  0.00    +0.010 C 
ATOM     35  C   UNL     1      37.164 -18.897 -21.375  0.00  0.00    +0.010 C 
ENDBRANCH  31  33
ENDBRANCH  19  27
ENDBRANCH   2  19
TORSDOF 5
ENDMDL
MODEL 7
REMARK VINA RESULT:     -10.2      7.534     11.053
REMARK  Name = 24767976
REMARK  5 active torsions:
REMARK  status: ('A' for Active; 'I' for Inactive)
REMARK    1  A    between atoms: C_1  and  N_9
REMARK    2  A    between atoms: C_2  and  O_19
REMARK    3  A    between atoms: C_10  and  C_14
REMARK    4  A    between atoms: O_19  and  C_27
REMARK    5  A    between atoms: C_31  and  C_33
REMARK                            x       y       z     vdW  Elec       q    Type
REMARK                         _______ _______ _______ _____ _____    ______ ____
ROOT
ATOM      1  C   UNL     1      32.284 -12.712 -21.979  0.00  0.00    +0.050 C 
ATOM      2  C   UNL     1      31.295 -10.536 -21.636  0.00  0.00    +0.148 C 
ATOM      3  C   UNL     1      32.311 -12.919 -20.601  0.00  0.00    -0.008 C 
ATOM      4  C   UNL     1      31.777 -11.521 -22.497  0.00  0.00    +0.052 C 
ATOM      5  C   UNL     1      31.829 -11.933 -19.739  0.00  0.00    +0.000 C 
ATOM      6  C   UNL     1      31.321 -10.741 -20.257  0.00  0.00    +0.037 C 
ATOM      7  C   UNL     1      32.849 -14.185 -20.018  0.00  0.00    +0.032 C 
ENDROOT
BRANCH   1   9
ATOM      8  O   UNL     1      34.540 -12.607 -23.952  0.00  0.00    -0.268 OA
ATOM      9  N   UNL     1      32.762 -13.688 -22.859  0.00  0.00    -0.279 N 
ATOM     10  C   UNL     1      33.824 -13.585 -23.764  0.00  0.00    +0.265 C 
ATOM     11  H   UNL     1      32.292 -14.553 -22.840  0.00  0.00    +0.155 HD
BRANCH  10  14
ATOM     12  N   UNL     1      33.869 -14.891 -25.936  0.00  0.00    -0.206 N 
ATOM     13  N   UNL     1      34.174 -16.096 -26.447  0.00  0.00    -0.182 NA
ATOM     14  C   UNL     1      34.075 -14.795 -24.591  0.00  0.00    +0.124 C 
ATOM     15  C   UNL     1      34.547 -16.022 -24.194  0.00  0.00    +0.037 C 
ATOM     16  C   UNL     1      34.588 -16.782 -25.379  0.00  0.00    +0.078 C 
ATOM     17  C   UNL     1      33.374 -13.856 -26.814  0.00  0.00    +0.140 C 
ATOM     18  C   UNL     1      35.020 -18.182 -25.532  0.00  0.00    +0.054 C 
ENDBRANCH  10  14
ENDBRANCH   1   9
BRANCH   2  19
ATOM     19  O   UNL     1      30.788  -9.346 -22.152  0.00  0.00    -0.435 OA
BRANCH  19  27
ATOM     20  N   UNL     1      34.881  -6.261 -23.632  0.00  0.00    -0.373 NA
ATOM     21  N   UNL     1      32.906  -7.244 -23.961  0.00  0.00    -0.173 N 
ATOM     22  N   UNL     1      31.793  -7.997 -23.734  0.00  0.00    -0.138 NA
ATOM     23  C   UNL     1      34.395  -5.941 -24.875  0.00  0.00    +0.187 C 
ATOM     24  C   UNL     1      33.178  -6.536 -25.102  0.00  0.00    +0.193 C 
ATOM     25  C   UNL     1      33.969  -7.048 -23.096  0.00  0.00    +0.204 C 
ATOM     26  C   UNL     1      33.907  -7.693 -21.838  0.00  0.00    +0.054 C 
ATOM     27  C   UNL     1      31.800  -8.558 -22.569  0.00  0.00    +0.245 C 
ATOM     28  C   UNL     1      32.849  -8.453 -21.532  0.00  0.00    +0.063 C 
ATOM     29  O   UNL     1      33.671  -5.019 -27.647  0.00  0.00    -0.275 OA
ATOM     30  N   UNL     1      35.072  -5.126 -25.751  0.00  0.00    -0.261 N 
ATOM     31  C   UNL     1      34.694  -4.718 -27.047  0.00  0.00    +0.227 C 
ATOM     32  H   UNL     1      35.936  -4.781 -25.431  0.00  0.00    +0.157 HD
BRANCH  31  33
ATOM     33  C   UNL     1      35.678  -3.817 -27.726  0.00  0.00    +0.077 C 
ATOM     34  C   UNL     1      36.609  -4.396 -28.751  0.00  0.00    +0.010 C 
ATOM     35  C   UNL     1      37.138  -3.966 -27.414  0.00  0.00    +0.010 C 
ENDBRANCH  31  33
ENDBRANCH  19  27
ENDBRANCH   2  19
TORSDOF 5
ENDMDL
MODEL 8
REMARK VINA RESULT:     -10.2      2.124     10.187
REMARK  Name = 24767976
REMARK  5 active torsions:
REMARK  status: ('A' for Active; 'I' for Inactive)
REMARK    1  A    between atoms: C_1  and  N_9
REMARK    2  A    between atoms: C_2  and  O_19
REMARK    3  A    between atoms: C_10  and  C_14
REMARK    4  A    between atoms: O_19  and  C_27
REMARK    5  A    between atoms: C_31  and  C_33
REMARK                            x       y       z     vdW  Elec       q    Type
REMARK                         _______ _______ _______ _____ _____    ______ ____
ROOT
ATOM      1  C   UNL     1      34.646 -16.208 -23.466  0.00  0.00    +0.050 C 
ATOM      2  C   UNL     1      36.055 -18.118 -23.020  0.00  0.00    +0.148 C 
ATOM      3  C   UNL     1      34.518 -16.611 -24.794  0.00  0.00    -0.008 C 
ATOM      4  C   UNL     1      35.415 -16.961 -22.579  0.00  0.00    +0.052 C 
ATOM      5  C   UNL     1      35.159 -17.769 -25.236  0.00  0.00    +0.000 C 
ATOM      6  C   UNL     1      35.928 -18.523 -24.349  0.00  0.00    +0.037 C 
ATOM      7  C   UNL     1      33.701 -15.824 -25.767  0.00  0.00    +0.032 C 
ENDROOT
BRANCH   1   9
ATOM      8  O   UNL     1      34.618 -14.971 -20.734  0.00  0.00    -0.268 OA
ATOM      9  N   UNL     1      34.011 -15.052 -23.004  0.00  0.00    -0.279 N 
ATOM     10  C   UNL     1      34.031 -14.517 -21.711  0.00  0.00    +0.265 C 
ATOM     11  H   UNL     1      33.484 -14.553 -23.670  0.00  0.00    +0.155 HD
BRANCH  10  14
ATOM     12  N   UNL     1      33.091 -12.277 -22.435  0.00  0.00    -0.206 N 
ATOM     13  N   UNL     1      32.309 -11.267 -22.019  0.00  0.00    -0.182 NA
ATOM     14  C   UNL     1      33.227 -13.280 -21.521  0.00  0.00    +0.124 C 
ATOM     15  C   UNL     1      32.483 -12.900 -20.431  0.00  0.00    +0.037 C 
ATOM     16  C   UNL     1      31.940 -11.652 -20.795  0.00  0.00    +0.078 C 
ATOM     17  C   UNL     1      33.688 -12.214 -23.749  0.00  0.00    +0.140 C 
ATOM     18  C   UNL     1      31.057 -10.791 -19.991  0.00  0.00    +0.054 C 
ENDBRANCH  10  14
ENDBRANCH   1   9
BRANCH   2  19
ATOM     19  O   UNL     1      36.824 -18.870 -22.135  0.00  0.00    -0.435 OA
BRANCH  19  27
ATOM     20  N   UNL     1      33.512 -21.925 -19.280  0.00  0.00    -0.373 NA
ATOM     21  N   UNL     1      35.508 -21.043 -19.744  0.00  0.00    -0.173 N 
ATOM     22  N   UNL     1      36.474 -20.312 -20.365  0.00  0.00    -0.138 NA
ATOM     23  C   UNL     1      34.445 -22.368 -18.377  0.00  0.00    +0.187 C 
ATOM     24  C   UNL     1      35.685 -21.838 -18.642  0.00  0.00    +0.193 C 
ATOM     25  C   UNL     1      34.171 -21.128 -20.096  0.00  0.00    +0.204 C 
ATOM     26  C   UNL     1      33.751 -20.380 -21.222  0.00  0.00    +0.054 C 
ATOM     27  C   UNL     1      36.024 -19.654 -21.384  0.00  0.00    +0.245 C 
ATOM     28  C   UNL     1      34.636 -19.634 -21.893  0.00  0.00    +0.063 C 
ATOM     29  O   UNL     1      36.187 -23.548 -16.224  0.00  0.00    -0.275 OA
ATOM     30  N   UNL     1      34.138 -23.231 -17.352  0.00  0.00    -0.261 N 
ATOM     31  C   UNL     1      34.990 -23.762 -16.362  0.00  0.00    +0.227 C 
ATOM     32  H   UNL     1      33.198 -23.517 -17.303  0.00  0.00    +0.157 HD
BRANCH  31  33
ATOM     33  C   UNL     1      34.316 -24.680 -15.389  0.00  0.00    +0.077 C 
ATOM     34  C   UNL     1      33.408 -24.097 -14.346  0.00  0.00    +0.010 C 
ATOM     35  C   UNL     1      34.743 -24.659 -13.951  0.00  0.00    +0.010 C 
ENDBRANCH  31  33
ENDBRANCH  19  27
ENDBRANCH   2  19
TORSDOF 5
ENDMDL
MODEL 9
REMARK VINA RESULT:      -9.9      4.478      9.157
REMARK  Name = 24767976
REMARK  5 active torsions:
REMARK  status: ('A' for Active; 'I' for Inactive)
REMARK    1  A    between atoms: C_1  and  N_9
REMARK    2  A    between atoms: C_2  and  O_19
REMARK    3  A    between atoms: C_10  and  C_14
REMARK    4  A    between atoms: O_19  and  C_27
REMARK    5  A    between atoms: C_31  and  C_33
REMARK                            x       y       z     vdW  Elec       q    Type
REMARK                         _______ _______ _______ _____ _____    ______ ____
ROOT
ATOM      1  C   UNL     1      36.374 -22.512 -16.958  0.00  0.00    +0.050 C 
ATOM      2  C   UNL     1      35.605 -24.247 -15.464  0.00  0.00    +0.148 C 
ATOM      3  C   UNL     1      37.566 -22.421 -16.240  0.00  0.00    -0.008 C 
ATOM      4  C   UNL     1      35.393 -23.425 -16.571  0.00  0.00    +0.052 C 
ATOM      5  C   UNL     1      37.777 -23.244 -15.133  0.00  0.00    +0.000 C 
ATOM      6  C   UNL     1      36.796 -24.157 -14.745  0.00  0.00    +0.037 C 
ATOM      7  C   UNL     1      38.634 -21.452 -16.632  0.00  0.00    +0.032 C 
ENDROOT
BRANCH   1   9
ATOM      8  O   UNL     1      35.032 -23.128 -19.568  0.00  0.00    -0.268 OA
ATOM      9  N   UNL     1      36.145 -21.697 -18.070  0.00  0.00    -0.279 N 
ATOM     10  C   UNL     1      35.510 -22.038 -19.270  0.00  0.00    +0.265 C 
ATOM     11  H   UNL     1      36.471 -20.770 -18.001  0.00  0.00    +0.155 HD
BRANCH  10  14
ATOM     12  N   UNL     1      34.296 -20.388 -20.763  0.00  0.00    -0.206 N 
ATOM     13  N   UNL     1      34.507 -19.425 -21.676  0.00  0.00    -0.182 NA
ATOM     14  C   UNL     1      35.442 -20.953 -20.284  0.00  0.00    +0.124 C 
ATOM     15  C   UNL     1      36.473 -20.316 -20.930  0.00  0.00    +0.037 C 
ATOM     16  C   UNL     1      35.839 -19.385 -21.774  0.00  0.00    +0.078 C 
ATOM     17  C   UNL     1      32.942 -20.722 -20.388  0.00  0.00    +0.140 C 
ATOM     18  C   UNL     1      36.476 -18.431 -22.697  0.00  0.00    +0.054 C 
ENDBRANCH  10  14
ENDBRANCH   1   9
BRANCH   2  19
ATOM     19  O   UNL     1      34.626 -25.158 -15.077  0.00  0.00    -0.435 OA
BRANCH  19  27
ATOM     20  N   UNL     1      29.940 -22.661 -14.560  0.00  0.00    -0.373 NA
ATOM     21  N   UNL     1      31.453 -23.846 -15.694  0.00  0.00    -0.173 N 
ATOM     22  N   UNL     1      32.600 -24.521 -15.983  0.00  0.00    -0.138 NA
ATOM     23  C   UNL     1      29.479 -22.929 -15.824  0.00  0.00    +0.187 C 
ATOM     24  C   UNL     1      30.394 -23.658 -16.544  0.00  0.00    +0.193 C 
ATOM     25  C   UNL     1      31.131 -23.222 -14.500  0.00  0.00    +0.204 C 
ATOM     26  C   UNL     1      32.089 -23.284 -13.460  0.00  0.00    +0.054 C 
ATOM     27  C   UNL     1      33.430 -24.541 -14.992  0.00  0.00    +0.245 C 
ATOM     28  C   UNL     1      33.245 -23.929 -13.659  0.00  0.00    +0.063 C 
ATOM     29  O   UNL     1      28.132 -23.310 -18.489  0.00  0.00    -0.275 OA
ATOM     30  N   UNL     1      28.252 -22.503 -16.274  0.00  0.00    -0.261 N 
ATOM     31  C   UNL     1      27.658 -22.705 -17.537  0.00  0.00    +0.227 C 
ATOM     32  H   UNL     1      27.717 -21.989 -15.629  0.00  0.00    +0.157 HD
BRANCH  31  33
ATOM     33  C   UNL     1      26.297 -22.099 -17.687  0.00  0.00    +0.077 C 
ATOM     34  C   UNL     1      25.862 -21.607 -19.037  0.00  0.00    +0.010 C 
ATOM     35  C   UNL     1      26.179 -20.626 -17.946  0.00  0.00    +0.010 C 
ENDBRANCH  31  33
ENDBRANCH  19  27
ENDBRANCH   2  19
TORSDOF 5
ENDMDL
