MODEL 1
REMARK VINA RESULT:     -11.4      0.000      0.000
REMARK  Name = 448942
REMARK  8 active torsions:
REMARK  status: ('A' for Active; 'I' for Inactive)
REMARK    1  A    between atoms: C_2  and  C_20
REMARK    2  A    between atoms: C_3  and  C_6
REMARK    3  A    between atoms: C_7  and  C_13
REMARK    4  A    between atoms: N_19  and  C_22
REMARK    5  A    between atoms: C_22  and  C_23
REMARK    6  A    between atoms: C_22  and  C_29
REMARK    7  A    between atoms: C_29  and  C_31
REMARK    8  A    between atoms: C_31  and  O_32
REMARK                            x       y       z     vdW  Elec       q    Type
REMARK                         _______ _______ _______ _____ _____    ______ ____
ROOT
ATOM      1  S   UNL     1      32.496 -23.880 -16.390  0.00  0.00    -0.082 S 
ATOM      2  C   UNL     1      34.181 -23.803 -16.249  0.00  0.00    +0.083 C 
ATOM      3  C   UNL     1      33.836 -22.497 -18.091  0.00  0.00    +0.007 C 
ATOM      4  C   UNL     1      34.792 -23.051 -17.191  0.00  0.00    +0.012 C 
ATOM      5  C   UNL     1      32.550 -22.868 -17.771  0.00  0.00    +0.036 C 
ENDROOT
BRANCH   3   6
ATOM      6  C   UNL     1      34.099 -21.646 -19.220  0.00  0.00    +0.001 C 
ATOM      7  C   UNL     1      34.608 -19.996 -21.409  0.00  0.00    +0.000 C 
ATOM      8  C   UNL     1      35.409 -21.451 -19.654  0.00  0.00    +0.000 C 
ATOM      9  C   UNL     1      33.042 -21.018 -19.878  0.00  0.00    +0.000 C 
ATOM     10  C   UNL     1      35.664 -20.625 -20.748  0.00  0.00    +0.000 C 
ATOM     11  C   UNL     1      33.298 -20.193 -20.973  0.00  0.00    +0.000 C 
BRANCH   7  13
ATOM     12  N   UNL     1      35.386 -17.484 -24.736  0.00  0.00    -0.242 NA
ATOM     13  C   UNL     1      34.873 -19.139 -22.543  0.00  0.00    +0.003 C 
ATOM     14  C   UNL     1      34.463 -19.520 -23.816  0.00  0.00    +0.021 C 
ATOM     15  C   UNL     1      35.539 -17.931 -22.366  0.00  0.00    +0.021 C 
ATOM     16  C   UNL     1      34.741 -18.665 -24.870  0.00  0.00    +0.099 C 
ATOM     17  C   UNL     1      35.769 -17.147 -23.484  0.00  0.00    +0.099 C 
ENDBRANCH   7  13
ENDBRANCH   3   6
BRANCH   2  20
ATOM     18  O   UNL     1      34.250 -25.474 -14.572  0.00  0.00    -0.270 OA
ATOM     19  N   UNL     1      36.075 -24.092 -14.767  0.00  0.00    -0.298 N 
ATOM     20  C   UNL     1      34.812 -24.539 -15.146  0.00  0.00    +0.252 C 
ATOM     21  H   UNL     1      36.481 -23.341 -15.257  0.00  0.00    +0.150 HD
BRANCH  19  22
ATOM     22  C   UNL     1      36.809 -24.696 -13.677  0.00  0.00    +0.105 C 
BRANCH  22  23
ATOM     23  C   UNL     1      38.215 -25.047 -14.125  0.00  0.00    -0.004 C 
ATOM     24  C   UNL     1      38.697 -24.510 -15.305  0.00  0.00    -0.003 C 
ATOM     25  C   UNL     1      38.979 -25.893 -13.344  0.00  0.00    -0.003 C 
ATOM     26  C   UNL     1      39.990 -24.833 -15.718  0.00  0.00    -0.000 C 
ATOM     27  C   UNL     1      40.271 -26.216 -13.757  0.00  0.00    -0.000 C 
ATOM     28  C   UNL     1      40.776 -25.686 -14.944  0.00  0.00    -0.000 C 
ENDBRANCH  22  23
BRANCH  22  29
ATOM     29  C   UNL     1      36.767 -23.785 -12.438  0.00  0.00    +0.133 C 
BRANCH  29  31
ATOM     30  O   UNL     1      36.357 -24.282 -10.085  0.00  0.00    -0.250 OA
ATOM     31  C   UNL     1      36.043 -24.405 -11.261  0.00  0.00    +0.316 C 
BRANCH  31  32
ATOM     32  O   UNL     1      34.986 -25.158 -11.668  0.00  0.00    -0.480 OA
ATOM     33  H   UNL     1      34.174 -25.114 -11.205  0.00  0.00    +0.295 HD
ENDBRANCH  31  32
ENDBRANCH  29  31
ENDBRANCH  22  29
ENDBRANCH  19  22
ENDBRANCH   2  20
TORSDOF 8
ENDMDL
MODEL 2
REMARK VINA RESULT:     -10.9      2.607      4.576
REMARK  Name = 448942
REMARK  8 active torsions:
REMARK  status: ('A' for Active; 'I' for Inactive)
REMARK    1  A    between atoms: C_2  and  C_20
REMARK    2  A    between atoms: C_3  and  C_6
REMARK    3  A    between atoms: C_7  and  C_13
REMARK    4  A    between atoms: N_19  and  C_22
REMARK    5  A    between atoms: C_22  and  C_23
REMARK    6  A    between atoms: C_22  and  C_29
REMARK    7  A    between atoms: C_29  and  C_31
REMARK    8  A    between atoms: C_31  and  O_32
REMARK                            x       y       z     vdW  Elec       q    Type
REMARK                         _______ _______ _______ _____ _____    ______ ____
ROOT
ATOM      1  S   UNL     1      37.280 -22.452 -16.913  0.00  0.00    -0.082 S 
ATOM      2  C   UNL     1      35.623 -22.752 -17.084  0.00  0.00    +0.083 C 
ATOM      3  C   UNL     1      36.012 -21.415 -18.893  0.00  0.00    +0.007 C 
ATOM      4  C   UNL     1      35.049 -22.163 -18.155  0.00  0.00    +0.012 C 
ATOM      5  C   UNL     1      37.266 -21.486 -18.328  0.00  0.00    +0.036 C 
ENDROOT
BRANCH   3   6
ATOM      6  C   UNL     1      35.786 -20.652 -20.091  0.00  0.00    +0.001 C 
ATOM      7  C   UNL     1      35.344 -19.172 -22.411  0.00  0.00    +0.000 C 
ATOM      8  C   UNL     1      36.833 -19.940 -20.671  0.00  0.00    +0.000 C 
ATOM      9  C   UNL     1      34.516 -20.626 -20.668  0.00  0.00    +0.000 C 
ATOM     10  C   UNL     1      36.613 -19.198 -21.832  0.00  0.00    +0.000 C 
ATOM     11  C   UNL     1      34.296 -19.884 -21.829  0.00  0.00    +0.000 C 
BRANCH   7  13
ATOM     12  N   UNL     1      34.670 -16.913 -25.938  0.00  0.00    -0.242 NA
ATOM     13  C   UNL     1      35.115 -18.402 -23.614  0.00  0.00    +0.003 C 
ATOM     14  C   UNL     1      35.591 -17.100 -23.710  0.00  0.00    +0.021 C 
ATOM     15  C   UNL     1      34.416 -18.961 -24.679  0.00  0.00    +0.021 C 
ATOM     16  C   UNL     1      35.345 -16.403 -24.883  0.00  0.00    +0.099 C 
ATOM     17  C   UNL     1      34.222 -18.182 -25.808  0.00  0.00    +0.099 C 
ENDBRANCH   7  13
ENDBRANCH   3   6
BRANCH   2  20
ATOM     18  O   UNL     1      35.040 -24.835 -16.117  0.00  0.00    -0.270 OA
ATOM     19  N   UNL     1      34.250 -22.935 -15.096  0.00  0.00    -0.298 N 
ATOM     20  C   UNL     1      34.973 -23.605 -16.079  0.00  0.00    +0.252 C 
ATOM     21  H   UNL     1      34.227 -21.951 -15.109  0.00  0.00    +0.150 HD
BRANCH  19  22
ATOM     22  C   UNL     1      33.530 -23.639 -14.057  0.00  0.00    +0.105 C 
BRANCH  22  23
ATOM     23  C   UNL     1      32.144 -24.013 -14.544  0.00  0.00    -0.004 C 
ATOM     24  C   UNL     1      31.639 -25.264 -14.238  0.00  0.00    -0.003 C 
ATOM     25  C   UNL     1      31.420 -23.096 -15.282  0.00  0.00    -0.003 C 
ATOM     26  C   UNL     1      30.364 -25.608 -14.686  0.00  0.00    -0.000 C 
ATOM     27  C   UNL     1      30.145 -23.440 -15.731  0.00  0.00    -0.000 C 
ATOM     28  C   UNL     1      29.618 -24.697 -15.433  0.00  0.00    -0.000 C 
ENDBRANCH  22  23
BRANCH  22  29
ATOM     29  C   UNL     1      34.354 -24.840 -13.560  0.00  0.00    +0.133 C 
BRANCH  29  31
ATOM     30  O   UNL     1      35.259 -25.134 -11.315  0.00  0.00    -0.250 OA
ATOM     31  C   UNL     1      35.231 -24.515 -12.370  0.00  0.00    +0.316 C 
BRANCH  31  32
ATOM     32  O   UNL     1      35.990 -23.410 -12.598  0.00  0.00    -0.480 OA
ATOM     33  H   UNL     1      35.587 -22.620 -12.898  0.00  0.00    +0.295 HD
ENDBRANCH  31  32
ENDBRANCH  29  31
ENDBRANCH  22  29
ENDBRANCH  19  22
ENDBRANCH   2  20
TORSDOF 8
ENDMDL
MODEL 3
REMARK VINA RESULT:     -10.5      2.940      4.995
REMARK  Name = 448942
REMARK  8 active torsions:
REMARK  status: ('A' for Active; 'I' for Inactive)
REMARK    1  A    between atoms: C_2  and  C_20
REMARK    2  A    between atoms: C_3  and  C_6
REMARK    3  A    between atoms: C_7  and  C_13
REMARK    4  A    between atoms: N_19  and  C_22
REMARK    5  A    between atoms: C_22  and  C_23
REMARK    6  A    between atoms: C_22  and  C_29
REMARK    7  A    between atoms: C_29  and  C_31
REMARK    8  A    between atoms: C_31  and  O_32
REMARK                            x       y       z     vdW  Elec       q    Type
REMARK                         _______ _______ _______ _____ _____    ______ ____
ROOT
ATOM      1  S   UNL     1      37.131 -21.104 -19.914  0.00  0.00    -0.082 S 
ATOM      2  C   UNL     1      35.451 -21.313 -19.956  0.00  0.00    +0.083 C 
ATOM      3  C   UNL     1      35.697 -19.486 -21.305  0.00  0.00    +0.007 C 
ATOM      4  C   UNL     1      34.788 -20.412 -20.714  0.00  0.00    +0.012 C 
ATOM      5  C   UNL     1      37.002 -19.747 -20.952  0.00  0.00    +0.036 C 
ENDROOT
BRANCH   3   6
ATOM      6  C   UNL     1      35.373 -18.386 -22.172  0.00  0.00    +0.001 C 
ATOM      7  C   UNL     1      34.743 -16.255 -23.856  0.00  0.00    +0.000 C 
ATOM      8  C   UNL     1      35.290 -17.094 -21.657  0.00  0.00    +0.000 C 
ATOM      9  C   UNL     1      35.141 -18.616 -23.528  0.00  0.00    +0.000 C 
ATOM     10  C   UNL     1      34.975 -16.027 -22.498  0.00  0.00    +0.000 C 
ATOM     11  C   UNL     1      34.826 -17.549 -24.370  0.00  0.00    +0.000 C 
BRANCH   7  13
ATOM     12  N   UNL     1      33.783 -13.012 -26.415  0.00  0.00    -0.242 NA
ATOM     13  C   UNL     1      34.415 -15.149 -24.728  0.00  0.00    +0.003 C 
ATOM     14  C   UNL     1      33.968 -15.391 -26.022  0.00  0.00    +0.021 C 
ATOM     15  C   UNL     1      34.547 -13.840 -24.277  0.00  0.00    +0.021 C 
ATOM     16  C   UNL     1      33.667 -14.298 -26.819  0.00  0.00    +0.099 C 
ATOM     17  C   UNL     1      34.221 -12.817 -25.152  0.00  0.00    +0.099 C 
ENDBRANCH   7  13
ENDBRANCH   3   6
BRANCH   2  20
ATOM     18  O   UNL     1      34.225 -23.326 -19.717  0.00  0.00    -0.270 OA
ATOM     19  N   UNL     1      35.096 -22.382 -17.812  0.00  0.00    -0.298 N 
ATOM     20  C   UNL     1      34.879 -22.425 -19.187  0.00  0.00    +0.252 C 
ATOM     21  H   UNL     1      35.625 -21.642 -17.436  0.00  0.00    +0.150 HD
BRANCH  19  22
ATOM     22  C   UNL     1      34.569 -23.391 -16.919  0.00  0.00    +0.105 C 
BRANCH  22  23
ATOM     23  C   UNL     1      35.672 -23.926 -16.026  0.00  0.00    -0.004 C 
ATOM     24  C   UNL     1      35.437 -25.064 -15.277  0.00  0.00    -0.003 C 
ATOM     25  C   UNL     1      36.884 -23.263 -15.984  0.00  0.00    -0.003 C 
ATOM     26  C   UNL     1      36.451 -25.556 -14.456  0.00  0.00    -0.000 C 
ATOM     27  C   UNL     1      37.898 -23.755 -15.163  0.00  0.00    -0.000 C 
ATOM     28  C   UNL     1      37.681 -24.901 -14.398  0.00  0.00    -0.000 C 
ENDBRANCH  22  23
BRANCH  22  29
ATOM     29  C   UNL     1      33.363 -22.834 -16.141  0.00  0.00    +0.133 C 
BRANCH  29  31
ATOM     30  O   UNL     1      31.195 -23.937 -16.316  0.00  0.00    -0.250 OA
ATOM     31  C   UNL     1      32.031 -23.173 -16.777  0.00  0.00    +0.316 C 
BRANCH  31  32
ATOM     32  O   UNL     1      31.872 -22.534 -17.967  0.00  0.00    -0.480 OA
ATOM     33  H   UNL     1      31.557 -23.005 -18.712  0.00  0.00    +0.295 HD
ENDBRANCH  31  32
ENDBRANCH  29  31
ENDBRANCH  22  29
ENDBRANCH  19  22
ENDBRANCH   2  20
TORSDOF 8
ENDMDL
MODEL 4
REMARK VINA RESULT:      -9.9      8.409     12.327
REMARK  Name = 448942
REMARK  8 active torsions:
REMARK  status: ('A' for Active; 'I' for Inactive)
REMARK    1  A    between atoms: C_2  and  C_20
REMARK    2  A    between atoms: C_3  and  C_6
REMARK    3  A    between atoms: C_7  and  C_13
REMARK    4  A    between atoms: N_19  and  C_22
REMARK    5  A    between atoms: C_22  and  C_23
REMARK    6  A    between atoms: C_22  and  C_29
REMARK    7  A    between atoms: C_29  and  C_31
REMARK    8  A    between atoms: C_31  and  O_32
REMARK                            x       y       z     vdW  Elec       q    Type
REMARK                         _______ _______ _______ _____ _____    ______ ____
ROOT
ATOM      1  S   UNL     1      33.334 -14.699 -21.371  0.00  0.00    -0.082 S 
ATOM      2  C   UNL     1      34.222 -14.347 -22.768  0.00  0.00    +0.083 C 
ATOM      3  C   UNL     1      33.207 -12.339 -22.378  0.00  0.00    +0.007 C 
ATOM      4  C   UNL     1      34.088 -13.081 -23.219  0.00  0.00    +0.012 C 
ATOM      5  C   UNL     1      32.726 -13.099 -21.336  0.00  0.00    +0.036 C 
ENDROOT
BRANCH   3   6
ATOM      6  C   UNL     1      32.817 -10.963 -22.531  0.00  0.00    +0.001 C 
ATOM      7  C   UNL     1      32.060  -8.296 -22.824  0.00  0.00    +0.000 C 
ATOM      8  C   UNL     1      33.091 -10.289 -23.719  0.00  0.00    +0.000 C 
ATOM      9  C   UNL     1      32.165 -10.306 -21.487  0.00  0.00    +0.000 C 
ATOM     10  C   UNL     1      32.714  -8.955 -23.866  0.00  0.00    +0.000 C 
ATOM     11  C   UNL     1      31.787  -8.971 -21.635  0.00  0.00    +0.000 C 
BRANCH   7  13
ATOM     12  N   UNL     1      30.918  -4.236 -23.270  0.00  0.00    -0.242 NA
ATOM     13  C   UNL     1      31.670  -6.912 -22.976  0.00  0.00    +0.003 C 
ATOM     14  C   UNL     1      31.974  -6.226 -24.146  0.00  0.00    +0.021 C 
ATOM     15  C   UNL     1      30.990  -6.261 -21.952  0.00  0.00    +0.021 C 
ATOM     16  C   UNL     1      31.579  -4.901 -24.243  0.00  0.00    +0.099 C 
ATOM     17  C   UNL     1      30.640  -4.935 -22.146  0.00  0.00    +0.099 C 
ENDBRANCH   7  13
ENDBRANCH   3   6
BRANCH   2  20
ATOM     18  O   UNL     1      35.949 -15.196 -24.149  0.00  0.00    -0.270 OA
ATOM     19  N   UNL     1      34.694 -16.714 -22.969  0.00  0.00    -0.298 N 
ATOM     20  C   UNL     1      35.037 -15.421 -23.352  0.00  0.00    +0.252 C 
ATOM     21  H   UNL     1      33.957 -16.842 -22.329  0.00  0.00    +0.150 HD
BRANCH  19  22
ATOM     22  C   UNL     1      35.385 -17.877 -23.483  0.00  0.00    +0.105 C 
BRANCH  22  23
ATOM     23  C   UNL     1      35.779 -18.796 -22.343  0.00  0.00    -0.004 C 
ATOM     24  C   UNL     1      37.058 -18.712 -21.824  0.00  0.00    -0.003 C 
ATOM     25  C   UNL     1      34.851 -19.695 -21.852  0.00  0.00    -0.003 C 
ATOM     26  C   UNL     1      37.421 -19.558 -20.776  0.00  0.00    -0.000 C 
ATOM     27  C   UNL     1      35.214 -20.540 -20.804  0.00  0.00    -0.000 C 
ATOM     28  C   UNL     1      36.500 -20.472 -20.267  0.00  0.00    -0.000 C 
ENDBRANCH  22  23
BRANCH  22  29
ATOM     29  C   UNL     1      34.535 -18.566 -24.564  0.00  0.00    +0.133 C 
BRANCH  29  31
ATOM     30  O   UNL     1      32.964 -17.542 -26.124  0.00  0.00    -0.250 OA
ATOM     31  C   UNL     1      34.097 -17.630 -25.671  0.00  0.00    +0.316 C 
BRANCH  31  32
ATOM     32  O   UNL     1      35.139 -16.893 -26.139  0.00  0.00    -0.480 OA
ATOM     33  H   UNL     1      35.029 -16.358 -26.900  0.00  0.00    +0.295 HD
ENDBRANCH  31  32
ENDBRANCH  29  31
ENDBRANCH  22  29
ENDBRANCH  19  22
ENDBRANCH   2  20
TORSDOF 8
ENDMDL
MODEL 5
REMARK VINA RESULT:      -9.9      1.971      3.194
REMARK  Name = 448942
REMARK  8 active torsions:
REMARK  status: ('A' for Active; 'I' for Inactive)
REMARK    1  A    between atoms: C_2  and  C_20
REMARK    2  A    between atoms: C_3  and  C_6
REMARK    3  A    between atoms: C_7  and  C_13
REMARK    4  A    between atoms: N_19  and  C_22
REMARK    5  A    between atoms: C_22  and  C_23
REMARK    6  A    between atoms: C_22  and  C_29
REMARK    7  A    between atoms: C_29  and  C_31
REMARK    8  A    between atoms: C_31  and  O_32
REMARK                            x       y       z     vdW  Elec       q    Type
REMARK                         _______ _______ _______ _____ _____    ______ ____
ROOT
ATOM      1  S   UNL     1      33.740 -23.811 -16.859  0.00  0.00    -0.082 S 
ATOM      2  C   UNL     1      35.402 -23.495 -16.812  0.00  0.00    +0.083 C 
ATOM      3  C   UNL     1      34.762 -22.201 -18.582  0.00  0.00    +0.007 C 
ATOM      4  C   UNL     1      35.841 -22.637 -17.759  0.00  0.00    +0.012 C 
ATOM      5  C   UNL     1      33.564 -22.764 -18.202  0.00  0.00    +0.036 C 
ENDROOT
BRANCH   3   6
ATOM      6  C   UNL     1      34.831 -21.290 -19.692  0.00  0.00    +0.001 C 
ATOM      7  C   UNL     1      34.966 -19.525 -21.846  0.00  0.00    +0.000 C 
ATOM      8  C   UNL     1      33.659 -20.840 -20.297  0.00  0.00    +0.000 C 
ATOM      9  C   UNL     1      36.071 -20.859 -20.162  0.00  0.00    +0.000 C 
ATOM     10  C   UNL     1      33.726 -19.957 -21.375  0.00  0.00    +0.000 C 
ATOM     11  C   UNL     1      36.138 -19.976 -21.239  0.00  0.00    +0.000 C 
BRANCH   7  13
ATOM     12  N   UNL     1      35.168 -16.841 -25.124  0.00  0.00    -0.242 NA
ATOM     13  C   UNL     1      35.036 -18.610 -22.964  0.00  0.00    +0.003 C 
ATOM     14  C   UNL     1      35.486 -17.309 -22.773  0.00  0.00    +0.021 C 
ATOM     15  C   UNL     1      34.651 -19.028 -24.233  0.00  0.00    +0.021 C 
ATOM     16  C   UNL     1      35.534 -16.471 -23.876  0.00  0.00    +0.099 C 
ATOM     17  C   UNL     1      34.735 -18.113 -25.270  0.00  0.00    +0.099 C 
ENDBRANCH   7  13
ENDBRANCH   3   6
BRANCH   2  20
ATOM     18  O   UNL     1      35.760 -25.104 -15.111  0.00  0.00    -0.270 OA
ATOM     19  N   UNL     1      37.474 -23.645 -15.566  0.00  0.00    -0.298 N 
ATOM     20  C   UNL     1      36.199 -24.163 -15.774  0.00  0.00    +0.252 C 
ATOM     21  H   UNL     1      37.779 -22.892 -16.123  0.00  0.00    +0.150 HD
BRANCH  19  22
ATOM     22  C   UNL     1      38.365 -24.177 -14.558  0.00  0.00    +0.105 C 
BRANCH  22  23
ATOM     23  C   UNL     1      37.653 -24.254 -13.221  0.00  0.00    -0.004 C 
ATOM     24  C   UNL     1      37.230 -23.085 -12.617  0.00  0.00    -0.003 C 
ATOM     25  C   UNL     1      37.444 -25.491 -12.640  0.00  0.00    -0.003 C 
ATOM     26  C   UNL     1      36.575 -23.155 -11.387  0.00  0.00    -0.000 C 
ATOM     27  C   UNL     1      36.790 -25.562 -11.411  0.00  0.00    -0.000 C 
ATOM     28  C   UNL     1      36.356 -24.393 -10.784  0.00  0.00    -0.000 C 
ENDBRANCH  22  23
BRANCH  22  29
ATOM     29  C   UNL     1      38.951 -25.521 -15.022  0.00  0.00    +0.133 C 
BRANCH  29  31
ATOM     30  O   UNL     1      41.307 -24.905 -15.161  0.00  0.00    -0.250 OA
ATOM     31  C   UNL     1      40.434 -25.656 -14.747  0.00  0.00    +0.316 C 
BRANCH  31  32
ATOM     32  O   UNL     1      40.701 -26.752 -13.987  0.00  0.00    -0.480 OA
ATOM     33  H   UNL     1      40.282 -27.567 -14.178  0.00  0.00    +0.295 HD
ENDBRANCH  31  32
ENDBRANCH  29  31
ENDBRANCH  22  29
ENDBRANCH  19  22
ENDBRANCH   2  20
TORSDOF 8
ENDMDL
MODEL 6
REMARK VINA RESULT:      -9.7      2.740      3.554
REMARK  Name = 448942
REMARK  8 active torsions:
REMARK  status: ('A' for Active; 'I' for Inactive)
REMARK    1  A    between atoms: C_2  and  C_20
REMARK    2  A    between atoms: C_3  and  C_6
REMARK    3  A    between atoms: C_7  and  C_13
REMARK    4  A    between atoms: N_19  and  C_22
REMARK    5  A    between atoms: C_22  and  C_23
REMARK    6  A    between atoms: C_22  and  C_29
REMARK    7  A    between atoms: C_29  and  C_31
REMARK    8  A    between atoms: C_31  and  O_32
REMARK                            x       y       z     vdW  Elec       q    Type
REMARK                         _______ _______ _______ _____ _____    ______ ____
ROOT
ATOM      1  S   UNL     1      37.481 -22.210 -16.979  0.00  0.00    -0.082 S 
ATOM      2  C   UNL     1      35.903 -22.751 -17.269  0.00  0.00    +0.083 C 
ATOM      3  C   UNL     1      36.190 -21.293 -19.003  0.00  0.00    +0.007 C 
ATOM      4  C   UNL     1      35.311 -22.209 -18.356  0.00  0.00    +0.012 C 
ATOM      5  C   UNL     1      37.403 -21.197 -18.358  0.00  0.00    +0.036 C 
ENDROOT
BRANCH   3   6
ATOM      6  C   UNL     1      35.921 -20.521 -20.186  0.00  0.00    +0.001 C 
ATOM      7  C   UNL     1      35.401 -19.026 -22.481  0.00  0.00    +0.000 C 
ATOM      8  C   UNL     1      34.655 -20.557 -20.767  0.00  0.00    +0.000 C 
ATOM      9  C   UNL     1      36.928 -19.739 -20.750  0.00  0.00    +0.000 C 
ATOM     10  C   UNL     1      34.394 -19.810 -21.916  0.00  0.00    +0.000 C 
ATOM     11  C   UNL     1      36.667 -18.991 -21.898  0.00  0.00    +0.000 C 
BRANCH   7  13
ATOM     12  N   UNL     1      34.612 -16.757 -25.976  0.00  0.00    -0.242 NA
ATOM     13  C   UNL     1      35.131 -18.252 -23.672  0.00  0.00    +0.003 C 
ATOM     14  C   UNL     1      34.451 -18.828 -24.739  0.00  0.00    +0.021 C 
ATOM     15  C   UNL     1      35.553 -16.929 -23.757  0.00  0.00    +0.021 C 
ATOM     16  C   UNL     1      34.217 -18.045 -25.858  0.00  0.00    +0.099 C 
ATOM     17  C   UNL     1      35.271 -16.232 -24.919  0.00  0.00    +0.099 C 
ENDBRANCH   7  13
ENDBRANCH   3   6
BRANCH   2  20
ATOM     18  O   UNL     1      34.964 -24.852 -16.707  0.00  0.00    -0.270 OA
ATOM     19  N   UNL     1      35.209 -23.314 -15.018  0.00  0.00    -0.298 N 
ATOM     20  C   UNL     1      35.333 -23.735 -16.339  0.00  0.00    +0.252 C 
ATOM     21  H   UNL     1      35.519 -22.412 -14.774  0.00  0.00    +0.150 HD
BRANCH  19  22
ATOM     22  C   UNL     1      34.637 -24.160 -13.992  0.00  0.00    +0.105 C 
BRANCH  22  23
ATOM     23  C   UNL     1      35.482 -24.098 -12.734  0.00  0.00    -0.004 C 
ATOM     24  C   UNL     1      36.643 -23.347 -12.741  0.00  0.00    -0.003 C 
ATOM     25  C   UNL     1      35.071 -24.794 -11.613  0.00  0.00    -0.003 C 
ATOM     26  C   UNL     1      37.420 -23.289 -11.584  0.00  0.00    -0.000 C 
ATOM     27  C   UNL     1      35.848 -24.737 -10.456  0.00  0.00    -0.000 C 
ATOM     28  C   UNL     1      37.023 -23.985 -10.442  0.00  0.00    -0.000 C 
ENDBRANCH  22  23
BRANCH  22  29
ATOM     29  C   UNL     1      33.161 -23.793 -13.762  0.00  0.00    +0.133 C 
BRANCH  29  31
ATOM     30  O   UNL     1      31.577 -25.578 -14.266  0.00  0.00    -0.250 OA
ATOM     31  C   UNL     1      32.204 -24.590 -14.623  0.00  0.00    +0.316 C 
BRANCH  31  32
ATOM     32  O   UNL     1      32.133 -24.086 -15.884  0.00  0.00    -0.480 OA
ATOM     33  H   UNL     1      32.438 -23.219 -16.059  0.00  0.00    +0.295 HD
ENDBRANCH  31  32
ENDBRANCH  29  31
ENDBRANCH  22  29
ENDBRANCH  19  22
ENDBRANCH   2  20
TORSDOF 8
ENDMDL
MODEL 7
REMARK VINA RESULT:      -9.6      9.417     15.288
REMARK  Name = 448942
REMARK  8 active torsions:
REMARK  status: ('A' for Active; 'I' for Inactive)
REMARK    1  A    between atoms: C_2  and  C_20
REMARK    2  A    between atoms: C_3  and  C_6
REMARK    3  A    between atoms: C_7  and  C_13
REMARK    4  A    between atoms: N_19  and  C_22
REMARK    5  A    between atoms: C_22  and  C_23
REMARK    6  A    between atoms: C_22  and  C_29
REMARK    7  A    between atoms: C_29  and  C_31
REMARK    8  A    between atoms: C_31  and  O_32
REMARK                            x       y       z     vdW  Elec       q    Type
REMARK                         _______ _______ _______ _____ _____    ______ ____
ROOT
ATOM      1  S   UNL     1      33.836 -11.327 -25.533  0.00  0.00    -0.082 S 
ATOM      2  C   UNL     1      33.611 -10.981 -23.891  0.00  0.00    +0.083 C 
ATOM      3  C   UNL     1      34.268 -13.166 -23.790  0.00  0.00    +0.007 C 
ATOM      4  C   UNL     1      33.864 -12.013 -23.056  0.00  0.00    +0.012 C 
ATOM      5  C   UNL     1      34.295 -12.932 -25.147  0.00  0.00    +0.036 C 
ENDROOT
BRANCH   3   6
ATOM      6  C   UNL     1      34.621 -14.454 -23.257  0.00  0.00    +0.001 C 
ATOM      7  C   UNL     1      35.303 -16.951 -22.221  0.00  0.00    +0.000 C 
ATOM      8  C   UNL     1      34.979 -15.489 -24.117  0.00  0.00    +0.000 C 
ATOM      9  C   UNL     1      34.603 -14.664 -21.878  0.00  0.00    +0.000 C 
ATOM     10  C   UNL     1      35.320 -16.739 -23.600  0.00  0.00    +0.000 C 
ATOM     11  C   UNL     1      34.944 -15.914 -21.361  0.00  0.00    +0.000 C 
BRANCH   7  13
ATOM     12  N   UNL     1      36.335 -20.751 -20.644  0.00  0.00    -0.242 NA
ATOM     13  C   UNL     1      35.655 -18.246 -21.684  0.00  0.00    +0.003 C 
ATOM     14  C   UNL     1      34.671 -19.207 -21.477  0.00  0.00    +0.021 C 
ATOM     15  C   UNL     1      36.979 -18.537 -21.371  0.00  0.00    +0.021 C 
ATOM     16  C   UNL     1      35.059 -20.432 -20.960  0.00  0.00    +0.099 C 
ATOM     17  C   UNL     1      37.263 -19.792 -20.858  0.00  0.00    +0.099 C 
ENDBRANCH   7  13
ENDBRANCH   3   6
BRANCH   2  20
ATOM     18  O   UNL     1      31.999  -9.266 -23.625  0.00  0.00    -0.270 OA
ATOM     19  N   UNL     1      34.177  -8.764 -23.098  0.00  0.00    -0.298 N 
ATOM     20  C   UNL     1      33.174  -9.627 -23.529  0.00  0.00    +0.252 C 
ATOM     21  H   UNL     1      35.101  -9.099 -23.039  0.00  0.00    +0.150 HD
BRANCH  19  22
ATOM     22  C   UNL     1      33.907  -7.389 -22.737  0.00  0.00    +0.105 C 
BRANCH  22  23
ATOM     23  C   UNL     1      33.890  -6.517 -23.977  0.00  0.00    -0.004 C 
ATOM     24  C   UNL     1      32.743  -5.810 -24.286  0.00  0.00    -0.003 C 
ATOM     25  C   UNL     1      35.022  -6.450 -24.768  0.00  0.00    -0.003 C 
ATOM     26  C   UNL     1      32.727  -5.008 -25.427  0.00  0.00    -0.000 C 
ATOM     27  C   UNL     1      35.006  -5.649 -25.909  0.00  0.00    -0.000 C 
ATOM     28  C   UNL     1      33.858  -4.928 -26.239  0.00  0.00    -0.000 C 
ENDBRANCH  22  23
BRANCH  22  29
ATOM     29  C   UNL     1      32.615  -7.302 -21.905  0.00  0.00    +0.133 C 
BRANCH  29  31
ATOM     30  O   UNL     1      32.129  -8.571 -19.880  0.00  0.00    -0.250 OA
ATOM     31  C   UNL     1      32.798  -7.731 -20.465  0.00  0.00    +0.316 C 
BRANCH  31  32
ATOM     32  O   UNL     1      33.804  -7.039 -19.865  0.00  0.00    -0.480 OA
ATOM     33  H   UNL     1      34.688  -7.338 -19.943  0.00  0.00    +0.295 HD
ENDBRANCH  31  32
ENDBRANCH  29  31
ENDBRANCH  22  29
ENDBRANCH  19  22
ENDBRANCH   2  20
TORSDOF 8
ENDMDL
MODEL 8
REMARK VINA RESULT:      -9.6      6.638     12.331
REMARK  Name = 448942
REMARK  8 active torsions:
REMARK  status: ('A' for Active; 'I' for Inactive)
REMARK    1  A    between atoms: C_2  and  C_20
REMARK    2  A    between atoms: C_3  and  C_6
REMARK    3  A    between atoms: C_7  and  C_13
REMARK    4  A    between atoms: N_19  and  C_22
REMARK    5  A    between atoms: C_22  and  C_23
REMARK    6  A    between atoms: C_22  and  C_29
REMARK    7  A    between atoms: C_29  and  C_31
REMARK    8  A    between atoms: C_31  and  O_32
REMARK                            x       y       z     vdW  Elec       q    Type
REMARK                         _______ _______ _______ _____ _____    ______ ____
ROOT
ATOM      1  S   UNL     1      34.979 -18.151 -25.063  0.00  0.00    -0.082 S 
ATOM      2  C   UNL     1      34.756 -16.981 -23.861  0.00  0.00    +0.083 C 
ATOM      3  C   UNL     1      35.256 -18.815 -22.597  0.00  0.00    +0.007 C 
ATOM      4  C   UNL     1      34.924 -17.429 -22.598  0.00  0.00    +0.012 C 
ATOM      5  C   UNL     1      35.318 -19.333 -23.871  0.00  0.00    +0.036 C 
ENDROOT
BRANCH   3   6
ATOM      6  C   UNL     1      35.510 -19.645 -21.450  0.00  0.00    +0.001 C 
ATOM      7  C   UNL     1      36.003 -21.252 -19.226  0.00  0.00    +0.000 C 
ATOM      8  C   UNL     1      34.481 -20.409 -20.903  0.00  0.00    +0.000 C 
ATOM      9  C   UNL     1      36.785 -19.682 -20.887  0.00  0.00    +0.000 C 
ATOM     10  C   UNL     1      34.727 -21.214 -19.790  0.00  0.00    +0.000 C 
ATOM     11  C   UNL     1      37.031 -20.486 -19.774  0.00  0.00    +0.000 C 
BRANCH   7  13
ATOM     12  N   UNL     1      36.747 -23.693 -15.838  0.00  0.00    -0.242 NA
ATOM     13  C   UNL     1      36.257 -22.085 -18.071  0.00  0.00    +0.003 C 
ATOM     14  C   UNL     1      35.237 -22.860 -17.532  0.00  0.00    +0.021 C 
ATOM     15  C   UNL     1      37.522 -22.113 -17.494  0.00  0.00    +0.021 C 
ATOM     16  C   UNL     1      35.530 -23.640 -16.425  0.00  0.00    +0.099 C 
ATOM     17  C   UNL     1      37.714 -22.925 -16.389  0.00  0.00    +0.099 C 
ENDBRANCH   7  13
ENDBRANCH   3   6
BRANCH   2  20
ATOM     18  O   UNL     1      34.585 -15.224 -25.441  0.00  0.00    -0.270 OA
ATOM     19  N   UNL     1      33.900 -14.787 -23.292  0.00  0.00    -0.298 N 
ATOM     20  C   UNL     1      34.410 -15.618 -24.286  0.00  0.00    +0.252 C 
ATOM     21  H   UNL     1      33.779 -15.149 -22.385  0.00  0.00    +0.150 HD
BRANCH  19  22
ATOM     22  C   UNL     1      33.542 -13.409 -23.551  0.00  0.00    +0.105 C 
BRANCH  22  23
ATOM     23  C   UNL     1      32.808 -12.828 -22.358  0.00  0.00    -0.004 C 
ATOM     24  C   UNL     1      32.213 -11.585 -22.475  0.00  0.00    -0.003 C 
ATOM     25  C   UNL     1      32.752 -13.554 -21.183  0.00  0.00    -0.003 C 
ATOM     26  C   UNL     1      31.538 -11.050 -21.378  0.00  0.00    -0.000 C 
ATOM     27  C   UNL     1      32.078 -13.020 -20.086  0.00  0.00    -0.000 C 
ATOM     28  C   UNL     1      31.471 -11.767 -20.183  0.00  0.00    -0.000 C 
ENDBRANCH  22  23
BRANCH  22  29
ATOM     29  C   UNL     1      34.788 -12.604 -23.959  0.00  0.00    +0.133 C 
BRANCH  29  31
ATOM     30  O   UNL     1      33.876 -12.078 -26.159  0.00  0.00    -0.250 OA
ATOM     31  C   UNL     1      34.582 -11.773 -25.208  0.00  0.00    +0.316 C 
BRANCH  31  32
ATOM     32  O   UNL     1      35.312 -10.626 -25.168  0.00  0.00    -0.480 OA
ATOM     33  H   UNL     1      36.174 -10.633 -24.802  0.00  0.00    +0.295 HD
ENDBRANCH  31  32
ENDBRANCH  29  31
ENDBRANCH  22  29
ENDBRANCH  19  22
ENDBRANCH   2  20
TORSDOF 8
ENDMDL
MODEL 9
REMARK VINA RESULT:      -9.6      5.413     11.859
REMARK  Name = 448942
REMARK  8 active torsions:
REMARK  status: ('A' for Active; 'I' for Inactive)
REMARK    1  A    between atoms: C_2  and  C_20
REMARK    2  A    between atoms: C_3  and  C_6
REMARK    3  A    between atoms: C_7  and  C_13
REMARK    4  A    between atoms: N_19  and  C_22
REMARK    5  A    between atoms: C_22  and  C_23
REMARK    6  A    between atoms: C_22  and  C_29
REMARK    7  A    between atoms: C_29  and  C_31
REMARK    8  A    between atoms: C_31  and  O_32
REMARK                            x       y       z     vdW  Elec       q    Type
REMARK                         _______ _______ _______ _____ _____    ______ ____
ROOT
ATOM      1  S   UNL     1      35.322 -18.525 -24.253  0.00  0.00    -0.082 S 
ATOM      2  C   UNL     1      35.249 -17.383 -23.005  0.00  0.00    +0.083 C 
ATOM      3  C   UNL     1      35.306 -19.330 -21.813  0.00  0.00    +0.007 C 
ATOM      4  C   UNL     1      35.246 -17.907 -21.759  0.00  0.00    +0.012 C 
ATOM      5  C   UNL     1      35.351 -19.797 -23.107  0.00  0.00    +0.036 C 
ENDROOT
BRANCH   3   6
ATOM      6  C   UNL     1      35.322 -20.240 -20.699  0.00  0.00    +0.001 C 
ATOM      7  C   UNL     1      35.353 -22.002 -18.538  0.00  0.00    +0.000 C 
ATOM      8  C   UNL     1      34.139 -20.843 -20.277  0.00  0.00    +0.000 C 
ATOM      9  C   UNL     1      36.521 -20.515 -20.042  0.00  0.00    +0.000 C 
ATOM     10  C   UNL     1      34.153 -21.725 -19.196  0.00  0.00    +0.000 C 
ATOM     11  C   UNL     1      36.536 -21.396 -18.961  0.00  0.00    +0.000 C 
BRANCH   7  13
ATOM     12  N   UNL     1      35.396 -24.677 -15.247  0.00  0.00    -0.242 NA
ATOM     13  C   UNL     1      35.368 -22.914 -17.417  0.00  0.00    +0.003 C 
ATOM     14  C   UNL     1      34.233 -23.653 -17.104  0.00  0.00    +0.021 C 
ATOM     15  C   UNL     1      36.517 -23.055 -16.646  0.00  0.00    +0.021 C 
ATOM     16  C   UNL     1      34.297 -24.513 -16.019  0.00  0.00    +0.099 C 
ATOM     17  C   UNL     1      36.479 -23.941 -15.582  0.00  0.00    +0.099 C 
ENDBRANCH   7  13
ENDBRANCH   3   6
BRANCH   2  20
ATOM     18  O   UNL     1      36.083 -15.425 -24.044  0.00  0.00    -0.270 OA
ATOM     19  N   UNL     1      34.099 -15.254 -22.899  0.00  0.00    -0.298 N 
ATOM     20  C   UNL     1      35.198 -15.963 -23.376  0.00  0.00    +0.252 C 
ATOM     21  H   UNL     1      33.419 -15.729 -22.370  0.00  0.00    +0.150 HD
BRANCH  19  22
ATOM     22  C   UNL     1      33.926 -13.841 -23.156  0.00  0.00    +0.105 C 
BRANCH  22  23
ATOM     23  C   UNL     1      33.847 -13.588 -24.649  0.00  0.00    -0.004 C 
ATOM     24  C   UNL     1      33.397 -14.598 -25.479  0.00  0.00    -0.003 C 
ATOM     25  C   UNL     1      34.226 -12.354 -25.144  0.00  0.00    -0.003 C 
ATOM     26  C   UNL     1      33.324 -14.366 -26.853  0.00  0.00    -0.000 C 
ATOM     27  C   UNL     1      34.154 -12.122 -26.517  0.00  0.00    -0.000 C 
ATOM     28  C   UNL     1      33.704 -13.129 -27.372  0.00  0.00    -0.000 C 
ENDBRANCH  22  23
BRANCH  22  29
ATOM     29  C   UNL     1      32.715 -13.303 -22.375  0.00  0.00    +0.133 C 
BRANCH  29  31
ATOM     30  O   UNL     1      32.969 -14.617 -20.337  0.00  0.00    -0.250 OA
ATOM     31  C   UNL     1      32.813 -13.533 -20.882  0.00  0.00    +0.316 C 
BRANCH  31  32
ATOM     32  O   UNL     1      32.678 -12.371 -20.190  0.00  0.00    -0.480 OA
ATOM     33  H   UNL     1      33.390 -12.050 -19.672  0.00  0.00    +0.295 HD
ENDBRANCH  31  32
ENDBRANCH  29  31
ENDBRANCH  22  29
ENDBRANCH  19  22
ENDBRANCH   2  20
TORSDOF 8
ENDMDL
