MODEL 1
REMARK VINA RESULT:     -11.2      0.000      0.000
REMARK  Name = 8969
REMARK  3 active torsions:
REMARK  status: ('A' for Active; 'I' for Inactive)
REMARK    1  A    between atoms: C_7  and  C_27
REMARK    2  A    between atoms: C_10  and  O_24
REMARK    3  A    between atoms: C_27  and  O_28
REMARK                            x       y       z     vdW  Elec       q    Type
REMARK                         _______ _______ _______ _____ _____    ______ ____
ROOT
ATOM      1  N   UNL     1      34.544 -23.196 -16.406  0.00  0.00    +0.392 N 
ATOM      2  N   UNL     1      33.494 -21.790 -19.712  0.00  0.00    -0.358 N 
ATOM      3  C   UNL     1      31.707 -23.838 -16.073  0.00  0.00    +0.009 C 
ATOM      4  C   UNL     1      32.713 -23.866 -14.903  0.00  0.00    -0.020 C 
ATOM      5  C   UNL     1      32.207 -22.853 -17.146  0.00  0.00    -0.015 C 
ATOM      6  C   UNL     1      33.637 -23.211 -17.587  0.00  0.00    -0.019 C 
ATOM      7  C   UNL     1      30.299 -23.488 -15.552  0.00  0.00    +0.126 C 
ATOM      8  C   UNL     1      34.129 -24.189 -15.407  0.00  0.00    -0.077 C 
ATOM      9  C   UNL     1      32.269 -24.852 -13.816  0.00  0.00    +0.000 C 
ATOM     10  C   UNL     1      29.845 -24.465 -14.453  0.00  0.00    +0.121 C 
ATOM     11  C   UNL     1      30.862 -24.523 -13.312  0.00  0.00    +0.030 C 
ATOM     12  C   UNL     1      34.170 -22.276 -18.628  0.00  0.00    +0.010 A 
ATOM     13  C   UNL     1      35.958 -23.379 -16.797  0.00  0.00    -0.072 C 
ATOM     14  C   UNL     1      35.469 -21.816 -18.686  0.00  0.00    -0.013 A 
ATOM     15  C   UNL     1      36.464 -22.188 -17.644  0.00  0.00    +0.005 C 
ATOM     16  C   UNL     1      35.584 -20.989 -19.835  0.00  0.00    +0.013 A 
ATOM     17  C   UNL     1      34.332 -20.989 -20.461  0.00  0.00    +0.056 A 
ATOM     18  C   UNL     1      36.629 -20.240 -20.412  0.00  0.00    +0.001 C 
ATOM     19  C   UNL     1      34.078 -20.275 -21.638  0.00  0.00    +0.017 C 
ATOM     20  C   UNL     1      36.387 -19.520 -21.588  0.00  0.00    +0.000 C 
ATOM     21  C   UNL     1      35.131 -19.539 -22.190  0.00  0.00    +0.001 C 
ATOM     22  H   UNL     1      34.470 -22.273 -15.978  0.00  0.00    -0.079 HD
ATOM     23  H   UNL     1      32.553 -21.981 -19.927  0.00  0.00    +0.166 HD
ENDROOT
BRANCH  10  24
ATOM     24  O   UNL     1      29.698 -25.775 -15.004  0.00  0.00    -0.384 OA
ATOM     25  H   UNL     1      29.975 -25.768 -15.934  0.00  0.00    +0.210 HD
ENDBRANCH  10  24
BRANCH   7  27
ATOM     26  O   UNL     1      29.020 -24.487 -17.335  0.00  0.00    -0.250 OA
ATOM     27  C   UNL     1      29.285 -23.501 -16.660  0.00  0.00    +0.319 C 
BRANCH  27  28
ATOM     28  O   UNL     1      28.727 -22.263 -16.780  0.00  0.00    -0.444 OA
ATOM     29  C   UNL     1      27.302 -22.241 -16.911  0.00  0.00    +0.256 C 
ENDBRANCH  27  28
ENDBRANCH   7  27
TORSDOF 3
ENDMDL
MODEL 2
REMARK VINA RESULT:      -9.0     12.234     15.346
REMARK  Name = 8969
REMARK  3 active torsions:
REMARK  status: ('A' for Active; 'I' for Inactive)
REMARK    1  A    between atoms: C_7  and  C_27
REMARK    2  A    between atoms: C_10  and  O_24
REMARK    3  A    between atoms: C_27  and  O_28
REMARK                            x       y       z     vdW  Elec       q    Type
REMARK                         _______ _______ _______ _____ _____    ______ ____
ROOT
ATOM      1  N   UNL     1      32.137  -8.441 -21.376  0.00  0.00    +0.392 N 
ATOM      2  N   UNL     1      33.600  -7.068 -24.536  0.00  0.00    -0.358 N 
ATOM      3  C   UNL     1      33.119 -11.021 -22.351  0.00  0.00    +0.009 C 
ATOM      4  C   UNL     1      32.103 -10.896 -21.195  0.00  0.00    -0.020 C 
ATOM      5  C   UNL     1      32.999  -9.787 -23.265  0.00  0.00    -0.015 C 
ATOM      6  C   UNL     1      33.165  -8.492 -22.453  0.00  0.00    -0.019 C 
ATOM      7  C   UNL     1      32.902 -12.347 -23.106  0.00  0.00    +0.126 C 
ATOM      8  C   UNL     1      32.288  -9.567 -20.446  0.00  0.00    -0.077 C 
ATOM      9  C   UNL     1      32.199 -12.093 -20.242  0.00  0.00    +0.000 C 
ATOM     10  C   UNL     1      32.986 -13.556 -22.158  0.00  0.00    +0.121 C 
ATOM     11  C   UNL     1      32.008 -13.414 -20.991  0.00  0.00    +0.030 C 
ATOM     12  C   UNL     1      33.050  -7.262 -23.300  0.00  0.00    +0.010 A 
ATOM     13  C   UNL     1      32.149  -7.145 -20.665  0.00  0.00    -0.072 C 
ATOM     14  C   UNL     1      32.421  -6.096 -22.918  0.00  0.00    -0.013 A 
ATOM     15  C   UNL     1      31.734  -5.986 -21.603  0.00  0.00    +0.005 C 
ATOM     16  C   UNL     1      32.564  -5.160 -23.978  0.00  0.00    +0.013 A 
ATOM     17  C   UNL     1      33.307  -5.795 -24.980  0.00  0.00    +0.056 A 
ATOM     18  C   UNL     1      32.140  -3.833 -24.187  0.00  0.00    +0.001 C 
ATOM     19  C   UNL     1      33.646  -5.162 -26.182  0.00  0.00    +0.017 C 
ATOM     20  C   UNL     1      32.471  -3.190 -25.386  0.00  0.00    +0.000 C 
ATOM     21  C   UNL     1      33.213  -3.846 -26.366  0.00  0.00    +0.001 C 
ATOM     22  H   UNL     1      31.224  -8.526 -21.823  0.00  0.00    -0.079 HD
ATOM     23  H   UNL     1      34.125  -7.735 -25.035  0.00  0.00    +0.166 HD
ENDROOT
BRANCH  10  24
ATOM     24  O   UNL     1      34.311 -13.666 -21.635  0.00  0.00    -0.384 OA
ATOM     25  H   UNL     1      34.530 -14.600 -21.498  0.00  0.00    +0.210 HD
ENDBRANCH  10  24
BRANCH   7  27
ATOM     26  O   UNL     1      34.523 -11.602 -24.727  0.00  0.00    -0.250 OA
ATOM     27  C   UNL     1      33.908 -12.524 -24.207  0.00  0.00    +0.319 C 
BRANCH  27  28
ATOM     28  O   UNL     1      34.015 -13.846 -24.519  0.00  0.00    -0.444 OA
ATOM     29  C   UNL     1      33.540 -14.212 -25.818  0.00  0.00    +0.256 C 
ENDBRANCH  27  28
ENDBRANCH   7  27
TORSDOF 3
ENDMDL
MODEL 3
REMARK VINA RESULT:      -9.0      1.355      1.884
REMARK  Name = 8969
REMARK  3 active torsions:
REMARK  status: ('A' for Active; 'I' for Inactive)
REMARK    1  A    between atoms: C_7  and  C_27
REMARK    2  A    between atoms: C_10  and  O_24
REMARK    3  A    between atoms: C_27  and  O_28
REMARK                            x       y       z     vdW  Elec       q    Type
REMARK                         _______ _______ _______ _____ _____    ______ ____
ROOT
ATOM      1  N   UNL     1      36.182 -22.489 -16.679  0.00  0.00    +0.392 N 
ATOM      2  N   UNL     1      34.478 -21.515 -19.866  0.00  0.00    -0.358 N 
ATOM      3  C   UNL     1      33.580 -23.607 -15.936  0.00  0.00    +0.009 C 
ATOM      4  C   UNL     1      34.715 -23.377 -14.914  0.00  0.00    -0.020 C 
ATOM      5  C   UNL     1      33.748 -22.620 -17.107  0.00  0.00    -0.015 C 
ATOM      6  C   UNL     1      35.151 -22.744 -17.723  0.00  0.00    -0.019 C 
ATOM      7  C   UNL     1      32.210 -23.483 -15.242  0.00  0.00    +0.126 C 
ATOM      8  C   UNL     1      36.090 -23.472 -15.593  0.00  0.00    -0.077 C 
ATOM      9  C   UNL     1      34.604 -24.354 -13.737  0.00  0.00    +0.000 C 
ATOM     10  C   UNL     1      32.089 -24.451 -14.052  0.00  0.00    +0.121 C 
ATOM     11  C   UNL     1      33.235 -24.251 -13.059  0.00  0.00    +0.030 C 
ATOM     12  C   UNL     1      35.364 -21.798 -18.866  0.00  0.00    +0.010 A 
ATOM     13  C   UNL     1      37.545 -22.440 -17.252  0.00  0.00    -0.072 C 
ATOM     14  C   UNL     1      36.536 -21.117 -19.119  0.00  0.00    -0.013 A 
ATOM     15  C   UNL     1      37.708 -21.235 -18.209  0.00  0.00    +0.005 C 
ATOM     16  C   UNL     1      36.348 -20.360 -20.307  0.00  0.00    +0.013 A 
ATOM     17  C   UNL     1      35.050 -20.627 -20.754  0.00  0.00    +0.056 A 
ATOM     18  C   UNL     1      37.153 -19.476 -21.051  0.00  0.00    +0.001 C 
ATOM     19  C   UNL     1      34.519 -20.049 -21.914  0.00  0.00    +0.017 C 
ATOM     20  C   UNL     1      36.633 -18.890 -22.212  0.00  0.00    +0.000 C 
ATOM     21  C   UNL     1      35.337 -19.174 -22.634  0.00  0.00    +0.001 C 
ATOM     22  H   UNL     1      35.992 -21.568 -16.283  0.00  0.00    -0.079 HD
ATOM     23  H   UNL     1      33.569 -21.886 -19.942  0.00  0.00    +0.166 HD
ENDROOT
BRANCH  10  24
ATOM     24  O   UNL     1      32.121 -25.799 -14.524  0.00  0.00    -0.384 OA
ATOM     25  H   UNL     1      33.042 -26.083 -14.632  0.00  0.00    +0.210 HD
ENDBRANCH  10  24
BRANCH   7  27
ATOM     26  O   UNL     1      30.842 -23.061 -17.182  0.00  0.00    -0.250 OA
ATOM     27  C   UNL     1      31.084 -23.750 -16.199  0.00  0.00    +0.319 C 
BRANCH  27  28
ATOM     28  O   UNL     1      30.398 -24.858 -15.798  0.00  0.00    -0.444 OA
ATOM     29  C   UNL     1      28.972 -24.745 -15.835  0.00  0.00    +0.256 C 
ENDBRANCH  27  28
ENDBRANCH   7  27
TORSDOF 3
ENDMDL
