MODEL 1
REMARK VINA RESULT:     -12.0      0.000      0.000
REMARK  Name = 44129603
REMARK  3 active torsions:
REMARK  status: ('A' for Active; 'I' for Inactive)
REMARK    1  A    between atoms: N_5  and  C_17
REMARK    2  A    between atoms: C_12  and  C_24
REMARK    3  A    between atoms: C_24  and  O_25
REMARK                            x       y       z     vdW  Elec       q    Type
REMARK                         _______ _______ _______ _____ _____    ______ ____
ROOT
ATOM      1  N   UNL     1      36.880 -23.073 -15.321  0.00  0.00    -0.246 N 
ATOM      2  N   UNL     1      37.853 -23.163 -14.392  0.00  0.00    -0.163 NA
ATOM      3  N   UNL     1      34.289 -22.966 -16.764  0.00  0.00    -0.336 NA
ATOM      4  N   UNL     1      31.973 -23.651 -16.789  0.00  0.00    -0.170 NA
ATOM      5  N   UNL     1      32.906 -22.472 -18.593  0.00  0.00    -0.247 N 
ATOM      6  C   UNL     1      34.711 -24.278 -12.693  0.00  0.00    +0.035 C 
ATOM      7  C   UNL     1      35.842 -23.827 -13.547  0.00  0.00    +0.024 A 
ATOM      8  C   UNL     1      33.553 -24.860 -13.548  0.00  0.00    +0.035 C 
ATOM      9  C   UNL     1      35.660 -23.466 -14.863  0.00  0.00    +0.106 A 
ATOM     10  C   UNL     1      33.342 -24.170 -14.879  0.00  0.00    +0.030 C 
ATOM     11  C   UNL     1      34.390 -23.533 -15.548  0.00  0.00    +0.158 C 
ATOM     12  C   UNL     1      37.211 -23.620 -13.309  0.00  0.00    +0.174 A 
ATOM     13  C   UNL     1      32.146 -24.205 -15.569  0.00  0.00    +0.110 C 
ATOM     14  C   UNL     1      37.221 -22.569 -16.632  0.00  0.00    +0.154 C 
ATOM     15  C   UNL     1      33.065 -23.059 -17.318  0.00  0.00    +0.149 C 
ATOM     16  H   UNL     1      31.997 -22.562 -18.959  0.00  0.00    +0.165 HD
ENDROOT
BRANCH   5  17
ATOM     17  C   UNL     1      33.792 -21.784 -19.441  0.00  0.00    +0.058 C 
ATOM     18  C   UNL     1      33.318 -20.761 -20.262  0.00  0.00    +0.015 C 
ATOM     19  C   UNL     1      35.144 -22.124 -19.461  0.00  0.00    +0.015 C 
ATOM     20  C   UNL     1      34.197 -20.077 -21.103  0.00  0.00    +0.001 C 
ATOM     21  C   UNL     1      36.023 -21.440 -20.302  0.00  0.00    +0.001 C 
ATOM     22  C   UNL     1      35.549 -20.418 -21.123  0.00  0.00    +0.000 C 
ENDBRANCH   5  17
BRANCH  12  24
ATOM     23  O   UNL     1      37.902 -24.881 -11.398  0.00  0.00    -0.243 OA
ATOM     24  C   UNL     1      37.940 -23.848 -12.094  0.00  0.00    +0.357 C 
BRANCH  24  25
ATOM     25  O   UNL     1      38.727 -22.789 -11.730  0.00  0.00    -0.476 OA
ATOM     26  H   UNL     1      39.624 -22.930 -11.497  0.00  0.00    +0.295 HD
ENDBRANCH  24  25
ENDBRANCH  12  24
TORSDOF 3
ENDMDL
MODEL 2
REMARK VINA RESULT:     -10.6     10.783     13.766
REMARK  Name = 44129603
REMARK  3 active torsions:
REMARK  status: ('A' for Active; 'I' for Inactive)
REMARK    1  A    between atoms: N_5  and  C_17
REMARK    2  A    between atoms: C_12  and  C_24
REMARK    3  A    between atoms: C_24  and  O_25
REMARK                            x       y       z     vdW  Elec       q    Type
REMARK                         _______ _______ _______ _____ _____    ______ ____
ROOT
ATOM      1  N   UNL     1      34.052 -12.707 -23.697  0.00  0.00    -0.246 N 
ATOM      2  N   UNL     1      34.712 -13.761 -24.219  0.00  0.00    -0.163 NA
ATOM      3  N   UNL     1      32.672 -10.783 -21.908  0.00  0.00    -0.336 NA
ATOM      4  N   UNL     1      31.390 -10.487 -19.883  0.00  0.00    -0.170 NA
ATOM      5  N   UNL     1      31.797  -8.685 -21.332  0.00  0.00    -0.247 N 
ATOM      6  C   UNL     1      33.636 -14.822 -20.796  0.00  0.00    +0.035 C 
ATOM      7  C   UNL     1      33.950 -14.222 -22.121  0.00  0.00    +0.024 A 
ATOM      8  C   UNL     1      32.398 -14.144 -20.147  0.00  0.00    +0.035 C 
ATOM      9  C   UNL     1      33.572 -12.939 -22.446  0.00  0.00    +0.106 A 
ATOM     10  C   UNL     1      32.278 -12.660 -20.417  0.00  0.00    +0.030 C 
ATOM     11  C   UNL     1      32.807 -12.079 -21.572  0.00  0.00    +0.158 C 
ATOM     12  C   UNL     1      34.649 -14.682 -23.249  0.00  0.00    +0.174 A 
ATOM     13  C   UNL     1      31.560 -11.799 -19.609  0.00  0.00    +0.110 C 
ATOM     14  C   UNL     1      33.954 -11.497 -24.482  0.00  0.00    +0.154 C 
ATOM     15  C   UNL     1      31.961 -10.054 -21.027  0.00  0.00    +0.149 C 
ATOM     16  H   UNL     1      31.274  -8.190 -20.661  0.00  0.00    +0.165 HD
ENDROOT
BRANCH   5  17
ATOM     17  C   UNL     1      32.236  -7.890 -22.406  0.00  0.00    +0.058 C 
ATOM     18  C   UNL     1      31.380  -7.629 -23.476  0.00  0.00    +0.015 C 
ATOM     19  C   UNL     1      33.527  -7.361 -22.399  0.00  0.00    +0.015 C 
ATOM     20  C   UNL     1      31.815  -6.839 -24.541  0.00  0.00    +0.001 C 
ATOM     21  C   UNL     1      33.961  -6.570 -23.464  0.00  0.00    +0.001 C 
ATOM     22  C   UNL     1      33.106  -6.310 -24.534  0.00  0.00    +0.000 C 
ENDBRANCH   5  17
BRANCH  12  24
ATOM     23  O   UNL     1      35.449 -16.832 -22.573  0.00  0.00    -0.243 OA
ATOM     24  C   UNL     1      35.255 -15.967 -23.448  0.00  0.00    +0.357 C 
BRANCH  24  25
ATOM     25  O   UNL     1      35.630 -16.192 -24.746  0.00  0.00    -0.476 OA
ATOM     26  H   UNL     1      35.266 -16.914 -25.220  0.00  0.00    +0.295 HD
ENDBRANCH  24  25
ENDBRANCH  12  24
TORSDOF 3
ENDMDL
MODEL 3
REMARK VINA RESULT:      -9.9      3.624      6.702
REMARK  Name = 44129603
REMARK  3 active torsions:
REMARK  status: ('A' for Active; 'I' for Inactive)
REMARK    1  A    between atoms: N_5  and  C_17
REMARK    2  A    between atoms: C_12  and  C_24
REMARK    3  A    between atoms: C_24  and  O_25
REMARK                            x       y       z     vdW  Elec       q    Type
REMARK                         _______ _______ _______ _____ _____    ______ ____
ROOT
ATOM      1  N   UNL     1      36.736 -21.793 -18.193  0.00  0.00    -0.246 N 
ATOM      2  N   UNL     1      37.076 -20.994 -19.225  0.00  0.00    -0.163 NA
ATOM      3  N   UNL     1      35.368 -23.666 -16.342  0.00  0.00    -0.336 NA
ATOM      4  N   UNL     1      33.254 -24.549 -15.576  0.00  0.00    -0.170 NA
ATOM      5  N   UNL     1      35.269 -25.159 -14.537  0.00  0.00    -0.247 N 
ATOM      6  C   UNL     1      33.453 -21.797 -19.706  0.00  0.00    +0.035 C 
ATOM      7  C   UNL     1      34.876 -21.582 -19.329  0.00  0.00    +0.024 A 
ATOM      8  C   UNL     1      32.590 -22.174 -18.472  0.00  0.00    +0.035 C 
ATOM      9  C   UNL     1      35.427 -22.164 -18.209  0.00  0.00    +0.106 A 
ATOM     10  C   UNL     1      33.298 -23.033 -17.445  0.00  0.00    +0.030 C 
ATOM     11  C   UNL     1      34.685 -22.986 -17.282  0.00  0.00    +0.158 C 
ATOM     12  C   UNL     1      35.936 -20.873 -19.918  0.00  0.00    +0.174 A 
ATOM     13  C   UNL     1      32.632 -23.835 -16.540  0.00  0.00    +0.110 C 
ATOM     14  C   UNL     1      37.758 -22.166 -17.243  0.00  0.00    +0.154 C 
ATOM     15  C   UNL     1      34.597 -24.420 -15.535  0.00  0.00    +0.149 C 
ATOM     16  H   UNL     1      34.669 -25.697 -13.971  0.00  0.00    +0.165 HD
ENDROOT
BRANCH   5  17
ATOM     17  C   UNL     1      36.627 -25.277 -14.191  0.00  0.00    +0.058 C 
ATOM     18  C   UNL     1      37.124 -24.607 -13.074  0.00  0.00    +0.015 C 
ATOM     19  C   UNL     1      37.477 -26.066 -14.966  0.00  0.00    +0.015 C 
ATOM     20  C   UNL     1      38.471 -24.726 -12.730  0.00  0.00    +0.001 C 
ATOM     21  C   UNL     1      38.824 -26.185 -14.623  0.00  0.00    +0.001 C 
ATOM     22  C   UNL     1      39.321 -25.515 -13.506  0.00  0.00    +0.000 C 
ENDBRANCH   5  17
BRANCH  12  24
ATOM     23  O   UNL     1      35.133 -20.219 -22.073  0.00  0.00    -0.243 OA
ATOM     24  C   UNL     1      35.910 -20.075 -21.110  0.00  0.00    +0.357 C 
BRANCH  24  25
ATOM     25  O   UNL     1      36.854 -19.084 -21.117  0.00  0.00    -0.476 OA
ATOM     26  H   UNL     1      37.554 -19.099 -20.494  0.00  0.00    +0.295 HD
ENDBRANCH  24  25
ENDBRANCH  12  24
TORSDOF 3
ENDMDL
MODEL 4
REMARK VINA RESULT:      -9.8      3.521      6.992
REMARK  Name = 44129603
REMARK  3 active torsions:
REMARK  status: ('A' for Active; 'I' for Inactive)
REMARK    1  A    between atoms: N_5  and  C_17
REMARK    2  A    between atoms: C_12  and  C_24
REMARK    3  A    between atoms: C_24  and  O_25
REMARK                            x       y       z     vdW  Elec       q    Type
REMARK                         _______ _______ _______ _____ _____    ______ ____
ROOT
ATOM      1  N   UNL     1      32.750 -24.028 -15.507  0.00  0.00    -0.246 N 
ATOM      2  N   UNL     1      31.405 -24.100 -15.447  0.00  0.00    -0.163 NA
ATOM      3  N   UNL     1      35.562 -23.321 -16.140  0.00  0.00    -0.336 NA
ATOM      4  N   UNL     1      37.087 -22.421 -17.783  0.00  0.00    -0.170 NA
ATOM      5  N   UNL     1      37.874 -23.296 -15.752  0.00  0.00    -0.247 N 
ATOM      6  C   UNL     1      32.182 -21.991 -18.439  0.00  0.00    +0.035 C 
ATOM      7  C   UNL     1      32.084 -22.861 -17.236  0.00  0.00    +0.024 A 
ATOM      8  C   UNL     1      33.549 -22.166 -19.155  0.00  0.00    +0.035 C 
ATOM      9  C   UNL     1      33.203 -23.302 -16.565  0.00  0.00    +0.106 A 
ATOM     10  C   UNL     1      34.721 -22.406 -18.227  0.00  0.00    +0.030 C 
ATOM     11  C   UNL     1      34.557 -23.013 -16.980  0.00  0.00    +0.158 C 
ATOM     12  C   UNL     1      31.004 -23.381 -16.503  0.00  0.00    +0.174 A 
ATOM     13  C   UNL     1      36.030 -22.144 -18.579  0.00  0.00    +0.110 C 
ATOM     14  C   UNL     1      33.523 -24.680 -14.475  0.00  0.00    +0.154 C 
ATOM     15  C   UNL     1      36.786 -22.999 -16.601  0.00  0.00    +0.149 C 
ATOM     16  H   UNL     1      38.749 -23.042 -16.126  0.00  0.00    +0.165 HD
ENDROOT
BRANCH   5  17
ATOM     17  C   UNL     1      37.955 -23.883 -14.476  0.00  0.00    +0.058 C 
ATOM     18  C   UNL     1      37.509 -23.182 -13.356  0.00  0.00    +0.015 C 
ATOM     19  C   UNL     1      38.481 -25.167 -14.332  0.00  0.00    +0.015 C 
ATOM     20  C   UNL     1      37.588 -23.765 -12.091  0.00  0.00    +0.001 C 
ATOM     21  C   UNL     1      38.560 -25.750 -13.067  0.00  0.00    +0.001 C 
ATOM     22  C   UNL     1      38.114 -25.049 -11.947  0.00  0.00    +0.000 C 
ENDBRANCH   5  17
BRANCH  12  24
ATOM     23  O   UNL     1      29.037 -22.193 -17.165  0.00  0.00    -0.243 OA
ATOM     24  C   UNL     1      29.603 -23.231 -16.771  0.00  0.00    +0.357 C 
BRANCH  24  25
ATOM     25  O   UNL     1      28.886 -24.376 -16.551  0.00  0.00    -0.476 OA
ATOM     26  H   UNL     1      28.458 -24.510 -15.728  0.00  0.00    +0.295 HD
ENDBRANCH  24  25
ENDBRANCH  12  24
TORSDOF 3
ENDMDL
MODEL 5
REMARK VINA RESULT:      -9.5      2.574      4.407
REMARK  Name = 44129603
REMARK  3 active torsions:
REMARK  status: ('A' for Active; 'I' for Inactive)
REMARK    1  A    between atoms: N_5  and  C_17
REMARK    2  A    between atoms: C_12  and  C_24
REMARK    3  A    between atoms: C_24  and  O_25
REMARK                            x       y       z     vdW  Elec       q    Type
REMARK                         _______ _______ _______ _____ _____    ______ ____
ROOT
ATOM      1  N   UNL     1      32.607 -23.176 -16.722  0.00  0.00    -0.246 N 
ATOM      2  N   UNL     1      31.505 -23.753 -16.200  0.00  0.00    -0.163 NA
ATOM      3  N   UNL     1      35.384 -22.439 -17.463  0.00  0.00    -0.336 NA
ATOM      4  N   UNL     1      37.708 -22.442 -16.804  0.00  0.00    -0.170 NA
ATOM      5  N   UNL     1      37.011 -21.382 -18.779  0.00  0.00    -0.247 N 
ATOM      6  C   UNL     1      34.393 -25.117 -14.250  0.00  0.00    +0.035 C 
ATOM      7  C   UNL     1      33.389 -24.448 -15.120  0.00  0.00    +0.024 A 
ATOM      8  C   UNL     1      35.701 -24.286 -14.152  0.00  0.00    +0.035 C 
ATOM      9  C   UNL     1      33.757 -23.557 -16.102  0.00  0.00    +0.106 A 
ATOM     10  C   UNL     1      36.083 -23.557 -15.423  0.00  0.00    +0.030 C 
ATOM     11  C   UNL     1      35.122 -23.153 -16.353  0.00  0.00    +0.158 C 
ATOM     12  C   UNL     1      31.991 -24.532 -15.225  0.00  0.00    +0.174 A 
ATOM     13  C   UNL     1      37.373 -23.154 -15.705  0.00  0.00    +0.110 C 
ATOM     14  C   UNL     1      32.451 -22.278 -17.843  0.00  0.00    +0.154 C 
ATOM     15  C   UNL     1      36.684 -22.124 -17.624  0.00  0.00    +0.149 C 
ATOM     16  H   UNL     1      37.970 -21.175 -18.858  0.00  0.00    +0.165 HD
ENDROOT
BRANCH   5  17
ATOM     17  C   UNL     1      36.236 -20.879 -19.840  0.00  0.00    +0.058 C 
ATOM     18  C   UNL     1      34.908 -21.278 -19.984  0.00  0.00    +0.015 C 
ATOM     19  C   UNL     1      36.797 -19.981 -20.748  0.00  0.00    +0.015 C 
ATOM     20  C   UNL     1      34.138 -20.779 -21.035  0.00  0.00    +0.001 C 
ATOM     21  C   UNL     1      36.027 -19.481 -21.800  0.00  0.00    +0.001 C 
ATOM     22  C   UNL     1      34.699 -19.881 -21.943  0.00  0.00    +0.000 C 
ENDBRANCH   5  17
BRANCH  12  24
ATOM     23  O   UNL     1      30.289 -26.172 -14.852  0.00  0.00    -0.243 OA
ATOM     24  C   UNL     1      31.092 -25.318 -14.428  0.00  0.00    +0.357 C 
BRANCH  24  25
ATOM     25  O   UNL     1      31.182 -25.049 -13.089  0.00  0.00    -0.476 OA
ATOM     26  H   UNL     1      31.698 -25.600 -12.534  0.00  0.00    +0.295 HD
ENDBRANCH  24  25
ENDBRANCH  12  24
TORSDOF 3
ENDMDL
MODEL 6
REMARK VINA RESULT:      -9.3      3.479      6.728
REMARK  Name = 44129603
REMARK  3 active torsions:
REMARK  status: ('A' for Active; 'I' for Inactive)
REMARK    1  A    between atoms: N_5  and  C_17
REMARK    2  A    between atoms: C_12  and  C_24
REMARK    3  A    between atoms: C_24  and  O_25
REMARK                            x       y       z     vdW  Elec       q    Type
REMARK                         _______ _______ _______ _____ _____    ______ ____
ROOT
ATOM      1  N   UNL     1      35.485 -22.666 -17.179  0.00  0.00    -0.246 N 
ATOM      2  N   UNL     1      35.514 -22.161 -18.429  0.00  0.00    -0.163 NA
ATOM      3  N   UNL     1      34.713 -23.964 -14.625  0.00  0.00    -0.336 NA
ATOM      4  N   UNL     1      32.907 -24.531 -13.124  0.00  0.00    -0.170 NA
ATOM      5  N   UNL     1      35.141 -24.966 -12.548  0.00  0.00    -0.247 N 
ATOM      6  C   UNL     1      31.915 -22.880 -17.702  0.00  0.00    +0.035 C 
ATOM      7  C   UNL     1      33.382 -22.648 -17.788  0.00  0.00    +0.024 A 
ATOM      8  C   UNL     1      31.429 -22.903 -16.227  0.00  0.00    +0.035 C 
ATOM      9  C   UNL     1      34.229 -22.967 -16.750  0.00  0.00    +0.106 A 
ATOM     10  C   UNL     1      32.408 -23.519 -15.250  0.00  0.00    +0.030 C 
ATOM     11  C   UNL     1      33.786 -23.501 -15.483  0.00  0.00    +0.158 C 
ATOM     12  C   UNL     1      34.226 -22.157 -18.796  0.00  0.00    +0.174 A 
ATOM     13  C   UNL     1      32.031 -24.044 -14.030  0.00  0.00    +0.110 C 
ATOM     14  C   UNL     1      36.735 -22.846 -16.478  0.00  0.00    +0.154 C 
ATOM     15  C   UNL     1      34.207 -24.461 -13.479  0.00  0.00    +0.149 C 
ATOM     16  H   UNL     1      34.729 -25.320 -11.727  0.00  0.00    +0.165 HD
ENDROOT
BRANCH   5  17
ATOM     17  C   UNL     1      36.545 -25.062 -12.563  0.00  0.00    +0.058 C 
ATOM     18  C   UNL     1      37.162 -26.150 -13.179  0.00  0.00    +0.015 C 
ATOM     19  C   UNL     1      37.318 -24.068 -11.963  0.00  0.00    +0.015 C 
ATOM     20  C   UNL     1      38.555 -26.245 -13.194  0.00  0.00    +0.001 C 
ATOM     21  C   UNL     1      38.710 -24.163 -11.978  0.00  0.00    +0.001 C 
ATOM     22  C   UNL     1      39.328 -25.252 -12.594  0.00  0.00    +0.000 C 
ENDBRANCH   5  17
BRANCH  12  24
ATOM     23  O   UNL     1      32.771 -21.867 -20.673  0.00  0.00    -0.243 OA
ATOM     24  C   UNL     1      33.859 -21.673 -20.096  0.00  0.00    +0.357 C 
BRANCH  24  25
ATOM     25  O   UNL     1      34.845 -20.937 -20.697  0.00  0.00    -0.476 OA
ATOM     26  H   UNL     1      35.308 -20.285 -20.207  0.00  0.00    +0.295 HD
ENDBRANCH  24  25
ENDBRANCH  12  24
TORSDOF 3
ENDMDL
MODEL 7
REMARK VINA RESULT:      -9.2      8.257     11.698
REMARK  Name = 44129603
REMARK  3 active torsions:
REMARK  status: ('A' for Active; 'I' for Inactive)
REMARK    1  A    between atoms: N_5  and  C_17
REMARK    2  A    between atoms: C_12  and  C_24
REMARK    3  A    between atoms: C_24  and  O_25
REMARK                            x       y       z     vdW  Elec       q    Type
REMARK                         _______ _______ _______ _____ _____    ______ ____
ROOT
ATOM      1  N   UNL     1      34.995 -15.869 -21.408  0.00  0.00    -0.246 N 
ATOM      2  N   UNL     1      35.556 -17.029 -21.011  0.00  0.00    -0.163 NA
ATOM      3  N   UNL     1      33.663 -13.695 -22.927  0.00  0.00    -0.336 NA
ATOM      4  N   UNL     1      33.219 -12.744 -25.102  0.00  0.00    -0.170 NA
ATOM      5  N   UNL     1      32.519 -11.660 -23.141  0.00  0.00    -0.247 N 
ATOM      6  C   UNL     1      35.191 -17.287 -24.726  0.00  0.00    +0.035 C 
ATOM      7  C   UNL     1      35.268 -16.983 -23.272  0.00  0.00    +0.024 A 
ATOM      8  C   UNL     1      35.147 -15.988 -25.576  0.00  0.00    +0.035 C 
ATOM      9  C   UNL     1      34.810 -15.793 -22.754  0.00  0.00    +0.106 A 
ATOM     10  C   UNL     1      34.382 -14.845 -24.942  0.00  0.00    +0.030 C 
ATOM     11  C   UNL     1      34.264 -14.722 -23.555  0.00  0.00    +0.158 C 
ATOM     12  C   UNL     1      35.716 -17.707 -22.155  0.00  0.00    +0.174 A 
ATOM     13  C   UNL     1      33.841 -13.802 -25.667  0.00  0.00    +0.110 C 
ATOM     14  C   UNL     1      34.649 -14.891 -20.402  0.00  0.00    +0.154 C 
ATOM     15  C   UNL     1      33.167 -12.755 -23.753  0.00  0.00    +0.149 C 
ATOM     16  H   UNL     1      32.171 -10.998 -23.781  0.00  0.00    +0.165 HD
ENDROOT
BRANCH   5  17
ATOM     17  C   UNL     1      32.274 -11.328 -21.796  0.00  0.00    +0.058 C 
ATOM     18  C   UNL     1      32.046 -12.336 -20.860  0.00  0.00    +0.015 C 
ATOM     19  C   UNL     1      32.260  -9.991 -21.399  0.00  0.00    +0.015 C 
ATOM     20  C   UNL     1      31.803 -12.007 -19.525  0.00  0.00    +0.001 C 
ATOM     21  C   UNL     1      32.018  -9.662 -20.065  0.00  0.00    +0.001 C 
ATOM     22  C   UNL     1      31.789 -10.670 -19.129  0.00  0.00    +0.000 C 
ENDBRANCH   5  17
BRANCH  12  24
ATOM     23  O   UNL     1      35.688 -20.098 -22.229  0.00  0.00    -0.243 OA
ATOM     24  C   UNL     1      36.301 -19.017 -22.130  0.00  0.00    +0.357 C 
BRANCH  24  25
ATOM     25  O   UNL     1      37.661 -18.999 -21.979  0.00  0.00    -0.476 OA
ATOM     26  H   UNL     1      38.155 -18.255 -22.266  0.00  0.00    +0.295 HD
ENDBRANCH  24  25
ENDBRANCH  12  24
TORSDOF 3
ENDMDL
