MODEL 1
REMARK VINA RESULT:     -11.8      0.000      0.000
REMARK  Name = 6450551
REMARK  5 active torsions:
REMARK  status: ('A' for Active; 'I' for Inactive)
REMARK    1  A    between atoms: C_5  and  C_11
REMARK    2  A    between atoms: C_7  and  S_19
REMARK    3  A    between atoms: C_12  and  C_14
REMARK    4  A    between atoms: S_19  and  C_20
REMARK    5  A    between atoms: C_21  and  C_28
REMARK                            x       y       z     vdW  Elec       q    Type
REMARK                         _______ _______ _______ _____ _____    ______ ____
ROOT
ATOM      1  N   UNL     1      32.890 -21.254 -20.505  0.00  0.00    -0.276 N 
ATOM      2  N   UNL     1      33.145 -22.068 -19.466  0.00  0.00    -0.173 NA
ATOM      3  C   UNL     1      35.048 -21.022 -20.190  0.00  0.00    +0.036 A 
ATOM      4  C   UNL     1      33.991 -20.598 -20.987  0.00  0.00    +0.076 A 
ATOM      5  C   UNL     1      34.459 -21.924 -19.277  0.00  0.00    +0.102 A 
ATOM      6  C   UNL     1      34.144 -19.684 -22.032  0.00  0.00    +0.025 C 
ATOM      7  C   UNL     1      35.433 -19.194 -22.262  0.00  0.00    +0.031 C 
ATOM      8  C   UNL     1      36.338 -20.521 -20.433  0.00  0.00    +0.004 C 
ATOM      9  C   UNL     1      36.513 -19.604 -21.477  0.00  0.00    +0.007 C 
ATOM     10  H   UNL     1      31.990 -21.141 -20.887  0.00  0.00    +0.189 HD
ENDROOT
BRANCH   5  11
ATOM     11  C   UNL     1      35.171 -22.613 -18.261  0.00  0.00    +0.022 C 
ATOM     12  C   UNL     1      34.752 -22.907 -17.001  0.00  0.00    +0.021 C 
BRANCH  12  14
ATOM     13  N   UNL     1      35.443 -24.958 -16.008  0.00  0.00    -0.244 NA
ATOM     14  C   UNL     1      35.548 -23.618 -15.984  0.00  0.00    +0.081 C 
ATOM     15  C   UNL     1      36.318 -22.894 -15.105  0.00  0.00    +0.019 C 
ATOM     16  C   UNL     1      37.051 -23.607 -14.163  0.00  0.00    +0.003 C 
ATOM     17  C   UNL     1      36.168 -25.618 -15.078  0.00  0.00    +0.099 C 
ATOM     18  C   UNL     1      36.979 -24.995 -14.142  0.00  0.00    +0.021 C 
ENDBRANCH  12  14
ENDBRANCH   5  11
BRANCH   7  19
ATOM     19  S   UNL     1      35.700 -18.023 -23.584  0.00  0.00    -0.087 S 
BRANCH  19  20
ATOM     20  C   UNL     1      35.166 -16.503 -22.811  0.00  0.00    +0.034 C 
ATOM     21  C   UNL     1      34.694 -15.420 -23.557  0.00  0.00    +0.059 C 
ATOM     22  C   UNL     1      35.232 -16.410 -21.420  0.00  0.00    +0.007 C 
ATOM     23  C   UNL     1      34.288 -14.252 -22.912  0.00  0.00    +0.005 C 
ATOM     24  C   UNL     1      34.826 -15.242 -20.775  0.00  0.00    +0.001 C 
ATOM     25  C   UNL     1      34.354 -14.162 -21.522  0.00  0.00    +0.000 C 
BRANCH  21  28
ATOM     26  O   UNL     1      35.239 -16.306 -25.657  0.00  0.00    -0.270 OA
ATOM     27  N   UNL     1      33.759 -14.523 -25.616  0.00  0.00    -0.299 N 
ATOM     28  C   UNL     1      34.603 -15.459 -25.012  0.00  0.00    +0.246 C 
ATOM     29  C   UNL     1      33.545 -14.450 -27.044  0.00  0.00    +0.111 C 
ATOM     30  H   UNL     1      33.286 -13.880 -25.039  0.00  0.00    +0.150 HD
ENDBRANCH  21  28
ENDBRANCH  19  20
ENDBRANCH   7  19
TORSDOF 5
ENDMDL
MODEL 2
REMARK VINA RESULT:     -11.6      3.517      9.782
REMARK  Name = 6450551
REMARK  5 active torsions:
REMARK  status: ('A' for Active; 'I' for Inactive)
REMARK    1  A    between atoms: C_5  and  C_11
REMARK    2  A    between atoms: C_7  and  S_19
REMARK    3  A    between atoms: C_12  and  C_14
REMARK    4  A    between atoms: S_19  and  C_20
REMARK    5  A    between atoms: C_21  and  C_28
REMARK                            x       y       z     vdW  Elec       q    Type
REMARK                         _______ _______ _______ _____ _____    ______ ____
ROOT
ATOM      1  N   UNL     1      37.208 -20.112 -20.278  0.00  0.00    -0.276 N 
ATOM      2  N   UNL     1      37.081 -18.951 -20.943  0.00  0.00    -0.173 NA
ATOM      3  C   UNL     1      35.073 -20.038 -20.775  0.00  0.00    +0.036 A 
ATOM      4  C   UNL     1      36.039 -20.813 -20.143  0.00  0.00    +0.076 A 
ATOM      5  C   UNL     1      35.780 -18.910 -21.244  0.00  0.00    +0.102 A 
ATOM      6  C   UNL     1      35.754 -22.035 -19.531  0.00  0.00    +0.025 C 
ATOM      7  C   UNL     1      34.427 -22.472 -19.574  0.00  0.00    +0.031 C 
ATOM      8  C   UNL     1      33.743 -20.490 -20.809  0.00  0.00    +0.004 C 
ATOM      9  C   UNL     1      33.437 -21.714 -20.202  0.00  0.00    +0.007 C 
ATOM     10  H   UNL     1      38.067 -20.432 -19.919  0.00  0.00    +0.189 HD
ENDROOT
BRANCH   5  11
ATOM     11  C   UNL     1      35.190 -17.836 -21.960  0.00  0.00    +0.022 C 
ATOM     12  C   UNL     1      35.649 -17.231 -23.087  0.00  0.00    +0.021 C 
BRANCH  12  14
ATOM     13  N   UNL     1      34.603 -16.360 -25.040  0.00  0.00    -0.244 NA
ATOM     14  C   UNL     1      34.992 -16.107 -23.779  0.00  0.00    +0.081 C 
ATOM     15  C   UNL     1      34.827 -14.913 -23.116  0.00  0.00    +0.019 C 
ATOM     16  C   UNL     1      34.203 -13.882 -23.809  0.00  0.00    +0.003 C 
ATOM     17  C   UNL     1      34.000 -15.335 -25.682  0.00  0.00    +0.099 C 
ATOM     18  C   UNL     1      33.779 -14.088 -25.117  0.00  0.00    +0.021 C 
ENDBRANCH  12  14
ENDBRANCH   5  11
BRANCH   7  19
ATOM     19  S   UNL     1      33.993 -24.027 -18.811  0.00  0.00    -0.087 S 
BRANCH  19  20
ATOM     20  C   UNL     1      33.237 -23.468 -17.292  0.00  0.00    +0.034 C 
ATOM     21  C   UNL     1      33.958 -23.369 -16.100  0.00  0.00    +0.059 C 
ATOM     22  C   UNL     1      31.884 -23.125 -17.314  0.00  0.00    +0.007 C 
ATOM     23  C   UNL     1      33.327 -22.927 -14.936  0.00  0.00    +0.005 C 
ATOM     24  C   UNL     1      31.253 -22.683 -16.151  0.00  0.00    +0.001 C 
ATOM     25  C   UNL     1      31.976 -22.585 -14.962  0.00  0.00    +0.000 C 
BRANCH  21  28
ATOM     26  O   UNL     1      35.724 -24.898 -15.907  0.00  0.00    -0.270 OA
ATOM     27  N   UNL     1      36.284 -22.657 -16.088  0.00  0.00    -0.299 N 
ATOM     28  C   UNL     1      35.372 -23.713 -16.015  0.00  0.00    +0.246 C 
ATOM     29  C   UNL     1      37.718 -22.838 -16.043  0.00  0.00    +0.111 C 
ATOM     30  H   UNL     1      35.932 -21.741 -16.174  0.00  0.00    +0.150 HD
ENDBRANCH  21  28
ENDBRANCH  19  20
ENDBRANCH   7  19
TORSDOF 5
ENDMDL
MODEL 3
REMARK VINA RESULT:     -11.3      3.755      6.363
REMARK  Name = 6450551
REMARK  5 active torsions:
REMARK  status: ('A' for Active; 'I' for Inactive)
REMARK    1  A    between atoms: C_5  and  C_11
REMARK    2  A    between atoms: C_7  and  S_19
REMARK    3  A    between atoms: C_12  and  C_14
REMARK    4  A    between atoms: S_19  and  C_20
REMARK    5  A    between atoms: C_21  and  C_28
REMARK                            x       y       z     vdW  Elec       q    Type
REMARK                         _______ _______ _______ _____ _____    ______ ____
ROOT
ATOM      1  N   UNL     1      34.650 -16.640 -25.657  0.00  0.00    -0.276 N 
ATOM      2  N   UNL     1      35.015 -17.787 -25.059  0.00  0.00    -0.173 NA
ATOM      3  C   UNL     1      34.930 -16.057 -23.561  0.00  0.00    +0.036 A 
ATOM      4  C   UNL     1      34.581 -15.563 -24.813  0.00  0.00    +0.076 A 
ATOM      5  C   UNL     1      35.184 -17.428 -23.783  0.00  0.00    +0.102 A 
ATOM      6  C   UNL     1      34.247 -14.226 -25.038  0.00  0.00    +0.025 C 
ATOM      7  C   UNL     1      34.276 -13.371 -23.933  0.00  0.00    +0.031 C 
ATOM      8  C   UNL     1      34.954 -15.185 -22.459  0.00  0.00    +0.004 C 
ATOM      9  C   UNL     1      34.623 -13.840 -22.664  0.00  0.00    +0.007 C 
ATOM     10  H   UNL     1      34.452 -16.578 -26.619  0.00  0.00    +0.189 HD
ENDROOT
BRANCH   5  11
ATOM     11  C   UNL     1      35.577 -18.343 -22.772  0.00  0.00    +0.022 C 
ATOM     12  C   UNL     1      34.791 -19.202 -22.071  0.00  0.00    +0.021 C 
BRANCH  12  14
ATOM     13  N   UNL     1      36.558 -20.000 -20.690  0.00  0.00    -0.244 NA
ATOM     14  C   UNL     1      35.261 -20.123 -21.020  0.00  0.00    +0.081 C 
ATOM     15  C   UNL     1      34.377 -21.017 -20.464  0.00  0.00    +0.019 C 
ATOM     16  C   UNL     1      34.866 -21.865 -19.476  0.00  0.00    +0.003 C 
ATOM     17  C   UNL     1      36.999 -20.841 -19.728  0.00  0.00    +0.099 C 
ATOM     18  C   UNL     1      36.201 -21.783 -19.096  0.00  0.00    +0.021 C 
ENDBRANCH  12  14
ENDBRANCH   5  11
BRANCH   7  19
ATOM     19  S   UNL     1      33.860 -11.648 -24.150  0.00  0.00    -0.087 S 
BRANCH  19  20
ATOM     20  C   UNL     1      32.802 -11.367 -22.737  0.00  0.00    +0.034 C 
ATOM     21  C   UNL     1      32.365 -10.088 -22.384  0.00  0.00    +0.059 C 
ATOM     22  C   UNL     1      32.412 -12.469 -21.975  0.00  0.00    +0.007 C 
ATOM     23  C   UNL     1      31.540  -9.915 -21.273  0.00  0.00    +0.005 C 
ATOM     24  C   UNL     1      31.587 -12.296 -20.864  0.00  0.00    +0.001 C 
ATOM     25  C   UNL     1      31.151 -11.018 -20.513  0.00  0.00    +0.000 C 
BRANCH  21  28
ATOM     26  O   UNL     1      32.072  -8.548 -24.126  0.00  0.00    -0.270 OA
ATOM     27  N   UNL     1      33.855  -8.189 -22.689  0.00  0.00    -0.299 N 
ATOM     28  C   UNL     1      32.740  -8.901 -23.142  0.00  0.00    +0.246 C 
ATOM     29  C   UNL     1      34.337  -6.980 -23.318  0.00  0.00    +0.111 C 
ATOM     30  H   UNL     1      34.337  -8.529 -21.900  0.00  0.00    +0.150 HD
ENDBRANCH  21  28
ENDBRANCH  19  20
ENDBRANCH   7  19
TORSDOF 5
ENDMDL
MODEL 4
REMARK VINA RESULT:     -11.1      3.558     10.057
REMARK  Name = 6450551
REMARK  5 active torsions:
REMARK  status: ('A' for Active; 'I' for Inactive)
REMARK    1  A    between atoms: C_5  and  C_11
REMARK    2  A    between atoms: C_7  and  S_19
REMARK    3  A    between atoms: C_12  and  C_14
REMARK    4  A    between atoms: S_19  and  C_20
REMARK    5  A    between atoms: C_21  and  C_28
REMARK                            x       y       z     vdW  Elec       q    Type
REMARK                         _______ _______ _______ _____ _____    ______ ____
ROOT
ATOM      1  N   UNL     1      37.459 -19.857 -20.900  0.00  0.00    -0.276 N 
ATOM      2  N   UNL     1      37.367 -18.903 -21.842  0.00  0.00    -0.173 NA
ATOM      3  C   UNL     1      35.306 -19.737 -21.299  0.00  0.00    +0.036 A 
ATOM      4  C   UNL     1      36.257 -20.399 -20.531  0.00  0.00    +0.076 A 
ATOM      5  C   UNL     1      36.055 -18.832 -22.081  0.00  0.00    +0.102 A 
ATOM      6  C   UNL     1      35.931 -21.393 -19.605  0.00  0.00    +0.025 C 
ATOM      7  C   UNL     1      34.577 -21.713 -19.469  0.00  0.00    +0.031 C 
ATOM      8  C   UNL     1      33.949 -20.070 -21.151  0.00  0.00    +0.004 C 
ATOM      9  C   UNL     1      33.601 -21.065 -20.228  0.00  0.00    +0.007 C 
ATOM     10  H   UNL     1      38.316 -20.143 -20.511  0.00  0.00    +0.189 HD
ENDROOT
BRANCH   5  11
ATOM     11  C   UNL     1      35.492 -17.936 -23.027  0.00  0.00    +0.022 C 
ATOM     12  C   UNL     1      35.446 -16.579 -22.967  0.00  0.00    +0.021 C 
BRANCH  12  14
ATOM     13  N   UNL     1      34.593 -14.442 -23.578  0.00  0.00    -0.244 NA
ATOM     14  C   UNL     1      34.833 -15.701 -23.980  0.00  0.00    +0.081 C 
ATOM     15  C   UNL     1      34.554 -16.207 -25.228  0.00  0.00    +0.019 C 
ATOM     16  C   UNL     1      33.975 -15.343 -26.151  0.00  0.00    +0.003 C 
ATOM     17  C   UNL     1      34.030 -13.630 -24.500  0.00  0.00    +0.099 C 
ATOM     18  C   UNL     1      33.704 -14.028 -25.788  0.00  0.00    +0.021 C 
ENDBRANCH  12  14
ENDBRANCH   5  11
BRANCH   7  19
ATOM     19  S   UNL     1      34.090 -22.976 -18.304  0.00  0.00    -0.087 S 
BRANCH  19  20
ATOM     20  C   UNL     1      35.382 -22.830 -17.077  0.00  0.00    +0.034 C 
ATOM     21  C   UNL     1      35.174 -23.176 -15.740  0.00  0.00    +0.059 C 
ATOM     22  C   UNL     1      36.628 -22.352 -17.484  0.00  0.00    +0.007 C 
ATOM     23  C   UNL     1      36.211 -23.046 -14.816  0.00  0.00    +0.005 C 
ATOM     24  C   UNL     1      37.665 -22.221 -16.560  0.00  0.00    +0.001 C 
ATOM     25  C   UNL     1      37.455 -22.569 -15.225  0.00  0.00    +0.000 C 
BRANCH  21  28
ATOM     26  O   UNL     1      33.742 -24.891 -15.030  0.00  0.00    -0.270 OA
ATOM     27  N   UNL     1      32.883 -22.738 -15.048  0.00  0.00    -0.299 N 
ATOM     28  C   UNL     1      33.894 -23.680 -15.257  0.00  0.00    +0.246 C 
ATOM     29  C   UNL     1      31.569 -23.077 -14.550  0.00  0.00    +0.111 C 
ATOM     30  H   UNL     1      33.076 -21.794 -15.251  0.00  0.00    +0.150 HD
ENDBRANCH  21  28
ENDBRANCH  19  20
ENDBRANCH   7  19
TORSDOF 5
ENDMDL
MODEL 5
REMARK VINA RESULT:     -11.0      4.568      7.754
REMARK  Name = 6450551
REMARK  5 active torsions:
REMARK  status: ('A' for Active; 'I' for Inactive)
REMARK    1  A    between atoms: C_5  and  C_11
REMARK    2  A    between atoms: C_7  and  S_19
REMARK    3  A    between atoms: C_12  and  C_14
REMARK    4  A    between atoms: S_19  and  C_20
REMARK    5  A    between atoms: C_21  and  C_28
REMARK                            x       y       z     vdW  Elec       q    Type
REMARK                         _______ _______ _______ _____ _____    ______ ____
ROOT
ATOM      1  N   UNL     1      34.843 -14.035 -24.235  0.00  0.00    -0.276 N 
ATOM      2  N   UNL     1      35.469 -15.169 -23.877  0.00  0.00    -0.173 NA
ATOM      3  C   UNL     1      33.964 -14.511 -22.283  0.00  0.00    +0.036 A 
ATOM      4  C   UNL     1      33.928 -13.587 -23.320  0.00  0.00    +0.076 A 
ATOM      5  C   UNL     1      34.931 -15.456 -22.689  0.00  0.00    +0.102 A 
ATOM      6  C   UNL     1      33.087 -12.472 -23.317  0.00  0.00    +0.025 C 
ATOM      7  C   UNL     1      32.257 -12.307 -22.204  0.00  0.00    +0.031 C 
ATOM      8  C   UNL     1      33.124 -14.332 -21.171  0.00  0.00    +0.004 C 
ATOM      9  C   UNL     1      32.274 -13.220 -21.148  0.00  0.00    +0.007 C 
ATOM     10  H   UNL     1      35.027 -13.566 -25.080  0.00  0.00    +0.189 HD
ENDROOT
BRANCH   5  11
ATOM     11  C   UNL     1      35.306 -16.595 -21.929  0.00  0.00    +0.022 C 
ATOM     12  C   UNL     1      35.194 -17.905 -22.277  0.00  0.00    +0.021 C 
BRANCH  12  14
ATOM     13  N   UNL     1      36.873 -19.041 -21.031  0.00  0.00    -0.244 NA
ATOM     14  C   UNL     1      35.591 -19.047 -21.435  0.00  0.00    +0.081 C 
ATOM     15  C   UNL     1      34.662 -20.012 -21.127  0.00  0.00    +0.019 C 
ATOM     16  C   UNL     1      35.083 -21.070 -20.329  0.00  0.00    +0.003 C 
ATOM     17  C   UNL     1      37.247 -20.085 -20.258  0.00  0.00    +0.099 C 
ATOM     18  C   UNL     1      36.399 -21.116 -19.883  0.00  0.00    +0.021 C 
ENDBRANCH  12  14
ENDBRANCH   5  11
BRANCH   7  19
ATOM     19  S   UNL     1      31.157 -10.901 -22.135  0.00  0.00    -0.087 S 
BRANCH  19  20
ATOM     20  C   UNL     1      32.316  -9.548 -22.275  0.00  0.00    +0.034 C 
ATOM     21  C   UNL     1      32.720  -8.803 -21.165  0.00  0.00    +0.059 C 
ATOM     22  C   UNL     1      32.823  -9.240 -23.539  0.00  0.00    +0.007 C 
ATOM     23  C   UNL     1      33.628  -7.755 -21.320  0.00  0.00    +0.005 C 
ATOM     24  C   UNL     1      33.730  -8.192 -23.694  0.00  0.00    +0.001 C 
ATOM     25  C   UNL     1      34.132  -7.449 -22.584  0.00  0.00    +0.000 C 
BRANCH  21  28
ATOM     26  O   UNL     1      31.602  -8.209 -19.192  0.00  0.00    -0.270 OA
ATOM     27  N   UNL     1      32.468 -10.356 -19.310  0.00  0.00    -0.299 N 
ATOM     28  C   UNL     1      32.225  -9.078 -19.821  0.00  0.00    +0.246 C 
ATOM     29  C   UNL     1      32.021 -10.789 -18.004  0.00  0.00    +0.111 C 
ATOM     30  H   UNL     1      32.970 -10.994 -19.867  0.00  0.00    +0.150 HD
ENDBRANCH  21  28
ENDBRANCH  19  20
ENDBRANCH   7  19
TORSDOF 5
ENDMDL
MODEL 6
REMARK VINA RESULT:     -10.9      4.522     10.766
REMARK  Name = 6450551
REMARK  5 active torsions:
REMARK  status: ('A' for Active; 'I' for Inactive)
REMARK    1  A    between atoms: C_5  and  C_11
REMARK    2  A    between atoms: C_7  and  S_19
REMARK    3  A    between atoms: C_12  and  C_14
REMARK    4  A    between atoms: S_19  and  C_20
REMARK    5  A    between atoms: C_21  and  C_28
REMARK                            x       y       z     vdW  Elec       q    Type
REMARK                         _______ _______ _______ _____ _____    ______ ____
ROOT
ATOM      1  N   UNL     1      32.611 -23.246 -17.996  0.00  0.00    -0.276 N 
ATOM      2  N   UNL     1      32.819 -22.513 -19.103  0.00  0.00    -0.173 NA
ATOM      3  C   UNL     1      34.706 -22.626 -17.812  0.00  0.00    +0.036 A 
ATOM      4  C   UNL     1      33.704 -23.352 -17.178  0.00  0.00    +0.076 A 
ATOM      5  C   UNL     1      34.096 -22.138 -18.987  0.00  0.00    +0.102 A 
ATOM      6  C   UNL     1      33.894 -24.012 -15.962  0.00  0.00    +0.025 C 
ATOM      7  C   UNL     1      35.162 -23.917 -15.381  0.00  0.00    +0.031 C 
ATOM      8  C   UNL     1      35.976 -22.540 -17.215  0.00  0.00    +0.004 C 
ATOM      9  C   UNL     1      36.187 -23.195 -15.995  0.00  0.00    +0.007 C 
ATOM     10  H   UNL     1      31.746 -23.669 -17.790  0.00  0.00    +0.189 HD
ENDROOT
BRANCH   5  11
ATOM     11  C   UNL     1      34.752 -21.332 -19.955  0.00  0.00    +0.022 C 
ATOM     12  C   UNL     1      34.199 -20.416 -20.793  0.00  0.00    +0.021 C 
BRANCH  12  14
ATOM     13  N   UNL     1      36.061 -19.035 -21.336  0.00  0.00    -0.244 NA
ATOM     14  C   UNL     1      34.937 -19.618 -21.788  0.00  0.00    +0.081 C 
ATOM     15  C   UNL     1      34.448 -19.521 -23.070  0.00  0.00    +0.019 C 
ATOM     16  C   UNL     1      35.178 -18.756 -23.973  0.00  0.00    +0.003 C 
ATOM     17  C   UNL     1      36.743 -18.300 -22.241  0.00  0.00    +0.099 C 
ATOM     18  C   UNL     1      36.348 -18.130 -23.559  0.00  0.00    +0.021 C 
ENDBRANCH  12  14
ENDBRANCH   5  11
BRANCH   7  19
ATOM     19  S   UNL     1      35.474 -24.737 -13.825  0.00  0.00    -0.087 S 
BRANCH  19  20
ATOM     20  C   UNL     1      37.177 -25.236 -14.034  0.00  0.00    +0.034 C 
ATOM     21  C   UNL     1      38.202 -24.721 -13.237  0.00  0.00    +0.059 C 
ATOM     22  C   UNL     1      37.475 -26.170 -15.028  0.00  0.00    +0.007 C 
ATOM     23  C   UNL     1      39.518 -25.139 -13.434  0.00  0.00    +0.005 C 
ATOM     24  C   UNL     1      38.791 -26.588 -15.225  0.00  0.00    +0.001 C 
ATOM     25  C   UNL     1      39.813 -26.072 -14.427  0.00  0.00    +0.000 C 
BRANCH  21  28
ATOM     26  O   UNL     1      38.515 -22.638 -12.207  0.00  0.00    -0.270 OA
ATOM     27  N   UNL     1      37.042 -24.109 -11.188  0.00  0.00    -0.299 N 
ATOM     28  C   UNL     1      37.951 -23.743 -12.184  0.00  0.00    +0.246 C 
ATOM     29  C   UNL     1      36.670 -23.242 -10.091  0.00  0.00    +0.111 C 
ATOM     30  H   UNL     1      36.633 -25.004 -11.235  0.00  0.00    +0.150 HD
ENDBRANCH  21  28
ENDBRANCH  19  20
ENDBRANCH   7  19
TORSDOF 5
ENDMDL
MODEL 7
REMARK VINA RESULT:     -10.7      4.876     10.504
REMARK  Name = 6450551
REMARK  5 active torsions:
REMARK  status: ('A' for Active; 'I' for Inactive)
REMARK    1  A    between atoms: C_5  and  C_11
REMARK    2  A    between atoms: C_7  and  S_19
REMARK    3  A    between atoms: C_12  and  C_14
REMARK    4  A    between atoms: S_19  and  C_20
REMARK    5  A    between atoms: C_21  and  C_28
REMARK                            x       y       z     vdW  Elec       q    Type
REMARK                         _______ _______ _______ _____ _____    ______ ____
ROOT
ATOM      1  N   UNL     1      32.582 -23.539 -17.948  0.00  0.00    -0.276 N 
ATOM      2  N   UNL     1      32.943 -22.867 -19.055  0.00  0.00    -0.173 NA
ATOM      3  C   UNL     1      34.593 -22.805 -17.470  0.00  0.00    +0.036 A 
ATOM      4  C   UNL     1      33.529 -23.539 -16.958  0.00  0.00    +0.076 A 
ATOM      5  C   UNL     1      34.167 -22.423 -18.760  0.00  0.00    +0.102 A 
ATOM      6  C   UNL     1      33.540 -24.110 -15.684  0.00  0.00    +0.025 C 
ATOM      7  C   UNL     1      34.690 -23.917 -14.913  0.00  0.00    +0.031 C 
ATOM      8  C   UNL     1      35.742 -22.620 -16.683  0.00  0.00    +0.004 C 
ATOM      9  C   UNL     1      35.774 -23.185 -15.402  0.00  0.00    +0.007 C 
ATOM     10  H   UNL     1      31.712 -23.990 -17.855  0.00  0.00    +0.189 HD
ENDROOT
BRANCH   5  11
ATOM     11  C   UNL     1      34.943 -21.649 -19.662  0.00  0.00    +0.022 C 
ATOM     12  C   UNL     1      34.526 -20.632 -20.462  0.00  0.00    +0.021 C 
BRANCH  12  14
ATOM     13  N   UNL     1      36.573 -19.496 -20.893  0.00  0.00    -0.244 NA
ATOM     14  C   UNL     1      35.383 -19.873 -21.391  0.00  0.00    +0.081 C 
ATOM     15  C   UNL     1      34.929 -19.605 -22.660  0.00  0.00    +0.019 C 
ATOM     16  C   UNL     1      35.772 -18.886 -23.500  0.00  0.00    +0.003 C 
ATOM     17  C   UNL     1      37.366 -18.798 -21.736  0.00  0.00    +0.099 C 
ATOM     18  C   UNL     1      37.015 -18.470 -23.037  0.00  0.00    +0.021 C 
ENDBRANCH  12  14
ENDBRANCH   5  11
BRANCH   7  19
ATOM     19  S   UNL     1      34.772 -24.620 -13.273  0.00  0.00    -0.087 S 
BRANCH  19  20
ATOM     20  C   UNL     1      36.473 -24.287 -12.839  0.00  0.00    +0.034 C 
ATOM     21  C   UNL     1      37.511 -25.150 -13.198  0.00  0.00    +0.059 C 
ATOM     22  C   UNL     1      36.755 -23.126 -12.117  0.00  0.00    +0.007 C 
ATOM     23  C   UNL     1      38.825 -24.850 -12.838  0.00  0.00    +0.005 C 
ATOM     24  C   UNL     1      38.069 -22.826 -11.757  0.00  0.00    +0.001 C 
ATOM     25  C   UNL     1      39.104 -23.689 -12.118  0.00  0.00    +0.000 C 
BRANCH  21  28
ATOM     26  O   UNL     1      37.107 -27.453 -13.359  0.00  0.00    -0.270 OA
ATOM     27  N   UNL     1      37.232 -26.263 -15.344  0.00  0.00    -0.299 N 
ATOM     28  C   UNL     1      37.277 -26.376 -13.951  0.00  0.00    +0.246 C 
ATOM     29  C   UNL     1      36.985 -27.381 -16.226  0.00  0.00    +0.111 C 
ATOM     30  H   UNL     1      37.376 -25.375 -15.744  0.00  0.00    +0.150 HD
ENDBRANCH  21  28
ENDBRANCH  19  20
ENDBRANCH   7  19
TORSDOF 5
ENDMDL
MODEL 8
REMARK VINA RESULT:     -10.7      1.651      2.727
REMARK  Name = 6450551
REMARK  5 active torsions:
REMARK  status: ('A' for Active; 'I' for Inactive)
REMARK    1  A    between atoms: C_5  and  C_11
REMARK    2  A    between atoms: C_7  and  S_19
REMARK    3  A    between atoms: C_12  and  C_14
REMARK    4  A    between atoms: S_19  and  C_20
REMARK    5  A    between atoms: C_21  and  C_28
REMARK                            x       y       z     vdW  Elec       q    Type
REMARK                         _______ _______ _______ _____ _____    ______ ____
ROOT
ATOM      1  N   UNL     1      33.064 -21.411 -20.061  0.00  0.00    -0.276 N 
ATOM      2  N   UNL     1      32.980 -22.320 -19.075  0.00  0.00    -0.173 NA
ATOM      3  C   UNL     1      35.127 -21.570 -19.336  0.00  0.00    +0.036 A 
ATOM      4  C   UNL     1      34.326 -20.922 -20.269  0.00  0.00    +0.076 A 
ATOM      5  C   UNL     1      34.237 -22.413 -18.635  0.00  0.00    +0.102 A 
ATOM      6  C   UNL     1      34.821 -19.984 -21.177  0.00  0.00    +0.025 C 
ATOM      7  C   UNL     1      36.190 -19.707 -21.120  0.00  0.00    +0.031 C 
ATOM      8  C   UNL     1      36.501 -21.280 -19.289  0.00  0.00    +0.004 C 
ATOM      9  C   UNL     1      37.018 -20.343 -20.192  0.00  0.00    +0.007 C 
ATOM     10  H   UNL     1      32.285 -21.123 -20.590  0.00  0.00    +0.189 HD
ENDROOT
BRANCH   5  11
ATOM     11  C   UNL     1      34.620 -23.276 -17.575  0.00  0.00    +0.022 C 
ATOM     12  C   UNL     1      35.315 -22.959 -16.450  0.00  0.00    +0.021 C 
BRANCH  12  14
ATOM     13  N   UNL     1      36.591 -24.841 -15.746  0.00  0.00    -0.244 NA
ATOM     14  C   UNL     1      35.693 -23.907 -15.387  0.00  0.00    +0.081 C 
ATOM     15  C   UNL     1      35.124 -23.785 -14.141  0.00  0.00    +0.019 C 
ATOM     16  C   UNL     1      35.511 -24.703 -13.171  0.00  0.00    +0.003 C 
ATOM     17  C   UNL     1      36.943 -25.716 -14.779  0.00  0.00    +0.099 C 
ATOM     18  C   UNL     1      36.437 -25.690 -13.488  0.00  0.00    +0.021 C 
ENDBRANCH  12  14
ENDBRANCH   5  11
BRANCH   7  19
ATOM     19  S   UNL     1      36.890 -18.518 -22.254  0.00  0.00    -0.087 S 
BRANCH  19  20
ATOM     20  C   UNL     1      35.694 -18.561 -23.581  0.00  0.00    +0.034 C 
ATOM     21  C   UNL     1      35.014 -17.416 -24.002  0.00  0.00    +0.059 C 
ATOM     22  C   UNL     1      35.443 -19.785 -24.204  0.00  0.00    +0.007 C 
ATOM     23  C   UNL     1      34.088 -17.496 -25.042  0.00  0.00    +0.005 C 
ATOM     24  C   UNL     1      34.517 -19.865 -25.245  0.00  0.00    +0.001 C 
ATOM     25  C   UNL     1      33.839 -18.719 -25.663  0.00  0.00    +0.000 C 
BRANCH  21  28
ATOM     26  O   UNL     1      35.800 -15.208 -24.023  0.00  0.00    -0.270 OA
ATOM     27  N   UNL     1      34.760 -15.939 -22.085  0.00  0.00    -0.299 N 
ATOM     28  C   UNL     1      35.234 -16.112 -23.388  0.00  0.00    +0.246 C 
ATOM     29  C   UNL     1      34.881 -14.699 -21.351  0.00  0.00    +0.111 C 
ATOM     30  H   UNL     1      34.321 -16.702 -21.643  0.00  0.00    +0.150 HD
ENDBRANCH  21  28
ENDBRANCH  19  20
ENDBRANCH   7  19
TORSDOF 5
ENDMDL
MODEL 9
REMARK VINA RESULT:     -10.6      2.987     10.090
REMARK  Name = 6450551
REMARK  5 active torsions:
REMARK  status: ('A' for Active; 'I' for Inactive)
REMARK    1  A    between atoms: C_5  and  C_11
REMARK    2  A    between atoms: C_7  and  S_19
REMARK    3  A    between atoms: C_12  and  C_14
REMARK    4  A    between atoms: S_19  and  C_20
REMARK    5  A    between atoms: C_21  and  C_28
REMARK                            x       y       z     vdW  Elec       q    Type
REMARK                         _______ _______ _______ _____ _____    ______ ____
ROOT
ATOM      1  N   UNL     1      34.973 -16.856 -25.641  0.00  0.00    -0.276 N 
ATOM      2  N   UNL     1      34.457 -15.635 -25.862  0.00  0.00    -0.173 NA
ATOM      3  C   UNL     1      34.929 -15.950 -23.645  0.00  0.00    +0.036 A 
ATOM      4  C   UNL     1      35.277 -17.108 -24.330  0.00  0.00    +0.076 A 
ATOM      5  C   UNL     1      34.433 -15.086 -24.645  0.00  0.00    +0.102 A 
ATOM      6  C   UNL     1      35.818 -18.231 -23.701  0.00  0.00    +0.025 C 
ATOM      7  C   UNL     1      36.006 -18.155 -22.318  0.00  0.00    +0.031 C 
ATOM      8  C   UNL     1      35.124 -15.888 -22.254  0.00  0.00    +0.004 C 
ATOM      9  C   UNL     1      35.665 -17.004 -21.605  0.00  0.00    +0.007 C 
ATOM     10  H   UNL     1      35.118 -17.513 -26.359  0.00  0.00    +0.189 HD
ENDROOT
BRANCH   5  11
ATOM     11  C   UNL     1      33.954 -13.772 -24.402  0.00  0.00    +0.022 C 
ATOM     12  C   UNL     1      33.386 -13.286 -23.267  0.00  0.00    +0.021 C 
BRANCH  12  14
ATOM     13  N   UNL     1      31.921 -11.766 -22.168  0.00  0.00    -0.244 NA
ATOM     14  C   UNL     1      32.896 -11.909 -23.081  0.00  0.00    +0.081 C 
ATOM     15  C   UNL     1      33.445 -10.893 -23.828  0.00  0.00    +0.019 C 
ATOM     16  C   UNL     1      32.950  -9.610 -23.620  0.00  0.00    +0.003 C 
ATOM     17  C   UNL     1      31.465 -10.506 -21.992  0.00  0.00    +0.099 C 
ATOM     18  C   UNL     1      31.941  -9.404 -22.686  0.00  0.00    +0.021 C 
ENDBRANCH  12  14
ENDBRANCH   5  11
BRANCH   7  19
ATOM     19  S   UNL     1      36.693 -19.557 -21.450  0.00  0.00    -0.087 S 
BRANCH  19  20
ATOM     20  C   UNL     1      35.212 -20.328 -20.813  0.00  0.00    +0.034 C 
ATOM     21  C   UNL     1      35.256 -21.281 -19.792  0.00  0.00    +0.059 C 
ATOM     22  C   UNL     1      33.984 -19.957 -21.364  0.00  0.00    +0.007 C 
ATOM     23  C   UNL     1      34.075 -21.858 -19.324  0.00  0.00    +0.005 C 
ATOM     24  C   UNL     1      32.804 -20.534 -20.896  0.00  0.00    +0.001 C 
ATOM     25  C   UNL     1      32.850 -21.485 -19.876  0.00  0.00    +0.000 C 
BRANCH  21  28
ATOM     26  O   UNL     1      37.470 -22.044 -19.887  0.00  0.00    -0.270 OA
ATOM     27  N   UNL     1      36.565 -21.690 -17.783  0.00  0.00    -0.299 N 
ATOM     28  C   UNL     1      36.508 -21.707 -19.179  0.00  0.00    +0.246 C 
ATOM     29  C   UNL     1      37.742 -22.060 -17.029  0.00  0.00    +0.111 C 
ATOM     30  H   UNL     1      35.762 -21.410 -17.286  0.00  0.00    +0.150 HD
ENDBRANCH  21  28
ENDBRANCH  19  20
ENDBRANCH   7  19
TORSDOF 5
ENDMDL
