MODEL 1
REMARK VINA RESULT:     -11.2      0.000      0.000
REMARK  Name = 77993
REMARK  6 active torsions:
REMARK  status: ('A' for Active; 'I' for Inactive)
REMARK    1  A    between atoms: C_2  and  C_11
REMARK    2  A    between atoms: C_7  and  C_19
REMARK    3  A    between atoms: C_11  and  C_13
REMARK    4  A    between atoms: C_19  and  C_20
REMARK    5  A    between atoms: C_20  and  S_21
REMARK    6  A    between atoms: S_21  and  C_24
REMARK                            x       y       z     vdW  Elec       q    Type
REMARK                         _______ _______ _______ _____ _____    ______ ____
ROOT
ATOM      1  N   UNL     1      33.709 -23.738 -16.515  0.00  0.00    -0.312 N 
ATOM      2  C   UNL     1      35.822 -23.264 -16.124  0.00  0.00    -0.008 C 
ATOM      3  C   UNL     1      35.487 -22.695 -17.371  0.00  0.00    +0.010 C 
ATOM      4  C   UNL     1      34.728 -23.897 -15.613  0.00  0.00    +0.058 C 
ATOM      5  C   UNL     1      34.144 -23.007 -17.598  0.00  0.00    +0.048 C 
ATOM      6  C   UNL     1      36.181 -21.944 -18.339  0.00  0.00    -0.003 C 
ATOM      7  C   UNL     1      35.509 -21.533 -19.495  0.00  0.00    -0.020 C 
ATOM      8  C   UNL     1      33.460 -22.604 -18.749  0.00  0.00    +0.014 C 
ATOM      9  C   UNL     1      34.169 -21.860 -19.696  0.00  0.00    -0.003 C 
ATOM     10  H   UNL     1      32.798 -24.093 -16.404  0.00  0.00    +0.152 HD
ENDROOT
BRANCH   2  11
ATOM     11  C   UNL     1      37.161 -23.191 -15.459  0.00  0.00    +0.007 C 
BRANCH  11  13
ATOM     12  N   UNL     1      37.763 -23.955 -13.154  0.00  0.00    +0.387 N 
ATOM     13  C   UNL     1      37.410 -24.365 -14.520  0.00  0.00    -0.054 C 
ATOM     14  C   UNL     1      38.629 -25.186 -14.949  0.00  0.00    -0.023 C 
ATOM     15  C   UNL     1      39.245 -25.699 -13.652  0.00  0.00    -0.025 C 
ATOM     16  C   UNL     1      38.362 -25.146 -12.545  0.00  0.00    -0.077 C 
ATOM     17  C   UNL     1      36.621 -23.479 -12.382  0.00  0.00    -0.101 C 
ATOM     18  H   UNL     1      38.402 -23.160 -13.169  0.00  0.00    -0.080 HD
ENDBRANCH  11  13
ENDBRANCH   2  11
BRANCH   7  19
ATOM     19  C   UNL     1      36.239 -20.737 -20.527  0.00  0.00    +0.052 C 
BRANCH  19  20
ATOM     20  C   UNL     1      35.334 -19.846 -21.382  0.00  0.00    +0.161 C 
BRANCH  20  21
ATOM     21  S   UNL     1      36.145 -18.371 -21.914  0.00  0.00    +0.009 S 
ATOM     22  O   UNL     1      37.535 -18.679 -22.199  0.00  0.00    -0.169 OA
ATOM     23  O   UNL     1      35.806 -17.315 -20.975  0.00  0.00    -0.169 OA
BRANCH  21  24
ATOM     24  C   UNL     1      35.372 -17.992 -23.458  0.00  0.00    +0.106 C 
ATOM     25  C   UNL     1      35.421 -16.695 -23.939  0.00  0.00    +0.018 C 
ATOM     26  C   UNL     1      34.734 -19.001 -24.160  0.00  0.00    +0.018 C 
ATOM     27  C   UNL     1      34.812 -16.397 -25.158  0.00  0.00    +0.001 C 
ATOM     28  C   UNL     1      34.125 -18.703 -25.379  0.00  0.00    +0.001 C 
ATOM     29  C   UNL     1      34.164 -17.401 -25.878  0.00  0.00    +0.000 C 
ENDBRANCH  21  24
ENDBRANCH  20  21
ENDBRANCH  19  20
ENDBRANCH   7  19
TORSDOF 6
ENDMDL
MODEL 2
REMARK VINA RESULT:     -10.8      2.381      4.087
REMARK  Name = 77993
REMARK  6 active torsions:
REMARK  status: ('A' for Active; 'I' for Inactive)
REMARK    1  A    between atoms: C_2  and  C_11
REMARK    2  A    between atoms: C_7  and  C_19
REMARK    3  A    between atoms: C_11  and  C_13
REMARK    4  A    between atoms: C_19  and  C_20
REMARK    5  A    between atoms: C_20  and  S_21
REMARK    6  A    between atoms: S_21  and  C_24
REMARK                            x       y       z     vdW  Elec       q    Type
REMARK                         _______ _______ _______ _____ _____    ______ ____
ROOT
ATOM      1  N   UNL     1      36.331 -22.786 -16.716  0.00  0.00    -0.312 N 
ATOM      2  C   UNL     1      34.246 -23.228 -17.262  0.00  0.00    -0.008 C 
ATOM      3  C   UNL     1      34.778 -22.396 -18.271  0.00  0.00    +0.010 C 
ATOM      4  C   UNL     1      35.205 -23.458 -16.321  0.00  0.00    +0.058 C 
ATOM      5  C   UNL     1      36.100 -22.129 -17.904  0.00  0.00    +0.048 C 
ATOM      6  C   UNL     1      34.280 -21.836 -19.463  0.00  0.00    -0.003 C 
ATOM      7  C   UNL     1      35.118 -21.032 -20.242  0.00  0.00    -0.020 C 
ATOM      8  C   UNL     1      36.949 -21.327 -18.673  0.00  0.00    +0.014 C 
ATOM      9  C   UNL     1      36.432 -20.782 -19.851  0.00  0.00    -0.003 C 
ATOM     10  H   UNL     1      37.183 -22.775 -16.223  0.00  0.00    +0.152 HD
ENDROOT
BRANCH   2  11
ATOM     11  C   UNL     1      32.853 -23.777 -17.224  0.00  0.00    +0.007 C 
BRANCH  11  13
ATOM     12  N   UNL     1      31.594 -24.290 -15.124  0.00  0.00    +0.387 N 
ATOM     13  C   UNL     1      32.050 -23.241 -16.046  0.00  0.00    -0.054 C 
ATOM     14  C   UNL     1      30.735 -22.601 -16.500  0.00  0.00    -0.023 C 
ATOM     15  C   UNL     1      29.743 -22.878 -15.377  0.00  0.00    -0.025 C 
ATOM     16  C   UNL     1      30.526 -23.666 -14.339  0.00  0.00    -0.077 C 
ATOM     17  C   UNL     1      32.656 -24.805 -14.267  0.00  0.00    -0.101 C 
ATOM     18  H   UNL     1      31.273 -25.109 -15.640  0.00  0.00    -0.080 HD
ENDBRANCH  11  13
ENDBRANCH   2  11
BRANCH   7  19
ATOM     19  C   UNL     1      34.596 -20.434 -21.507  0.00  0.00    +0.052 C 
BRANCH  19  20
ATOM     20  C   UNL     1      35.092 -19.010 -21.775  0.00  0.00    +0.161 C 
BRANCH  20  21
ATOM     21  S   UNL     1      35.853 -18.846 -23.360  0.00  0.00    +0.009 S 
ATOM     22  O   UNL     1      35.365 -19.906 -24.224  0.00  0.00    -0.169 OA
ATOM     23  O   UNL     1      37.280 -18.669 -23.151  0.00  0.00    -0.169 OA
BRANCH  21  24
ATOM     24  C   UNL     1      35.204 -17.327 -23.989  0.00  0.00    +0.106 C 
ATOM     25  C   UNL     1      35.289 -16.182 -23.215  0.00  0.00    +0.018 C 
ATOM     26  C   UNL     1      34.623 -17.309 -25.246  0.00  0.00    +0.018 C 
ATOM     27  C   UNL     1      34.777 -14.984 -23.712  0.00  0.00    +0.001 C 
ATOM     28  C   UNL     1      34.112 -16.110 -25.743  0.00  0.00    +0.001 C 
ATOM     29  C   UNL     1      34.189 -14.948 -24.977  0.00  0.00    +0.000 C 
ENDBRANCH  21  24
ENDBRANCH  20  21
ENDBRANCH  19  20
ENDBRANCH   7  19
TORSDOF 6
ENDMDL
MODEL 3
REMARK VINA RESULT:     -10.6      3.838     10.067
REMARK  Name = 77993
REMARK  6 active torsions:
REMARK  status: ('A' for Active; 'I' for Inactive)
REMARK    1  A    between atoms: C_2  and  C_11
REMARK    2  A    between atoms: C_7  and  C_19
REMARK    3  A    between atoms: C_11  and  C_13
REMARK    4  A    between atoms: C_19  and  C_20
REMARK    5  A    between atoms: C_20  and  S_21
REMARK    6  A    between atoms: S_21  and  C_24
REMARK                            x       y       z     vdW  Elec       q    Type
REMARK                         _______ _______ _______ _____ _____    ______ ____
ROOT
ATOM      1  N   UNL     1      32.969 -21.332 -20.391  0.00  0.00    -0.312 N 
ATOM      2  C   UNL     1      34.816 -20.306 -21.006  0.00  0.00    -0.008 C 
ATOM      3  C   UNL     1      35.128 -21.090 -19.875  0.00  0.00    +0.010 C 
ATOM      4  C   UNL     1      33.496 -20.463 -21.309  0.00  0.00    +0.058 C 
ATOM      5  C   UNL     1      33.943 -21.731 -19.502  0.00  0.00    +0.048 C 
ATOM      6  C   UNL     1      36.293 -21.328 -19.121  0.00  0.00    -0.003 C 
ATOM      7  C   UNL     1      36.232 -22.196 -18.025  0.00  0.00    -0.020 C 
ATOM      8  C   UNL     1      33.867 -22.601 -18.410  0.00  0.00    +0.014 C 
ATOM      9  C   UNL     1      35.036 -22.821 -17.676  0.00  0.00    -0.003 C 
ATOM     10  H   UNL     1      32.031 -21.629 -20.368  0.00  0.00    +0.152 HD
ENDROOT
BRANCH   2  11
ATOM     11  C   UNL     1      35.774 -19.436 -21.760  0.00  0.00    +0.007 C 
BRANCH  11  13
ATOM     12  N   UNL     1      35.428 -18.343 -23.984  0.00  0.00    +0.387 N 
ATOM     13  C   UNL     1      35.068 -18.349 -22.559  0.00  0.00    -0.054 C 
ATOM     14  C   UNL     1      35.484 -16.948 -22.103  0.00  0.00    -0.023 C 
ATOM     15  C   UNL     1      35.441 -16.086 -23.360  0.00  0.00    -0.025 C 
ATOM     16  C   UNL     1      35.011 -17.027 -24.474  0.00  0.00    -0.077 C 
ATOM     17  C   UNL     1      34.799 -19.419 -24.742  0.00  0.00    -0.101 C 
ATOM     18  H   UNL     1      36.428 -18.507 -24.104  0.00  0.00    -0.080 HD
ENDBRANCH  11  13
ENDBRANCH   2  11
BRANCH   7  19
ATOM     19  C   UNL     1      37.464 -22.452 -17.220  0.00  0.00    +0.052 C 
BRANCH  19  20
ATOM     20  C   UNL     1      37.209 -22.584 -15.716  0.00  0.00    +0.161 C 
BRANCH  20  21
ATOM     21  S   UNL     1      37.599 -24.192 -15.102  0.00  0.00    +0.009 S 
ATOM     22  O   UNL     1      39.042 -24.355 -15.102  0.00  0.00    -0.169 OA
ATOM     23  O   UNL     1      36.754 -25.149 -15.796  0.00  0.00    -0.169 OA
BRANCH  21  24
ATOM     24  C   UNL     1      37.085 -24.140 -13.411  0.00  0.00    +0.106 C 
ATOM     25  C   UNL     1      36.150 -25.056 -12.960  0.00  0.00    +0.018 C 
ATOM     26  C   UNL     1      37.628 -23.184 -12.569  0.00  0.00    +0.018 C 
ATOM     27  C   UNL     1      35.745 -25.014 -11.626  0.00  0.00    +0.001 C 
ATOM     28  C   UNL     1      37.223 -23.143 -11.235  0.00  0.00    +0.001 C 
ATOM     29  C   UNL     1      36.282 -24.057 -10.763  0.00  0.00    +0.000 C 
ENDBRANCH  21  24
ENDBRANCH  20  21
ENDBRANCH  19  20
ENDBRANCH   7  19
TORSDOF 6
ENDMDL
MODEL 4
REMARK VINA RESULT:     -10.5      4.772      8.115
REMARK  Name = 77993
REMARK  6 active torsions:
REMARK  status: ('A' for Active; 'I' for Inactive)
REMARK    1  A    between atoms: C_2  and  C_11
REMARK    2  A    between atoms: C_7  and  C_19
REMARK    3  A    between atoms: C_11  and  C_13
REMARK    4  A    between atoms: C_19  and  C_20
REMARK    5  A    between atoms: C_20  and  S_21
REMARK    6  A    between atoms: S_21  and  C_24
REMARK                            x       y       z     vdW  Elec       q    Type
REMARK                         _______ _______ _______ _____ _____    ______ ____
ROOT
ATOM      1  N   UNL     1      34.929 -19.104 -24.916  0.00  0.00    -0.312 N 
ATOM      2  C   UNL     1      35.445 -18.825 -22.795  0.00  0.00    -0.008 C 
ATOM      3  C   UNL     1      35.175 -17.549 -23.333  0.00  0.00    +0.010 C 
ATOM      4  C   UNL     1      35.291 -19.764 -23.772  0.00  0.00    +0.058 C 
ATOM      5  C   UNL     1      34.850 -17.750 -24.677  0.00  0.00    +0.048 C 
ATOM      6  C   UNL     1      35.170 -16.236 -22.823  0.00  0.00    -0.003 C 
ATOM      7  C   UNL     1      34.842 -15.175 -23.674  0.00  0.00    -0.020 C 
ATOM      8  C   UNL     1      34.520 -16.699 -25.539  0.00  0.00    +0.014 C 
ATOM      9  C   UNL     1      34.523 -15.404 -25.011  0.00  0.00    -0.003 C 
ATOM     10  H   UNL     1      34.750 -19.534 -25.783  0.00  0.00    +0.152 HD
ENDROOT
BRANCH   2  11
ATOM     11  C   UNL     1      35.839 -19.114 -21.379  0.00  0.00    +0.007 C 
BRANCH  11  13
ATOM     12  N   UNL     1      34.276 -20.643 -20.164  0.00  0.00    +0.387 N 
ATOM     13  C   UNL     1      35.506 -20.541 -20.962  0.00  0.00    -0.054 C 
ATOM     14  C   UNL     1      36.565 -21.119 -20.020  0.00  0.00    -0.023 C 
ATOM     15  C   UNL     1      35.804 -22.049 -19.082  0.00  0.00    -0.025 C 
ATOM     16  C   UNL     1      34.351 -21.957 -19.521  0.00  0.00    -0.077 C 
ATOM     17  C   UNL     1      33.060 -20.508 -20.959  0.00  0.00    -0.101 C 
ATOM     18  H   UNL     1      34.218 -19.880 -19.491  0.00  0.00    -0.080 HD
ENDBRANCH  11  13
ENDBRANCH   2  11
BRANCH   7  19
ATOM     19  C   UNL     1      34.836 -13.780 -23.140  0.00  0.00    +0.052 C 
BRANCH  19  20
ATOM     20  C   UNL     1      34.372 -13.670 -21.685  0.00  0.00    +0.161 C 
BRANCH  20  21
ATOM     21  S   UNL     1      32.613 -13.660 -21.536  0.00  0.00    +0.009 S 
ATOM     22  O   UNL     1      32.215 -14.724 -20.630  0.00  0.00    -0.169 OA
ATOM     23  O   UNL     1      32.054 -13.592 -22.875  0.00  0.00    -0.169 OA
BRANCH  21  24
ATOM     24  C   UNL     1      32.262 -12.131 -20.722  0.00  0.00    +0.106 C 
ATOM     25  C   UNL     1      32.261 -10.958 -21.457  0.00  0.00    +0.018 C 
ATOM     26  C   UNL     1      31.994 -12.134 -19.363  0.00  0.00    +0.018 C 
ATOM     27  C   UNL     1      31.984  -9.751 -20.815  0.00  0.00    +0.001 C 
ATOM     28  C   UNL     1      31.716 -10.927 -18.721  0.00  0.00    +0.001 C 
ATOM     29  C   UNL     1      31.712  -9.737 -19.446  0.00  0.00    +0.000 C 
ENDBRANCH  21  24
ENDBRANCH  20  21
ENDBRANCH  19  20
ENDBRANCH   7  19
TORSDOF 6
ENDMDL
MODEL 5
REMARK VINA RESULT:     -10.5      6.603     12.279
REMARK  Name = 77993
REMARK  6 active torsions:
REMARK  status: ('A' for Active; 'I' for Inactive)
REMARK    1  A    between atoms: C_2  and  C_11
REMARK    2  A    between atoms: C_7  and  C_19
REMARK    3  A    between atoms: C_11  and  C_13
REMARK    4  A    between atoms: C_19  and  C_20
REMARK    5  A    between atoms: C_20  and  S_21
REMARK    6  A    between atoms: S_21  and  C_24
REMARK                            x       y       z     vdW  Elec       q    Type
REMARK                         _______ _______ _______ _____ _____    ______ ____
ROOT
ATOM      1  N   UNL     1      31.449 -11.732 -20.520  0.00  0.00    -0.312 N 
ATOM      2  C   UNL     1      32.453 -11.143 -22.387  0.00  0.00    -0.008 C 
ATOM      3  C   UNL     1      32.919 -12.431 -22.046  0.00  0.00    +0.010 C 
ATOM      4  C   UNL     1      31.557 -10.730 -21.447  0.00  0.00    +0.058 C 
ATOM      5  C   UNL     1      32.270 -12.784 -20.860  0.00  0.00    +0.048 C 
ATOM      6  C   UNL     1      33.828 -13.343 -22.618  0.00  0.00    -0.003 C 
ATOM      7  C   UNL     1      34.053 -14.570 -21.986  0.00  0.00    -0.020 C 
ATOM      8  C   UNL     1      32.485 -14.006 -20.217  0.00  0.00    +0.014 C 
ATOM      9  C   UNL     1      33.392 -14.895 -20.803  0.00  0.00    -0.003 C 
ATOM     10  H   UNL     1      30.869 -11.705 -19.726  0.00  0.00    +0.152 HD
ENDROOT
BRANCH   2  11
ATOM     11  C   UNL     1      32.870 -10.350 -23.587  0.00  0.00    +0.007 C 
BRANCH  11  13
ATOM     12  N   UNL     1      32.389  -7.925 -23.968  0.00  0.00    +0.387 N 
ATOM     13  C   UNL     1      33.206  -8.905 -23.240  0.00  0.00    -0.054 C 
ATOM     14  C   UNL     1      34.630  -8.536 -23.666  0.00  0.00    -0.023 C 
ATOM     15  C   UNL     1      34.565  -7.063 -24.054  0.00  0.00    -0.025 C 
ATOM     16  C   UNL     1      33.115  -6.658 -23.841  0.00  0.00    -0.077 C 
ATOM     17  C   UNL     1      31.028  -7.814 -23.455  0.00  0.00    -0.101 C 
ATOM     18  H   UNL     1      32.264  -8.208 -24.940  0.00  0.00    -0.080 HD
ENDBRANCH  11  13
ENDBRANCH   2  11
BRANCH   7  19
ATOM     19  C   UNL     1      35.016 -15.541 -22.585  0.00  0.00    +0.052 C 
BRANCH  19  20
ATOM     20  C   UNL     1      35.371 -16.715 -21.668  0.00  0.00    +0.161 C 
BRANCH  20  21
ATOM     21  S   UNL     1      35.765 -18.181 -22.569  0.00  0.00    +0.009 S 
ATOM     22  O   UNL     1      37.209 -18.273 -22.704  0.00  0.00    -0.169 OA
ATOM     23  O   UNL     1      34.916 -18.221 -23.747  0.00  0.00    -0.169 OA
BRANCH  21  24
ATOM     24  C   UNL     1      35.264 -19.491 -21.493  0.00  0.00    +0.106 C 
ATOM     25  C   UNL     1      33.916 -19.776 -21.357  0.00  0.00    +0.018 C 
ATOM     26  C   UNL     1      36.229 -20.208 -20.805  0.00  0.00    +0.018 C 
ATOM     27  C   UNL     1      33.520 -20.810 -20.508  0.00  0.00    +0.001 C 
ATOM     28  C   UNL     1      35.832 -21.242 -19.957  0.00  0.00    +0.001 C 
ATOM     29  C   UNL     1      34.479 -21.543 -19.808  0.00  0.00    +0.000 C 
ENDBRANCH  21  24
ENDBRANCH  20  21
ENDBRANCH  19  20
ENDBRANCH   7  19
TORSDOF 6
ENDMDL
MODEL 6
REMARK VINA RESULT:     -10.4      7.100     12.219
REMARK  Name = 77993
REMARK  6 active torsions:
REMARK  status: ('A' for Active; 'I' for Inactive)
REMARK    1  A    between atoms: C_2  and  C_11
REMARK    2  A    between atoms: C_7  and  C_19
REMARK    3  A    between atoms: C_11  and  C_13
REMARK    4  A    between atoms: C_19  and  C_20
REMARK    5  A    between atoms: C_20  and  S_21
REMARK    6  A    between atoms: S_21  and  C_24
REMARK                            x       y       z     vdW  Elec       q    Type
REMARK                         _______ _______ _______ _____ _____    ______ ____
ROOT
ATOM      1  N   UNL     1      31.525 -11.947 -19.673  0.00  0.00    -0.312 N 
ATOM      2  C   UNL     1      31.753 -10.762 -21.513  0.00  0.00    -0.008 C 
ATOM      3  C   UNL     1      32.437 -11.980 -21.710  0.00  0.00    +0.010 C 
ATOM      4  C   UNL     1      31.202 -10.755 -20.266  0.00  0.00    +0.058 C 
ATOM      5  C   UNL     1      32.279 -12.715 -20.532  0.00  0.00    +0.048 C 
ATOM      6  C   UNL     1      33.178 -12.545 -22.767  0.00  0.00    -0.003 C 
ATOM      7  C   UNL     1      33.732 -13.819 -22.608  0.00  0.00    -0.020 C 
ATOM      8  C   UNL     1      32.827 -13.990 -20.359  0.00  0.00    +0.014 C 
ATOM      9  C   UNL     1      33.559 -14.529 -21.421  0.00  0.00    -0.003 C 
ATOM     10  H   UNL     1      31.257 -12.216 -18.765  0.00  0.00    +0.152 HD
ENDROOT
BRANCH   2  11
ATOM     11  C   UNL     1      31.644  -9.647 -22.508  0.00  0.00    +0.007 C 
BRANCH  11  13
ATOM     12  N   UNL     1      32.421  -7.274 -22.648  0.00  0.00    +0.387 N 
ATOM     13  C   UNL     1      32.811  -8.672 -22.419  0.00  0.00    -0.054 C 
ATOM     14  C   UNL     1      33.841  -8.918 -23.524  0.00  0.00    -0.023 C 
ATOM     15  C   UNL     1      34.407  -7.543 -23.860  0.00  0.00    -0.025 C 
ATOM     16  C   UNL     1      33.676  -6.576 -22.943  0.00  0.00    -0.077 C 
ATOM     17  C   UNL     1      31.732  -6.674 -21.512  0.00  0.00    -0.101 C 
ATOM     18  H   UNL     1      31.748  -7.207 -23.411  0.00  0.00    -0.080 HD
ENDBRANCH  11  13
ENDBRANCH   2  11
BRANCH   7  19
ATOM     19  C   UNL     1      34.520 -14.424 -23.723  0.00  0.00    +0.052 C 
BRANCH  19  20
ATOM     20  C   UNL     1      33.664 -15.116 -24.788  0.00  0.00    +0.161 C 
BRANCH  20  21
ATOM     21  S   UNL     1      34.505 -16.460 -25.563  0.00  0.00    +0.009 S 
ATOM     22  O   UNL     1      35.736 -15.963 -26.153  0.00  0.00    -0.169 OA
ATOM     23  O   UNL     1      33.540 -17.178 -26.378  0.00  0.00    -0.169 OA
BRANCH  21  24
ATOM     24  C   UNL     1      34.965 -17.509 -24.216  0.00  0.00    +0.106 C 
ATOM     25  C   UNL     1      35.641 -16.967 -23.136  0.00  0.00    +0.018 C 
ATOM     26  C   UNL     1      34.641 -18.854 -24.266  0.00  0.00    +0.018 C 
ATOM     27  C   UNL     1      36.003 -17.794 -22.074  0.00  0.00    +0.001 C 
ATOM     28  C   UNL     1      35.004 -19.682 -23.203  0.00  0.00    +0.001 C 
ATOM     29  C   UNL     1      35.684 -19.152 -22.108  0.00  0.00    +0.000 C 
ENDBRANCH  21  24
ENDBRANCH  20  21
ENDBRANCH  19  20
ENDBRANCH   7  19
TORSDOF 6
ENDMDL
MODEL 7
REMARK VINA RESULT:     -10.4      9.060     13.908
REMARK  Name = 77993
REMARK  6 active torsions:
REMARK  status: ('A' for Active; 'I' for Inactive)
REMARK    1  A    between atoms: C_2  and  C_11
REMARK    2  A    between atoms: C_7  and  C_19
REMARK    3  A    between atoms: C_11  and  C_13
REMARK    4  A    between atoms: C_19  and  C_20
REMARK    5  A    between atoms: C_20  and  S_21
REMARK    6  A    between atoms: S_21  and  C_24
REMARK                            x       y       z     vdW  Elec       q    Type
REMARK                         _______ _______ _______ _____ _____    ______ ____
ROOT
ATOM      1  N   UNL     1      32.019  -8.170 -19.646  0.00  0.00    -0.312 N 
ATOM      2  C   UNL     1      32.310  -8.426 -21.811  0.00  0.00    -0.008 C 
ATOM      3  C   UNL     1      32.239  -9.715 -21.241  0.00  0.00    +0.010 C 
ATOM      4  C   UNL     1      32.174  -7.494 -20.827  0.00  0.00    +0.058 C 
ATOM      5  C   UNL     1      32.054  -9.528 -19.868  0.00  0.00    +0.048 C 
ATOM      6  C   UNL     1      32.311 -11.030 -21.742  0.00  0.00    -0.003 C 
ATOM      7  C   UNL     1      32.197 -12.105 -20.855  0.00  0.00    -0.020 C 
ATOM      8  C   UNL     1      31.938 -10.594 -18.970  0.00  0.00    +0.014 C 
ATOM      9  C   UNL     1      32.014 -11.889 -19.490  0.00  0.00    -0.003 C 
ATOM     10  H   UNL     1      31.898  -7.746 -18.765  0.00  0.00    +0.152 HD
ENDROOT
BRANCH   2  11
ATOM     11  C   UNL     1      32.503  -8.121 -23.265  0.00  0.00    +0.007 C 
BRANCH  11  13
ATOM     12  N   UNL     1      32.290  -5.866 -24.327  0.00  0.00    +0.387 N 
ATOM     13  C   UNL     1      33.120  -6.748 -23.493  0.00  0.00    -0.054 C 
ATOM     14  C   UNL     1      34.422  -6.836 -24.293  0.00  0.00    -0.023 C 
ATOM     15  C   UNL     1      34.470  -5.561 -25.128  0.00  0.00    -0.025 C 
ATOM     16  C   UNL     1      33.198  -4.807 -24.776  0.00  0.00    -0.077 C 
ATOM     17  C   UNL     1      31.140  -5.318 -23.618  0.00  0.00    -0.101 C 
ATOM     18  H   UNL     1      31.880  -6.385 -25.103  0.00  0.00    -0.080 HD
ENDBRANCH  11  13
ENDBRANCH   2  11
BRANCH   7  19
ATOM     19  C   UNL     1      32.274 -13.502 -21.379  0.00  0.00    +0.052 C 
BRANCH  19  20
ATOM     20  C   UNL     1      32.580 -13.590 -22.877  0.00  0.00    +0.161 C 
BRANCH  20  21
ATOM     21  S   UNL     1      34.310 -13.691 -23.209  0.00  0.00    +0.009 S 
ATOM     22  O   UNL     1      35.023 -13.797 -21.948  0.00  0.00    -0.169 OA
ATOM     23  O   UNL     1      34.643 -12.637 -24.152  0.00  0.00    -0.169 OA
BRANCH  21  24
ATOM     24  C   UNL     1      34.496 -15.241 -24.039  0.00  0.00    +0.106 C 
ATOM     25  C   UNL     1      33.910 -15.417 -25.282  0.00  0.00    +0.018 C 
ATOM     26  C   UNL     1      35.225 -16.250 -23.432  0.00  0.00    +0.018 C 
ATOM     27  C   UNL     1      34.057 -16.640 -25.936  0.00  0.00    +0.001 C 
ATOM     28  C   UNL     1      35.371 -17.473 -24.088  0.00  0.00    +0.001 C 
ATOM     29  C   UNL     1      34.788 -17.667 -25.339  0.00  0.00    +0.000 C 
ENDBRANCH  21  24
ENDBRANCH  20  21
ENDBRANCH  19  20
ENDBRANCH   7  19
TORSDOF 6
ENDMDL
MODEL 8
REMARK VINA RESULT:     -10.3      4.379     10.202
REMARK  Name = 77993
REMARK  6 active torsions:
REMARK  status: ('A' for Active; 'I' for Inactive)
REMARK    1  A    between atoms: C_2  and  C_11
REMARK    2  A    between atoms: C_7  and  C_19
REMARK    3  A    between atoms: C_11  and  C_13
REMARK    4  A    between atoms: C_19  and  C_20
REMARK    5  A    between atoms: C_20  and  S_21
REMARK    6  A    between atoms: S_21  and  C_24
REMARK                            x       y       z     vdW  Elec       q    Type
REMARK                         _______ _______ _______ _____ _____    ______ ____
ROOT
ATOM      1  N   UNL     1      34.970 -17.116 -25.189  0.00  0.00    -0.312 N 
ATOM      2  C   UNL     1      34.988 -15.929 -23.336  0.00  0.00    -0.008 C 
ATOM      3  C   UNL     1      35.143 -17.283 -22.970  0.00  0.00    +0.010 C 
ATOM      4  C   UNL     1      34.884 -15.842 -24.692  0.00  0.00    +0.058 C 
ATOM      5  C   UNL     1      35.129 -18.017 -24.159  0.00  0.00    +0.048 C 
ATOM      6  C   UNL     1      35.295 -17.972 -21.750  0.00  0.00    -0.003 C 
ATOM      7  C   UNL     1      35.427 -19.365 -21.765  0.00  0.00    -0.020 C 
ATOM      8  C   UNL     1      35.259 -19.408 -24.189  0.00  0.00    +0.014 C 
ATOM      9  C   UNL     1      35.408 -20.071 -22.967  0.00  0.00    -0.003 C 
ATOM     10  H   UNL     1      34.925 -17.353 -26.142  0.00  0.00    +0.152 HD
ENDROOT
BRANCH   2  11
ATOM     11  C   UNL     1      34.944 -14.766 -22.393  0.00  0.00    +0.007 C 
BRANCH  11  13
ATOM     12  N   UNL     1      33.614 -12.660 -22.625  0.00  0.00    +0.387 N 
ATOM     13  C   UNL     1      33.574 -14.103 -22.351  0.00  0.00    -0.054 C 
ATOM     14  C   UNL     1      32.959 -14.160 -20.950  0.00  0.00    -0.023 C 
ATOM     15  C   UNL     1      32.144 -12.879 -20.815  0.00  0.00    -0.025 C 
ATOM     16  C   UNL     1      32.333 -12.146 -22.134  0.00  0.00    -0.077 C 
ATOM     17  C   UNL     1      33.809 -12.347 -24.036  0.00  0.00    -0.101 C 
ATOM     18  H   UNL     1      34.413 -12.227 -22.163  0.00  0.00    -0.080 HD
ENDBRANCH  11  13
ENDBRANCH   2  11
BRANCH   7  19
ATOM     19  C   UNL     1      35.587 -20.102 -20.476  0.00  0.00    +0.052 C 
BRANCH  19  20
ATOM     20  C   UNL     1      35.585 -21.626 -20.625  0.00  0.00    +0.161 C 
BRANCH  20  21
ATOM     21  S   UNL     1      34.418 -22.409 -19.557  0.00  0.00    +0.009 S 
ATOM     22  O   UNL     1      34.194 -23.766 -20.024  0.00  0.00    -0.169 OA
ATOM     23  O   UNL     1      33.298 -21.501 -19.382  0.00  0.00    -0.169 OA
BRANCH  21  24
ATOM     24  C   UNL     1      35.267 -22.528 -18.011  0.00  0.00    +0.106 C 
ATOM     25  C   UNL     1      36.557 -22.036 -17.908  0.00  0.00    +0.018 C 
ATOM     26  C   UNL     1      34.626 -23.112 -16.931  0.00  0.00    +0.018 C 
ATOM     27  C   UNL     1      37.226 -22.130 -16.688  0.00  0.00    +0.001 C 
ATOM     28  C   UNL     1      35.297 -23.206 -15.711  0.00  0.00    +0.001 C 
ATOM     29  C   UNL     1      36.596 -22.715 -15.590  0.00  0.00    +0.000 C 
ENDBRANCH  21  24
ENDBRANCH  20  21
ENDBRANCH  19  20
ENDBRANCH   7  19
TORSDOF 6
ENDMDL
MODEL 9
REMARK VINA RESULT:     -10.3      5.544     11.597
REMARK  Name = 77993
REMARK  6 active torsions:
REMARK  status: ('A' for Active; 'I' for Inactive)
REMARK    1  A    between atoms: C_2  and  C_11
REMARK    2  A    between atoms: C_7  and  C_19
REMARK    3  A    between atoms: C_11  and  C_13
REMARK    4  A    between atoms: C_19  and  C_20
REMARK    5  A    between atoms: C_20  and  S_21
REMARK    6  A    between atoms: S_21  and  C_24
REMARK                            x       y       z     vdW  Elec       q    Type
REMARK                         _______ _______ _______ _____ _____    ______ ____
ROOT
ATOM      1  N   UNL     1      33.464 -13.861 -26.765  0.00  0.00    -0.312 N 
ATOM      2  C   UNL     1      33.979 -12.543 -25.080  0.00  0.00    -0.008 C 
ATOM      3  C   UNL     1      34.319 -13.860 -24.703  0.00  0.00    +0.010 C 
ATOM      4  C   UNL     1      33.459 -12.559 -26.339  0.00  0.00    +0.058 C 
ATOM      5  C   UNL     1      33.984 -14.678 -25.786  0.00  0.00    +0.048 C 
ATOM      6  C   UNL     1      34.878 -14.453 -23.554  0.00  0.00    -0.003 C 
ATOM      7  C   UNL     1      35.082 -15.837 -23.530  0.00  0.00    -0.020 C 
ATOM      8  C   UNL     1      34.182 -16.062 -25.776  0.00  0.00    +0.014 C 
ATOM      9  C   UNL     1      34.738 -16.628 -24.625  0.00  0.00    -0.003 C 
ATOM     10  H   UNL     1      33.144 -14.168 -27.643  0.00  0.00    +0.152 HD
ENDROOT
BRANCH   2  11
ATOM     11  C   UNL     1      34.157 -11.318 -24.237  0.00  0.00    +0.007 C 
BRANCH  11  13
ATOM     12  N   UNL     1      32.998  -9.652 -22.774  0.00  0.00    +0.387 N 
ATOM     13  C   UNL     1      32.872 -10.905 -23.532  0.00  0.00    -0.054 C 
ATOM     14  C   UNL     1      32.469 -11.911 -22.450  0.00  0.00    -0.023 C 
ATOM     15  C   UNL     1      31.800 -11.083 -21.359  0.00  0.00    -0.025 C 
ATOM     16  C   UNL     1      31.854  -9.648 -21.858  0.00  0.00    -0.077 C 
ATOM     17  C   UNL     1      33.008  -8.465 -23.621  0.00  0.00    -0.101 C 
ATOM     18  H   UNL     1      33.892  -9.615 -22.285  0.00  0.00    -0.080 HD
ENDBRANCH  11  13
ENDBRANCH   2  11
BRANCH   7  19
ATOM     19  C   UNL     1      35.673 -16.472 -22.315  0.00  0.00    +0.052 C 
BRANCH  19  20
ATOM     20  C   UNL     1      34.933 -17.728 -21.845  0.00  0.00    +0.161 C 
BRANCH  20  21
ATOM     21  S   UNL     1      35.852 -19.205 -22.141  0.00  0.00    +0.009 S 
ATOM     22  O   UNL     1      37.243 -18.967 -21.797  0.00  0.00    -0.169 OA
ATOM     23  O   UNL     1      35.498 -19.691 -23.464  0.00  0.00    -0.169 OA
BRANCH  21  24
ATOM     24  C   UNL     1      35.215 -20.349 -20.954  0.00  0.00    +0.106 C 
ATOM     25  C   UNL     1      33.846 -20.446 -20.774  0.00  0.00    +0.018 C 
ATOM     26  C   UNL     1      36.098 -21.129 -20.225  0.00  0.00    +0.018 C 
ATOM     27  C   UNL     1      33.343 -21.349 -19.838  0.00  0.00    +0.001 C 
ATOM     28  C   UNL     1      35.595 -22.033 -19.289  0.00  0.00    +0.001 C 
ATOM     29  C   UNL     1      34.218 -22.143 -19.095  0.00  0.00    +0.000 C 
ENDBRANCH  21  24
ENDBRANCH  20  21
ENDBRANCH  19  20
ENDBRANCH   7  19
TORSDOF 6
ENDMDL
