MODEL 1
REMARK VINA RESULT:     -12.2      0.000      0.000
REMARK  Name = 11987860
REMARK  5 active torsions:
REMARK  status: ('A' for Active; 'I' for Inactive)
REMARK    1  A    between atoms: N_2  and  C_19
REMARK    2  A    between atoms: C_3  and  C_11
REMARK    3  A    between atoms: N_9  and  O_17
REMARK    4  A    between atoms: C_19  and  C_20
REMARK    5  A    between atoms: C_23  and  C_26
REMARK                            x       y       z     vdW  Elec       q    Type
REMARK                         _______ _______ _______ _____ _____    ______ ____
ROOT
ATOM      1  O   UNL     1      34.103 -24.350 -15.274  0.00  0.00    -0.272 OA
ATOM      2  N   UNL     1      34.984 -23.562 -17.279  0.00  0.00    -0.298 N 
ATOM      3  C   UNL     1      35.048 -24.168 -16.037  0.00  0.00    +0.253 C 
ATOM      4  H   UNL     1      35.814 -23.473 -17.801  0.00  0.00    +0.150 HD
ENDROOT
BRANCH   3  11
ATOM      5  O   UNL     1      37.259 -22.916 -14.412  0.00  0.00    -0.327 OA
ATOM      6  O   UNL     1      36.381 -25.065 -14.341  0.00  0.00    -0.320 OA
ATOM      7  O   UNL     1      41.008 -25.783 -15.907  0.00  0.00    -0.250 OA
ATOM      8  N   UNL     1      39.245 -24.879 -14.696  0.00  0.00    -0.255 N 
ATOM      9  N   UNL     1      40.602 -26.573 -13.795  0.00  0.00    -0.181 N 
ATOM     10  C   UNL     1      37.436 -23.487 -15.715  0.00  0.00    +0.174 C 
ATOM     11  C   UNL     1      36.431 -24.627 -15.701  0.00  0.00    +0.222 C 
ATOM     12  C   UNL     1      37.153 -24.099 -13.613  0.00  0.00    +0.256 C 
ATOM     13  C   UNL     1      38.888 -23.969 -15.794  0.00  0.00    +0.128 C 
ATOM     14  C   UNL     1      38.560 -24.660 -13.406  0.00  0.00    +0.156 C 
ATOM     15  C   UNL     1      40.337 -25.750 -14.870  0.00  0.00    +0.326 C 
ATOM     16  H   UNL     1      40.069 -26.548 -12.969  0.00  0.00    +0.184 HD
BRANCH   9  17
ATOM     17  O   UNL     1      41.686 -27.448 -13.963  0.00  0.00    -0.294 OA
ATOM     18  H   UNL     1      42.501 -26.935 -14.088  0.00  0.00    +0.241 HD
ENDBRANCH   9  17
ENDBRANCH   3  11
BRANCH   2  19
ATOM     19  C   UNL     1      33.756 -23.051 -17.847  0.00  0.00    +0.116 C 
BRANCH  19  20
ATOM     20  C   UNL     1      34.052 -22.076 -18.952  0.00  0.00    -0.003 C 
ATOM     21  C   UNL     1      35.370 -21.851 -19.333  0.00  0.00    -0.003 C 
ATOM     22  C   UNL     1      33.006 -21.412 -19.579  0.00  0.00    -0.003 C 
ATOM     23  C   UNL     1      34.600 -20.274 -20.993  0.00  0.00    -0.000 C 
ATOM     24  C   UNL     1      35.643 -20.946 -20.358  0.00  0.00    -0.000 C 
ATOM     25  C   UNL     1      33.281 -20.507 -20.604  0.00  0.00    -0.000 C 
BRANCH  23  26
ATOM     26  C   UNL     1      34.884 -19.335 -22.058  0.00  0.00    -0.000 C 
ATOM     27  C   UNL     1      34.598 -19.674 -23.380  0.00  0.00    -0.000 C 
ATOM     28  C   UNL     1      35.443 -18.093 -21.761  0.00  0.00    -0.000 C 
ATOM     29  C   UNL     1      34.871 -18.769 -24.406  0.00  0.00    +0.000 C 
ATOM     30  C   UNL     1      35.716 -17.188 -22.786  0.00  0.00    +0.000 C 
ATOM     31  C   UNL     1      35.431 -17.526 -24.109  0.00  0.00    +0.000 C 
ENDBRANCH  23  26
ENDBRANCH  19  20
ENDBRANCH   2  19
TORSDOF 5
ENDMDL
MODEL 2
REMARK VINA RESULT:     -11.8      8.624     13.013
REMARK  Name = 11987860
REMARK  5 active torsions:
REMARK  status: ('A' for Active; 'I' for Inactive)
REMARK    1  A    between atoms: N_2  and  C_19
REMARK    2  A    between atoms: C_3  and  C_11
REMARK    3  A    between atoms: N_9  and  O_17
REMARK    4  A    between atoms: C_19  and  C_20
REMARK    5  A    between atoms: C_23  and  C_26
REMARK                            x       y       z     vdW  Elec       q    Type
REMARK                         _______ _______ _______ _____ _____    ______ ____
ROOT
ATOM      1  O   UNL     1      33.081 -15.096 -26.632  0.00  0.00    -0.272 OA
ATOM      2  N   UNL     1      34.563 -15.354 -24.855  0.00  0.00    -0.298 N 
ATOM      3  C   UNL     1      33.574 -14.708 -25.576  0.00  0.00    +0.253 C 
ATOM      4  H   UNL     1      34.878 -14.942 -24.018  0.00  0.00    +0.150 HD
ENDROOT
BRANCH   3  11
ATOM      5  O   UNL     1      34.918 -12.853 -23.615  0.00  0.00    -0.327 OA
ATOM      6  O   UNL     1      33.787 -12.382 -25.588  0.00  0.00    -0.320 OA
ATOM      7  O   UNL     1      30.935 -10.316 -22.128  0.00  0.00    -0.250 OA
ATOM      8  N   UNL     1      32.867 -10.974 -23.235  0.00  0.00    -0.255 N 
ATOM      9  N   UNL     1      31.993  -8.808 -23.491  0.00  0.00    -0.181 N 
ATOM     10  C   UNL     1      33.584 -13.358 -23.467  0.00  0.00    +0.174 C 
ATOM     11  C   UNL     1      33.118 -13.449 -24.910  0.00  0.00    +0.222 C 
ATOM     12  C   UNL     1      34.719 -11.862 -24.628  0.00  0.00    +0.256 C 
ATOM     13  C   UNL     1      32.806 -12.322 -22.650  0.00  0.00    +0.128 C 
ATOM     14  C   UNL     1      34.100 -10.628 -23.972  0.00  0.00    +0.156 C 
ATOM     15  C   UNL     1      31.864 -10.046 -22.896  0.00  0.00    +0.326 C 
ATOM     16  H   UNL     1      32.732  -8.592 -24.102  0.00  0.00    +0.184 HD
BRANCH   9  17
ATOM     17  O   UNL     1      30.994  -7.879 -23.162  0.00  0.00    -0.294 OA
ATOM     18  H   UNL     1      31.378  -7.170 -22.620  0.00  0.00    +0.241 HD
ENDBRANCH   9  17
ENDBRANCH   3  11
BRANCH   2  19
ATOM     19  C   UNL     1      35.157 -16.604 -25.273  0.00  0.00    +0.116 C 
BRANCH  19  20
ATOM     20  C   UNL     1      35.169 -17.588 -24.136  0.00  0.00    -0.003 C 
ATOM     21  C   UNL     1      35.644 -17.191 -22.892  0.00  0.00    -0.003 C 
ATOM     22  C   UNL     1      34.707 -18.880 -24.343  0.00  0.00    -0.003 C 
ATOM     23  C   UNL     1      35.193 -19.403 -22.035  0.00  0.00    -0.000 C 
ATOM     24  C   UNL     1      35.656 -18.103 -21.837  0.00  0.00    -0.000 C 
ATOM     25  C   UNL     1      34.719 -19.792 -23.288  0.00  0.00    -0.000 C 
BRANCH  23  26
ATOM     26  C   UNL     1      35.205 -20.351 -20.940  0.00  0.00    -0.000 C 
ATOM     27  C   UNL     1      34.007 -20.890 -20.473  0.00  0.00    -0.000 C 
ATOM     28  C   UNL     1      36.414 -20.724 -20.355  0.00  0.00    -0.000 C 
ATOM     29  C   UNL     1      34.017 -21.804 -19.419  0.00  0.00    +0.000 C 
ATOM     30  C   UNL     1      36.425 -21.638 -19.301  0.00  0.00    +0.000 C 
ATOM     31  C   UNL     1      35.227 -22.178 -18.832  0.00  0.00    +0.000 C 
ENDBRANCH  23  26
ENDBRANCH  19  20
ENDBRANCH   2  19
TORSDOF 5
ENDMDL
MODEL 3
REMARK VINA RESULT:     -11.0      2.050      2.856
REMARK  Name = 11987860
REMARK  5 active torsions:
REMARK  status: ('A' for Active; 'I' for Inactive)
REMARK    1  A    between atoms: N_2  and  C_19
REMARK    2  A    between atoms: C_3  and  C_11
REMARK    3  A    between atoms: N_9  and  O_17
REMARK    4  A    between atoms: C_19  and  C_20
REMARK    5  A    between atoms: C_23  and  C_26
REMARK                            x       y       z     vdW  Elec       q    Type
REMARK                         _______ _______ _______ _____ _____    ______ ____
ROOT
ATOM      1  O   UNL     1      32.693 -23.778 -15.692  0.00  0.00    -0.272 OA
ATOM      2  N   UNL     1      34.336 -23.303 -17.271  0.00  0.00    -0.298 N 
ATOM      3  C   UNL     1      33.861 -23.546 -15.994  0.00  0.00    +0.253 C 
ATOM      4  H   UNL     1      35.298 -23.129 -17.388  0.00  0.00    +0.150 HD
ENDROOT
BRANCH   3  11
ATOM      5  O   UNL     1      35.042 -25.704 -14.248  0.00  0.00    -0.327 OA
ATOM      6  O   UNL     1      36.088 -24.127 -15.595  0.00  0.00    -0.320 OA
ATOM      7  O   UNL     1      37.478 -22.824 -11.040  0.00  0.00    -0.250 OA
ATOM      8  N   UNL     1      36.944 -24.199 -12.833  0.00  0.00    -0.255 N 
ATOM      9  N   UNL     1      39.175 -23.659 -12.334  0.00  0.00    -0.181 N 
ATOM     10  C   UNL     1      34.638 -24.411 -13.776  0.00  0.00    +0.174 C 
ATOM     11  C   UNL     1      34.951 -23.526 -14.971  0.00  0.00    +0.222 C 
ATOM     12  C   UNL     1      36.267 -25.376 -14.911  0.00  0.00    +0.256 C 
ATOM     13  C   UNL     1      35.504 -24.095 -12.553  0.00  0.00    +0.128 C 
ATOM     14  C   UNL     1      37.349 -25.194 -13.847  0.00  0.00    +0.156 C 
ATOM     15  C   UNL     1      37.845 -23.512 -11.998  0.00  0.00    +0.326 C 
ATOM     16  H   UNL     1      39.469 -24.206 -13.096  0.00  0.00    +0.184 HD
BRANCH   9  17
ATOM     17  O   UNL     1      40.080 -22.972 -11.509  0.00  0.00    -0.294 OA
ATOM     18  H   UNL     1      40.963 -23.364 -11.601  0.00  0.00    +0.241 HD
ENDBRANCH   9  17
ENDBRANCH   3  11
BRANCH   2  19
ATOM     19  C   UNL     1      33.487 -23.290 -18.441  0.00  0.00    +0.116 C 
BRANCH  19  20
ATOM     20  C   UNL     1      33.889 -22.181 -19.372  0.00  0.00    -0.003 C 
ATOM     21  C   UNL     1      32.917 -21.329 -19.883  0.00  0.00    -0.003 C 
ATOM     22  C   UNL     1      35.226 -22.020 -19.711  0.00  0.00    -0.003 C 
ATOM     23  C   UNL     1      34.630 -20.130 -21.093  0.00  0.00    -0.000 C 
ATOM     24  C   UNL     1      33.290 -20.299 -20.747  0.00  0.00    -0.000 C 
ATOM     25  C   UNL     1      35.598 -20.990 -20.575  0.00  0.00    -0.000 C 
BRANCH  23  26
ATOM     26  C   UNL     1      35.017 -19.061 -21.989  0.00  0.00    -0.000 C 
ATOM     27  C   UNL     1      35.368 -17.813 -21.474  0.00  0.00    -0.000 C 
ATOM     28  C   UNL     1      35.041 -19.280 -23.365  0.00  0.00    -0.000 C 
ATOM     29  C   UNL     1      35.743 -16.783 -22.337  0.00  0.00    +0.000 C 
ATOM     30  C   UNL     1      35.415 -18.251 -24.229  0.00  0.00    +0.000 C 
ATOM     31  C   UNL     1      35.766 -17.002 -23.715  0.00  0.00    +0.000 C 
ENDBRANCH  23  26
ENDBRANCH  19  20
ENDBRANCH   2  19
TORSDOF 5
ENDMDL
MODEL 4
REMARK VINA RESULT:     -10.9     10.781     14.560
REMARK  Name = 11987860
REMARK  5 active torsions:
REMARK  status: ('A' for Active; 'I' for Inactive)
REMARK    1  A    between atoms: N_2  and  C_19
REMARK    2  A    between atoms: C_3  and  C_11
REMARK    3  A    between atoms: N_9  and  O_17
REMARK    4  A    between atoms: C_19  and  C_20
REMARK    5  A    between atoms: C_23  and  C_26
REMARK                            x       y       z     vdW  Elec       q    Type
REMARK                         _______ _______ _______ _____ _____    ______ ____
ROOT
ATOM      1  O   UNL     1      31.431 -12.287 -21.145  0.00  0.00    -0.272 OA
ATOM      2  N   UNL     1      32.465 -10.842 -22.649  0.00  0.00    -0.298 N 
ATOM      3  C   UNL     1      32.109 -12.082 -22.148  0.00  0.00    +0.253 C 
ATOM      4  H   UNL     1      33.013 -10.806 -23.466  0.00  0.00    +0.150 HD
ENDROOT
BRANCH   3  11
ATOM      5  O   UNL     1      34.893 -12.837 -23.031  0.00  0.00    -0.327 OA
ATOM      6  O   UNL     1      33.217 -14.138 -22.085  0.00  0.00    -0.320 OA
ATOM      7  O   UNL     1      33.703 -16.036 -26.617  0.00  0.00    -0.250 OA
ATOM      8  N   UNL     1      34.315 -15.106 -24.580  0.00  0.00    -0.255 N 
ATOM      9  N   UNL     1      34.414 -17.426 -24.939  0.00  0.00    -0.181 N 
ATOM     10  C   UNL     1      33.758 -12.763 -23.905  0.00  0.00    +0.174 C 
ATOM     11  C   UNL     1      32.626 -13.203 -22.992  0.00  0.00    +0.222 C 
ATOM     12  C   UNL     1      34.626 -14.065 -22.348  0.00  0.00    +0.256 C 
ATOM     13  C   UNL     1      34.019 -13.745 -25.052  0.00  0.00    +0.128 C 
ATOM     14  C   UNL     1      35.005 -15.218 -23.278  0.00  0.00    +0.156 C 
ATOM     15  C   UNL     1      34.117 -16.185 -25.462  0.00  0.00    +0.326 C 
ATOM     16  H   UNL     1      34.743 -17.545 -24.020  0.00  0.00    +0.184 HD
BRANCH   9  17
ATOM     17  O   UNL     1      34.213 -18.507 -25.811  0.00  0.00    -0.294 OA
ATOM     18  H   UNL     1      33.984 -19.299 -25.298  0.00  0.00    +0.241 HD
ENDBRANCH   9  17
ENDBRANCH   3  11
BRANCH   2  19
ATOM     19  C   UNL     1      32.070  -9.597 -22.030  0.00  0.00    +0.116 C 
BRANCH  19  20
ATOM     20  C   UNL     1      32.475  -8.430 -22.887  0.00  0.00    -0.003 C 
ATOM     21  C   UNL     1      33.798  -8.003 -22.881  0.00  0.00    -0.003 C 
ATOM     22  C   UNL     1      31.524  -7.793 -23.673  0.00  0.00    -0.003 C 
ATOM     23  C   UNL     1      33.226  -6.274 -24.469  0.00  0.00    -0.000 C 
ATOM     24  C   UNL     1      34.173  -6.920 -23.676  0.00  0.00    -0.000 C 
ATOM     25  C   UNL     1      31.901  -6.711 -24.467  0.00  0.00    -0.000 C 
BRANCH  23  26
ATOM     26  C   UNL     1      33.616  -5.151 -25.295  0.00  0.00    -0.000 C 
ATOM     27  C   UNL     1      34.804  -5.202 -26.024  0.00  0.00    -0.000 C 
ATOM     28  C   UNL     1      32.803  -4.020 -25.362  0.00  0.00    -0.000 C 
ATOM     29  C   UNL     1      35.179  -4.120 -26.821  0.00  0.00    +0.000 C 
ATOM     30  C   UNL     1      33.178  -2.938 -26.158  0.00  0.00    +0.000 C 
ATOM     31  C   UNL     1      34.367  -2.987 -26.887  0.00  0.00    +0.000 C 
ENDBRANCH  23  26
ENDBRANCH  19  20
ENDBRANCH   2  19
TORSDOF 5
ENDMDL
MODEL 5
REMARK VINA RESULT:     -10.9      4.036      6.575
REMARK  Name = 11987860
REMARK  5 active torsions:
REMARK  status: ('A' for Active; 'I' for Inactive)
REMARK    1  A    between atoms: N_2  and  C_19
REMARK    2  A    between atoms: C_3  and  C_11
REMARK    3  A    between atoms: N_9  and  O_17
REMARK    4  A    between atoms: C_19  and  C_20
REMARK    5  A    between atoms: C_23  and  C_26
REMARK                            x       y       z     vdW  Elec       q    Type
REMARK                         _______ _______ _______ _____ _____    ______ ____
ROOT
ATOM      1  O   UNL     1      34.677 -24.003 -16.772  0.00  0.00    -0.272 OA
ATOM      2  N   UNL     1      34.089 -22.442 -18.396  0.00  0.00    -0.298 N 
ATOM      3  C   UNL     1      33.838 -23.328 -17.362  0.00  0.00    +0.253 C 
ATOM      4  H   UNL     1      33.329 -21.955 -18.791  0.00  0.00    +0.150 HD
ENDROOT
BRANCH   3  11
ATOM      5  O   UNL     1      32.416 -24.143 -14.830  0.00  0.00    -0.327 OA
ATOM      6  O   UNL     1      32.166 -22.243 -16.143  0.00  0.00    -0.320 OA
ATOM      7  O   UNL     1      27.825 -24.542 -16.642  0.00  0.00    -0.250 OA
ATOM      8  N   UNL     1      29.751 -23.745 -15.618  0.00  0.00    -0.255 N 
ATOM      9  N   UNL     1      27.715 -22.582 -15.461  0.00  0.00    -0.181 N 
ATOM     10  C   UNL     1      32.047 -24.584 -16.144  0.00  0.00    +0.174 C 
ATOM     11  C   UNL     1      32.389 -23.371 -16.993  0.00  0.00    +0.222 C 
ATOM     12  C   UNL     1      31.914 -22.804 -14.846  0.00  0.00    +0.256 C 
ATOM     13  C   UNL     1      30.545 -24.883 -16.105  0.00  0.00    +0.128 C 
ATOM     14  C   UNL     1      30.401 -22.860 -14.630  0.00  0.00    +0.156 C 
ATOM     15  C   UNL     1      28.385 -23.682 -15.954  0.00  0.00    +0.326 C 
ATOM     16  H   UNL     1      28.160 -21.896 -14.913  0.00  0.00    +0.184 HD
BRANCH   9  17
ATOM     17  O   UNL     1      26.354 -22.509 -15.796  0.00  0.00    -0.294 OA
ATOM     18  H   UNL     1      25.841 -22.253 -15.013  0.00  0.00    +0.241 HD
ENDBRANCH   9  17
ENDBRANCH   3  11
BRANCH   2  19
ATOM     19  C   UNL     1      35.412 -22.200 -18.925  0.00  0.00    +0.116 C 
BRANCH  19  20
ATOM     20  C   UNL     1      35.362 -21.167 -20.016  0.00  0.00    -0.003 C 
ATOM     21  C   UNL     1      34.144 -20.851 -20.606  0.00  0.00    -0.003 C 
ATOM     22  C   UNL     1      36.533 -20.541 -20.422  0.00  0.00    -0.003 C 
ATOM     23  C   UNL     1      35.269 -19.259 -22.032  0.00  0.00    -0.000 C 
ATOM     24  C   UNL     1      34.098 -19.893 -21.618  0.00  0.00    -0.000 C 
ATOM     25  C   UNL     1      36.487 -19.583 -21.434  0.00  0.00    -0.000 C 
BRANCH  23  26
ATOM     26  C   UNL     1      35.221 -18.264 -23.082  0.00  0.00    -0.000 C 
ATOM     27  C   UNL     1      34.806 -18.622 -24.365  0.00  0.00    -0.000 C 
ATOM     28  C   UNL     1      35.589 -16.946 -22.811  0.00  0.00    -0.000 C 
ATOM     29  C   UNL     1      34.759 -17.663 -25.377  0.00  0.00    +0.000 C 
ATOM     30  C   UNL     1      35.542 -15.987 -23.822  0.00  0.00    +0.000 C 
ATOM     31  C   UNL     1      35.128 -16.345 -25.106  0.00  0.00    +0.000 C 
ENDBRANCH  23  26
ENDBRANCH  19  20
ENDBRANCH   2  19
TORSDOF 5
ENDMDL
MODEL 6
REMARK VINA RESULT:     -10.7      8.408     12.488
REMARK  Name = 11987860
REMARK  5 active torsions:
REMARK  status: ('A' for Active; 'I' for Inactive)
REMARK    1  A    between atoms: N_2  and  C_19
REMARK    2  A    between atoms: C_3  and  C_11
REMARK    3  A    between atoms: N_9  and  O_17
REMARK    4  A    between atoms: C_19  and  C_20
REMARK    5  A    between atoms: C_23  and  C_26
REMARK                            x       y       z     vdW  Elec       q    Type
REMARK                         _______ _______ _______ _____ _____    ______ ____
ROOT
ATOM      1  O   UNL     1      33.066 -14.220 -25.144  0.00  0.00    -0.272 OA
ATOM      2  N   UNL     1      34.935 -14.508 -23.786  0.00  0.00    -0.298 N 
ATOM      3  C   UNL     1      33.779 -13.873 -24.206  0.00  0.00    +0.253 C 
ATOM      4  H   UNL     1      35.423 -14.132 -23.017  0.00  0.00    +0.150 HD
ENDROOT
BRANCH   3  11
ATOM      5  O   UNL     1      31.885 -13.500 -21.888  0.00  0.00    -0.327 OA
ATOM      6  O   UNL     1      34.115 -12.889 -22.114  0.00  0.00    -0.320 OA
ATOM      7  O   UNL     1      31.779  -8.551 -21.792  0.00  0.00    -0.250 OA
ATOM      8  N   UNL     1      32.293 -10.774 -21.359  0.00  0.00    -0.255 N 
ATOM      9  N   UNL     1      33.087  -9.047 -19.977  0.00  0.00    -0.181 N 
ATOM     10  C   UNL     1      31.968 -12.618 -23.016  0.00  0.00    +0.174 C 
ATOM     11  C   UNL     1      33.446 -12.684 -23.362  0.00  0.00    +0.222 C 
ATOM     12  C   UNL     1      33.062 -13.126 -21.167  0.00  0.00    +0.256 C 
ATOM     13  C   UNL     1      31.529 -11.234 -22.528  0.00  0.00    +0.128 C 
ATOM     14  C   UNL     1      32.772 -11.818 -20.430  0.00  0.00    +0.156 C 
ATOM     15  C   UNL     1      32.346  -9.393 -21.088  0.00  0.00    +0.326 C 
ATOM     16  H   UNL     1      33.539  -9.716 -19.416  0.00  0.00    +0.184 HD
BRANCH   9  17
ATOM     17  O   UNL     1      33.149  -7.671 -19.704  0.00  0.00    -0.294 OA
ATOM     18  H   UNL     1      33.249  -7.536 -18.748  0.00  0.00    +0.241 HD
ENDBRANCH   9  17
ENDBRANCH   3  11
BRANCH   2  19
ATOM     19  C   UNL     1      35.460 -15.695 -24.422  0.00  0.00    +0.116 C 
BRANCH  19  20
ATOM     20  C   UNL     1      35.349 -16.879 -23.501  0.00  0.00    -0.003 C 
ATOM     21  C   UNL     1      35.482 -16.695 -22.130  0.00  0.00    -0.003 C 
ATOM     22  C   UNL     1      35.116 -18.140 -24.032  0.00  0.00    -0.003 C 
ATOM     23  C   UNL     1      35.145 -19.064 -21.800  0.00  0.00    -0.000 C 
ATOM     24  C   UNL     1      35.379 -17.794 -21.277  0.00  0.00    -0.000 C 
ATOM     25  C   UNL     1      35.014 -19.238 -23.178  0.00  0.00    -0.000 C 
BRANCH  23  26
ATOM     26  C   UNL     1      35.038 -20.204 -20.914  0.00  0.00    -0.000 C 
ATOM     27  C   UNL     1      36.191 -20.823 -20.432  0.00  0.00    -0.000 C 
ATOM     28  C   UNL     1      33.782 -20.681 -20.542  0.00  0.00    -0.000 C 
ATOM     29  C   UNL     1      36.088 -21.921 -19.577  0.00  0.00    +0.000 C 
ATOM     30  C   UNL     1      33.678 -21.779 -19.688  0.00  0.00    +0.000 C 
ATOM     31  C   UNL     1      34.831 -22.400 -19.205  0.00  0.00    +0.000 C 
ENDBRANCH  23  26
ENDBRANCH  19  20
ENDBRANCH   2  19
TORSDOF 5
ENDMDL
MODEL 7
REMARK VINA RESULT:     -10.0      3.163      4.996
REMARK  Name = 11987860
REMARK  5 active torsions:
REMARK  status: ('A' for Active; 'I' for Inactive)
REMARK    1  A    between atoms: N_2  and  C_19
REMARK    2  A    between atoms: C_3  and  C_11
REMARK    3  A    between atoms: N_9  and  O_17
REMARK    4  A    between atoms: C_19  and  C_20
REMARK    5  A    between atoms: C_23  and  C_26
REMARK                            x       y       z     vdW  Elec       q    Type
REMARK                         _______ _______ _______ _____ _____    ______ ____
ROOT
ATOM      1  O   UNL     1      37.471 -22.067 -16.094  0.00  0.00    -0.272 OA
ATOM      2  N   UNL     1      36.232 -21.860 -18.054  0.00  0.00    -0.298 N 
ATOM      3  C   UNL     1      36.410 -22.134 -16.709  0.00  0.00    +0.253 C 
ATOM      4  H   UNL     1      35.328 -21.950 -18.435  0.00  0.00    +0.150 HD
ENDROOT
BRANCH   3  11
ATOM      5  O   UNL     1      34.769 -24.664 -16.747  0.00  0.00    -0.327 OA
ATOM      6  O   UNL     1      35.495 -23.377 -14.955  0.00  0.00    -0.320 OA
ATOM      7  O   UNL     1      30.586 -22.877 -14.791  0.00  0.00    -0.250 OA
ATOM      8  N   UNL     1      32.653 -23.899 -15.068  0.00  0.00    -0.255 N 
ATOM      9  N   UNL     1      31.463 -24.083 -13.051  0.00  0.00    -0.181 N 
ATOM     10  C   UNL     1      34.230 -23.348 -16.928  0.00  0.00    +0.174 C 
ATOM     11  C   UNL     1      35.130 -22.512 -16.034  0.00  0.00    +0.222 C 
ATOM     12  C   UNL     1      34.997 -24.669 -15.335  0.00  0.00    +0.256 C 
ATOM     13  C   UNL     1      32.778 -23.392 -16.443  0.00  0.00    +0.128 C 
ATOM     14  C   UNL     1      33.656 -24.894 -14.637  0.00  0.00    +0.156 C 
ATOM     15  C   UNL     1      31.498 -23.572 -14.332  0.00  0.00    +0.326 C 
ATOM     16  H   UNL     1      32.188 -24.636 -12.684  0.00  0.00    +0.184 HD
BRANCH   9  17
ATOM     17  O   UNL     1      30.317 -23.757 -12.308  0.00  0.00    -0.294 OA
ATOM     18  H   UNL     1      30.538 -23.072 -11.657  0.00  0.00    +0.241 HD
ENDBRANCH   9  17
ENDBRANCH   3  11
BRANCH   2  19
ATOM     19  C   UNL     1      37.309 -21.451 -18.927  0.00  0.00    +0.116 C 
BRANCH  19  20
ATOM     20  C   UNL     1      36.778 -20.635 -20.072  0.00  0.00    -0.003 C 
ATOM     21  C   UNL     1      37.564 -19.627 -20.618  0.00  0.00    -0.003 C 
ATOM     22  C   UNL     1      35.509 -20.898 -20.572  0.00  0.00    -0.003 C 
ATOM     23  C   UNL     1      35.799 -19.127 -22.189  0.00  0.00    -0.000 C 
ATOM     24  C   UNL     1      37.071 -18.871 -21.681  0.00  0.00    -0.000 C 
ATOM     25  C   UNL     1      35.017 -20.141 -21.635  0.00  0.00    -0.000 C 
BRANCH  23  26
ATOM     26  C   UNL     1      35.288 -18.342 -23.293  0.00  0.00    -0.000 C 
ATOM     27  C   UNL     1      34.605 -18.968 -24.336  0.00  0.00    -0.000 C 
ATOM     28  C   UNL     1      35.476 -16.961 -23.312  0.00  0.00    -0.000 C 
ATOM     29  C   UNL     1      34.112 -18.212 -25.400  0.00  0.00    +0.000 C 
ATOM     30  C   UNL     1      34.983 -16.204 -24.375  0.00  0.00    +0.000 C 
ATOM     31  C   UNL     1      34.301 -16.830 -25.420  0.00  0.00    +0.000 C 
ENDBRANCH  23  26
ENDBRANCH  19  20
ENDBRANCH   2  19
TORSDOF 5
ENDMDL
MODEL 8
REMARK VINA RESULT:      -9.9      2.935      5.465
REMARK  Name = 11987860
REMARK  5 active torsions:
REMARK  status: ('A' for Active; 'I' for Inactive)
REMARK    1  A    between atoms: N_2  and  C_19
REMARK    2  A    between atoms: C_3  and  C_11
REMARK    3  A    between atoms: N_9  and  O_17
REMARK    4  A    between atoms: C_19  and  C_20
REMARK    5  A    between atoms: C_23  and  C_26
REMARK                            x       y       z     vdW  Elec       q    Type
REMARK                         _______ _______ _______ _____ _____    ______ ____
ROOT
ATOM      1  O   UNL     1      36.868 -23.998 -16.021  0.00  0.00    -0.272 OA
ATOM      2  N   UNL     1      35.765 -22.550 -17.473  0.00  0.00    -0.298 N 
ATOM      3  C   UNL     1      35.838 -23.525 -16.492  0.00  0.00    +0.253 C 
ATOM      4  H   UNL     1      34.875 -22.250 -17.770  0.00  0.00    +0.150 HD
ENDROOT
BRANCH   3  11
ATOM      5  O   UNL     1      33.153 -22.150 -16.515  0.00  0.00    -0.327 OA
ATOM      6  O   UNL     1      33.745 -24.291 -17.194  0.00  0.00    -0.320 OA
ATOM      7  O   UNL     1      30.767 -25.108 -13.341  0.00  0.00    -0.250 OA
ATOM      8  N   UNL     1      31.584 -24.123 -15.279  0.00  0.00    -0.255 N 
ATOM      9  N   UNL     1      29.883 -25.742 -15.358  0.00  0.00    -0.181 N 
ATOM     10  C   UNL     1      33.713 -22.814 -15.374  0.00  0.00    +0.174 C 
ATOM     11  C   UNL     1      34.486 -23.953 -16.018  0.00  0.00    +0.222 C 
ATOM     12  C   UNL     1      32.741 -23.271 -17.303  0.00  0.00    +0.256 C 
ATOM     13  C   UNL     1      32.535 -23.296 -14.520  0.00  0.00    +0.128 C 
ATOM     14  C   UNL     1      31.437 -23.812 -16.715  0.00  0.00    +0.156 C 
ATOM     15  C   UNL     1      30.741 -25.001 -14.572  0.00  0.00    +0.326 C 
ATOM     16  H   UNL     1      29.862 -25.658 -16.338  0.00  0.00    +0.184 HD
BRANCH   9  17
ATOM     17  O   UNL     1      29.043 -26.624 -14.661  0.00  0.00    -0.294 OA
ATOM     18  H   UNL     1      29.242 -26.578 -13.712  0.00  0.00    +0.241 HD
ENDBRANCH   9  17
ENDBRANCH   3  11
BRANCH   2  19
ATOM     19  C   UNL     1      36.932 -21.953 -18.081  0.00  0.00    +0.116 C 
BRANCH  19  20
ATOM     20  C   UNL     1      36.543 -21.147 -19.289  0.00  0.00    -0.003 C 
ATOM     21  C   UNL     1      35.291 -21.335 -19.864  0.00  0.00    -0.003 C 
ATOM     22  C   UNL     1      37.438 -20.226 -19.816  0.00  0.00    -0.003 C 
ATOM     23  C   UNL     1      35.822 -19.660 -21.521  0.00  0.00    -0.000 C 
ATOM     24  C   UNL     1      34.931 -20.587 -20.985  0.00  0.00    -0.000 C 
ATOM     25  C   UNL     1      37.076 -19.479 -20.937  0.00  0.00    -0.000 C 
BRANCH  23  26
ATOM     26  C   UNL     1      35.448 -18.883 -22.684  0.00  0.00    -0.000 C 
ATOM     27  C   UNL     1      35.721 -17.516 -22.727  0.00  0.00    -0.000 C 
ATOM     28  C   UNL     1      34.816 -19.503 -23.761  0.00  0.00    -0.000 C 
ATOM     29  C   UNL     1      35.361 -16.768 -23.848  0.00  0.00    +0.000 C 
ATOM     30  C   UNL     1      34.455 -18.755 -24.882  0.00  0.00    +0.000 C 
ATOM     31  C   UNL     1      34.727 -17.387 -24.926  0.00  0.00    +0.000 C 
ENDBRANCH  23  26
ENDBRANCH  19  20
ENDBRANCH   2  19
TORSDOF 5
ENDMDL
MODEL 9
REMARK VINA RESULT:      -9.9     12.354     16.502
REMARK  Name = 11987860
REMARK  5 active torsions:
REMARK  status: ('A' for Active; 'I' for Inactive)
REMARK    1  A    between atoms: N_2  and  C_19
REMARK    2  A    between atoms: C_3  and  C_11
REMARK    3  A    between atoms: N_9  and  O_17
REMARK    4  A    between atoms: C_19  and  C_20
REMARK    5  A    between atoms: C_23  and  C_26
REMARK                            x       y       z     vdW  Elec       q    Type
REMARK                         _______ _______ _______ _____ _____    ______ ____
ROOT
ATOM      1  O   UNL     1      33.084  -8.360 -20.208  0.00  0.00    -0.272 OA
ATOM      2  N   UNL     1      31.712  -9.551 -21.663  0.00  0.00    -0.298 N 
ATOM      3  C   UNL     1      32.519  -8.490 -21.290  0.00  0.00    +0.253 C 
ATOM      4  H   UNL     1      31.313  -9.542 -22.563  0.00  0.00    +0.150 HD
ENDROOT
BRANCH   3  11
ATOM      5  O   UNL     1      30.503  -6.874 -22.846  0.00  0.00    -0.327 OA
ATOM      6  O   UNL     1      32.452  -6.205 -21.773  0.00  0.00    -0.320 OA
ATOM      7  O   UNL     1      33.437  -5.365 -26.538  0.00  0.00    -0.250 OA
ATOM      8  N   UNL     1      32.224  -5.467 -24.561  0.00  0.00    -0.255 N 
ATOM      9  N   UNL     1      33.222  -3.464 -25.278  0.00  0.00    -0.181 N 
ATOM     10  C   UNL     1      31.583  -7.608 -23.439  0.00  0.00    +0.174 C 
ATOM     11  C   UNL     1      32.669  -7.481 -22.383  0.00  0.00    +0.222 C 
ATOM     12  C   UNL     1      31.204  -5.746 -22.315  0.00  0.00    +0.256 C 
ATOM     13  C   UNL     1      31.936  -6.897 -24.749  0.00  0.00    +0.128 C 
ATOM     14  C   UNL     1      31.502  -4.785 -23.467  0.00  0.00    +0.156 C 
ATOM     15  C   UNL     1      32.994  -4.800 -25.533  0.00  0.00    +0.326 C 
ATOM     16  H   UNL     1      32.869  -3.013 -24.478  0.00  0.00    +0.184 HD
BRANCH   9  17
ATOM     17  O   UNL     1      33.993  -2.793 -26.240  0.00  0.00    -0.294 OA
ATOM     18  H   UNL     1      34.800  -3.302 -26.420  0.00  0.00    +0.241 HD
ENDBRANCH   9  17
ENDBRANCH   3  11
BRANCH   2  19
ATOM     19  C   UNL     1      31.426 -10.670 -20.794  0.00  0.00    +0.116 C 
BRANCH  19  20
ATOM     20  C   UNL     1      32.219 -11.877 -21.212  0.00  0.00    -0.003 C 
ATOM     21  C   UNL     1      32.669 -11.982 -22.523  0.00  0.00    -0.003 C 
ATOM     22  C   UNL     1      32.494 -12.872 -20.283  0.00  0.00    -0.003 C 
ATOM     23  C   UNL     1      33.685 -14.106 -21.984  0.00  0.00    -0.000 C 
ATOM     24  C   UNL     1      33.404 -13.102 -22.910  0.00  0.00    -0.000 C 
ATOM     25  C   UNL     1      33.229 -13.992 -20.671  0.00  0.00    -0.000 C 
BRANCH  23  26
ATOM     26  C   UNL     1      34.449 -15.268 -22.386  0.00  0.00    -0.000 C 
ATOM     27  C   UNL     1      34.717 -15.494 -23.736  0.00  0.00    -0.000 C 
ATOM     28  C   UNL     1      34.918 -16.160 -21.422  0.00  0.00    -0.000 C 
ATOM     29  C   UNL     1      35.454 -16.614 -24.122  0.00  0.00    +0.000 C 
ATOM     30  C   UNL     1      35.656 -17.279 -21.808  0.00  0.00    +0.000 C 
ATOM     31  C   UNL     1      35.924 -17.507 -23.159  0.00  0.00    +0.000 C 
ENDBRANCH  23  26
ENDBRANCH  19  20
ENDBRANCH   2  19
TORSDOF 5
ENDMDL
