MODEL 1
REMARK VINA RESULT:     -10.9      0.000      0.000
REMARK  Name = 4369491
REMARK  2 active torsions:
REMARK  status: ('A' for Active; 'I' for Inactive)
REMARK    1  A    between atoms: C_10  and  C_21
REMARK    2  A    between atoms: C_17  and  O_27
REMARK                            x       y       z     vdW  Elec       q    Type
REMARK                         _______ _______ _______ _____ _____    ______ ____
ROOT
ATOM      1  O   UNL     1      36.508 -23.096 -17.238  0.00  0.00    -0.270 OA
ATOM      2  O   UNL     1      32.020 -22.547 -18.092  0.00  0.00    -0.270 OA
ATOM      3  N   UNL     1      34.601 -25.054 -12.733  0.00  0.00    -0.353 N 
ATOM      4  N   UNL     1      34.348 -22.673 -18.003  0.00  0.00    -0.248 N 
ATOM      5  C   UNL     1      35.001 -24.163 -14.744  0.00  0.00    +0.022 A 
ATOM      6  C   UNL     1      34.560 -23.604 -15.951  0.00  0.00    +0.060 C 
ATOM      7  C   UNL     1      33.987 -24.531 -13.844  0.00  0.00    +0.057 A 
ATOM      8  C   UNL     1      36.254 -24.487 -14.125  0.00  0.00    +0.020 A 
ATOM      9  C   UNL     1      33.202 -23.436 -16.215  0.00  0.00    +0.058 C 
ATOM     10  C   UNL     1      32.216 -23.801 -15.326  0.00  0.00    +0.006 C 
ATOM     11  C   UNL     1      35.967 -25.039 -12.874  0.00  0.00    +0.057 A 
ATOM     12  C   UNL     1      32.610 -24.363 -14.109  0.00  0.00    +0.017 C 
ATOM     13  C   UNL     1      35.299 -23.109 -17.111  0.00  0.00    +0.252 C 
ATOM     14  C   UNL     1      33.065 -22.834 -17.540  0.00  0.00    +0.252 C 
ATOM     15  C   UNL     1      37.613 -24.367 -14.494  0.00  0.00    +0.038 C 
ATOM     16  C   UNL     1      36.959 -25.474 -11.985  0.00  0.00    +0.020 C 
ATOM     17  C   UNL     1      38.615 -24.798 -13.616  0.00  0.00    +0.134 C 
ATOM     18  C   UNL     1      38.291 -25.344 -12.379  0.00  0.00    +0.038 C 
ATOM     19  H   UNL     1      34.127 -25.395 -11.941  0.00  0.00    +0.166 HD
ATOM     20  H   UNL     1      34.563 -22.286 -18.881  0.00  0.00    +0.158 HD
ENDROOT
BRANCH  10  21
ATOM     21  C   UNL     1      30.808 -23.625 -15.602  0.00  0.00    +0.000 C 
ATOM     22  C   UNL     1      30.164 -22.446 -15.224  0.00  0.00    +0.000 C 
ATOM     23  C   UNL     1      30.092 -24.633 -16.247  0.00  0.00    +0.000 C 
ATOM     24  C   UNL     1      28.806 -22.277 -15.490  0.00  0.00    +0.000 C 
ATOM     25  C   UNL     1      28.733 -24.463 -16.515  0.00  0.00    +0.000 C 
ATOM     26  C   UNL     1      28.090 -23.285 -16.134  0.00  0.00    +0.000 C 
ENDBRANCH  10  21
BRANCH  17  27
ATOM     27  O   UNL     1      39.923 -24.680 -13.980  0.00  0.00    -0.506 OA
ATOM     28  H   UNL     1      40.293 -23.833 -14.130  0.00  0.00    +0.292 HD
ENDBRANCH  17  27
TORSDOF 2
ENDMDL
MODEL 2
REMARK VINA RESULT:     -10.8      2.664      7.166
REMARK  Name = 4369491
REMARK  2 active torsions:
REMARK  status: ('A' for Active; 'I' for Inactive)
REMARK    1  A    between atoms: C_10  and  C_21
REMARK    2  A    between atoms: C_17  and  O_27
REMARK                            x       y       z     vdW  Elec       q    Type
REMARK                         _______ _______ _______ _____ _____    ______ ____
ROOT
ATOM      1  O   UNL     1      31.811 -22.840 -17.540  0.00  0.00    -0.270 OA
ATOM      2  O   UNL     1      33.861 -24.846 -13.942  0.00  0.00    -0.270 OA
ATOM      3  N   UNL     1      36.810 -21.674 -18.729  0.00  0.00    -0.353 N 
ATOM      4  N   UNL     1      32.498 -23.953 -15.611  0.00  0.00    -0.248 N 
ATOM      5  C   UNL     1      34.857 -22.361 -17.884  0.00  0.00    +0.022 A 
ATOM      6  C   UNL     1      34.106 -23.024 -16.904  0.00  0.00    +0.060 C 
ATOM      7  C   UNL     1      36.247 -22.361 -17.681  0.00  0.00    +0.057 A 
ATOM      8  C   UNL     1      34.607 -21.643 -19.100  0.00  0.00    +0.020 A 
ATOM      9  C   UNL     1      34.722 -23.634 -15.812  0.00  0.00    +0.058 C 
ATOM     10  C   UNL     1      36.086 -23.628 -15.624  0.00  0.00    +0.006 C 
ATOM     11  C   UNL     1      35.845 -21.229 -19.599  0.00  0.00    +0.057 A 
ATOM     12  C   UNL     1      36.875 -22.978 -16.577  0.00  0.00    +0.017 C 
ATOM     13  C   UNL     1      32.666 -23.233 -16.770  0.00  0.00    +0.252 C 
ATOM     14  C   UNL     1      33.683 -24.233 -14.977  0.00  0.00    +0.252 C 
ATOM     15  C   UNL     1      33.452 -21.294 -19.837  0.00  0.00    +0.038 C 
ATOM     16  C   UNL     1      35.985 -20.495 -20.784  0.00  0.00    +0.020 C 
ATOM     17  C   UNL     1      33.577 -20.560 -21.023  0.00  0.00    +0.134 C 
ATOM     18  C   UNL     1      34.827 -20.167 -21.489  0.00  0.00    +0.038 C 
ATOM     19  H   UNL     1      37.775 -21.521 -18.842  0.00  0.00    +0.166 HD
ATOM     20  H   UNL     1      31.620 -24.238 -15.271  0.00  0.00    +0.158 HD
ENDROOT
BRANCH  10  21
ATOM     21  C   UNL     1      36.723 -24.260 -14.490  0.00  0.00    +0.000 C 
ATOM     22  C   UNL     1      37.100 -25.601 -14.559  0.00  0.00    +0.000 C 
ATOM     23  C   UNL     1      36.960 -23.529 -13.325  0.00  0.00    +0.000 C 
ATOM     24  C   UNL     1      37.714 -26.212 -13.466  0.00  0.00    +0.000 C 
ATOM     25  C   UNL     1      37.575 -24.139 -12.232  0.00  0.00    +0.000 C 
ATOM     26  C   UNL     1      37.951 -25.481 -12.302  0.00  0.00    +0.000 C 
ENDBRANCH  10  21
BRANCH  17  27
ATOM     27  O   UNL     1      32.459 -20.229 -21.728  0.00  0.00    -0.506 OA
ATOM     28  H   UNL     1      32.314 -20.597 -22.577  0.00  0.00    +0.292 HD
ENDBRANCH  17  27
TORSDOF 2
ENDMDL
MODEL 3
REMARK VINA RESULT:     -10.4      1.472      6.744
REMARK  Name = 4369491
REMARK  2 active torsions:
REMARK  status: ('A' for Active; 'I' for Inactive)
REMARK    1  A    between atoms: C_10  and  C_21
REMARK    2  A    between atoms: C_17  and  O_27
REMARK                            x       y       z     vdW  Elec       q    Type
REMARK                         _______ _______ _______ _____ _____    ______ ____
ROOT
ATOM      1  O   UNL     1      33.305 -22.510 -18.291  0.00  0.00    -0.270 OA
ATOM      2  O   UNL     1      37.290 -23.094 -16.067  0.00  0.00    -0.270 OA
ATOM      3  N   UNL     1      31.425 -24.621 -13.844  0.00  0.00    -0.353 N 
ATOM      4  N   UNL     1      35.483 -22.655 -17.474  0.00  0.00    -0.248 N 
ATOM      5  C   UNL     1      32.603 -23.771 -15.544  0.00  0.00    +0.022 A 
ATOM      6  C   UNL     1      33.818 -23.398 -16.133  0.00  0.00    +0.060 C 
ATOM      7  C   UNL     1      32.700 -24.321 -14.256  0.00  0.00    +0.057 A 
ATOM      8  C   UNL     1      31.211 -23.754 -15.892  0.00  0.00    +0.020 A 
ATOM      9  C   UNL     1      35.028 -23.572 -15.464  0.00  0.00    +0.058 C 
ATOM     10  C   UNL     1      35.112 -24.113 -14.200  0.00  0.00    +0.006 C 
ATOM     11  C   UNL     1      30.507 -24.291 -14.811  0.00  0.00    +0.057 A 
ATOM     12  C   UNL     1      33.924 -24.499 -13.574  0.00  0.00    +0.017 C 
ATOM     13  C   UNL     1      34.116 -22.804 -17.435  0.00  0.00    +0.252 C 
ATOM     14  C   UNL     1      36.103 -23.093 -16.330  0.00  0.00    +0.252 C 
ATOM     15  C   UNL     1      30.466 -23.338 -17.019  0.00  0.00    +0.038 C 
ATOM     16  C   UNL     1      29.113 -24.431 -14.800  0.00  0.00    +0.020 C 
ATOM     17  C   UNL     1      29.072 -23.472 -17.022  0.00  0.00    +0.134 C 
ATOM     18  C   UNL     1      28.406 -24.011 -15.927  0.00  0.00    +0.038 C 
ATOM     19  H   UNL     1      31.198 -25.020 -12.974  0.00  0.00    +0.166 HD
ATOM     20  H   UNL     1      35.966 -22.275 -18.242  0.00  0.00    +0.158 HD
ENDROOT
BRANCH  10  21
ATOM     21  C   UNL     1      36.369 -24.293 -13.508  0.00  0.00    +0.000 C 
ATOM     22  C   UNL     1      36.851 -23.293 -12.664  0.00  0.00    +0.000 C 
ATOM     23  C   UNL     1      37.100 -25.469 -13.684  0.00  0.00    +0.000 C 
ATOM     24  C   UNL     1      38.063 -23.467 -11.997  0.00  0.00    +0.000 C 
ATOM     25  C   UNL     1      38.312 -25.643 -13.016  0.00  0.00    +0.000 C 
ATOM     26  C   UNL     1      38.794 -24.642 -12.173  0.00  0.00    +0.000 C 
ENDBRANCH  10  21
BRANCH  17  27
ATOM     27  O   UNL     1      28.361 -23.068 -18.113  0.00  0.00    -0.506 OA
ATOM     28  H   UNL     1      27.446 -23.259 -18.172  0.00  0.00    +0.292 HD
ENDBRANCH  17  27
TORSDOF 2
ENDMDL
MODEL 4
REMARK VINA RESULT:     -10.3      3.740      7.713
REMARK  Name = 4369491
REMARK  2 active torsions:
REMARK  status: ('A' for Active; 'I' for Inactive)
REMARK    1  A    between atoms: C_10  and  C_21
REMARK    2  A    between atoms: C_17  and  O_27
REMARK                            x       y       z     vdW  Elec       q    Type
REMARK                         _______ _______ _______ _____ _____    ______ ____
ROOT
ATOM      1  O   UNL     1      32.938 -22.341 -20.201  0.00  0.00    -0.270 OA
ATOM      2  O   UNL     1      34.152 -24.312 -16.225  0.00  0.00    -0.270 OA
ATOM      3  N   UNL     1      37.658 -20.076 -19.606  0.00  0.00    -0.353 N 
ATOM      4  N   UNL     1      33.218 -23.516 -18.209  0.00  0.00    -0.248 N 
ATOM      5  C   UNL     1      35.747 -21.231 -19.491  0.00  0.00    +0.022 A 
ATOM      6  C   UNL     1      34.897 -22.140 -18.848  0.00  0.00    +0.060 C 
ATOM      7  C   UNL     1      36.965 -20.979 -18.838  0.00  0.00    +0.057 A 
ATOM      8  C   UNL     1      35.736 -20.437 -20.686  0.00  0.00    +0.020 A 
ATOM      9  C   UNL     1      35.260 -22.741 -17.644  0.00  0.00    +0.058 C 
ATOM     10  C   UNL     1      36.457 -22.487 -17.013  0.00  0.00    +0.006 C 
ATOM     11  C   UNL     1      36.941 -19.731 -20.725  0.00  0.00    +0.057 A 
ATOM     12  C   UNL     1      37.336 -21.586 -17.618  0.00  0.00    +0.017 C 
ATOM     13  C   UNL     1      33.574 -22.644 -19.211  0.00  0.00    +0.252 C 
ATOM     14  C   UNL     1      34.174 -23.628 -17.230  0.00  0.00    +0.252 C 
ATOM     15  C   UNL     1      34.825 -20.240 -21.748  0.00  0.00    +0.038 C 
ATOM     16  C   UNL     1      37.277 -18.848 -21.760  0.00  0.00    +0.020 C 
ATOM     17  C   UNL     1      35.146 -19.360 -22.789  0.00  0.00    +0.134 C 
ATOM     18  C   UNL     1      36.356 -18.675 -22.794  0.00  0.00    +0.038 C 
ATOM     19  H   UNL     1      38.549 -19.723 -19.384  0.00  0.00    +0.166 HD
ATOM     20  H   UNL     1      32.365 -24.007 -18.193  0.00  0.00    +0.158 HD
ENDROOT
BRANCH  10  21
ATOM     21  C   UNL     1      36.830 -23.110 -15.763  0.00  0.00    +0.000 C 
ATOM     22  C   UNL     1      36.143 -22.793 -14.591  0.00  0.00    +0.000 C 
ATOM     23  C   UNL     1      37.879 -24.030 -15.728  0.00  0.00    +0.000 C 
ATOM     24  C   UNL     1      36.504 -23.394 -13.386  0.00  0.00    +0.000 C 
ATOM     25  C   UNL     1      38.239 -24.632 -14.522  0.00  0.00    +0.000 C 
ATOM     26  C   UNL     1      37.552 -24.313 -13.351  0.00  0.00    +0.000 C 
ENDBRANCH  10  21
BRANCH  17  27
ATOM     27  O   UNL     1      34.262 -19.176 -23.809  0.00  0.00    -0.506 OA
ATOM     28  H   UNL     1      34.330 -18.420 -24.358  0.00  0.00    +0.292 HD
ENDBRANCH  17  27
TORSDOF 2
ENDMDL
MODEL 5
REMARK VINA RESULT:     -10.1     11.430     13.780
REMARK  Name = 4369491
REMARK  2 active torsions:
REMARK  status: ('A' for Active; 'I' for Inactive)
REMARK    1  A    between atoms: C_10  and  C_21
REMARK    2  A    between atoms: C_17  and  O_27
REMARK                            x       y       z     vdW  Elec       q    Type
REMARK                         _______ _______ _______ _____ _____    ______ ____
ROOT
ATOM      1  O   UNL     1      33.873 -16.195 -26.877  0.00  0.00    -0.270 OA
ATOM      2  O   UNL     1      33.172 -11.660 -26.539  0.00  0.00    -0.270 OA
ATOM      3  N   UNL     1      35.239 -15.559 -21.828  0.00  0.00    -0.353 N 
ATOM      4  N   UNL     1      33.414 -13.919 -27.070  0.00  0.00    -0.248 N 
ATOM      5  C   UNL     1      34.588 -15.409 -23.962  0.00  0.00    +0.022 A 
ATOM      6  C   UNL     1      34.135 -14.666 -25.060  0.00  0.00    +0.060 C 
ATOM      7  C   UNL     1      34.804 -14.675 -22.784  0.00  0.00    +0.057 A 
ATOM      8  C   UNL     1      34.915 -16.776 -23.673  0.00  0.00    +0.020 A 
ATOM      9  C   UNL     1      33.921 -13.293 -24.963  0.00  0.00    +0.058 C 
ATOM     10  C   UNL     1      34.135 -12.582 -23.803  0.00  0.00    +0.006 C 
ATOM     11  C   UNL     1      35.316 -16.832 -22.336  0.00  0.00    +0.057 A 
ATOM     12  C   UNL     1      34.587 -13.283 -22.682  0.00  0.00    +0.017 C 
ATOM     13  C   UNL     1      33.806 -15.069 -26.426  0.00  0.00    +0.252 C 
ATOM     14  C   UNL     1      33.456 -12.810 -26.262  0.00  0.00    +0.252 C 
ATOM     15  C   UNL     1      34.914 -17.982 -24.409  0.00  0.00    +0.038 C 
ATOM     16  C   UNL     1      35.712 -18.019 -21.705  0.00  0.00    +0.020 C 
ATOM     17  C   UNL     1      35.307 -19.177 -23.793  0.00  0.00    +0.134 C 
ATOM     18  C   UNL     1      35.700 -19.193 -22.459  0.00  0.00    +0.038 C 
ATOM     19  H   UNL     1      35.466 -15.313 -20.902  0.00  0.00    +0.166 HD
ATOM     20  H   UNL     1      33.133 -13.893 -28.013  0.00  0.00    +0.158 HD
ENDROOT
BRANCH  10  21
ATOM     21  C   UNL     1      33.913 -11.157 -23.706  0.00  0.00    +0.000 C 
ATOM     22  C   UNL     1      32.732 -10.671 -23.143  0.00  0.00    +0.000 C 
ATOM     23  C   UNL     1      34.880 -10.266 -24.174  0.00  0.00    +0.000 C 
ATOM     24  C   UNL     1      32.518  -9.296 -23.050  0.00  0.00    +0.000 C 
ATOM     25  C   UNL     1      34.665  -8.891 -24.079  0.00  0.00    +0.000 C 
ATOM     26  C   UNL     1      33.484  -8.406 -23.518  0.00  0.00    +0.000 C 
ENDBRANCH  10  21
BRANCH  17  27
ATOM     27  O   UNL     1      35.302 -20.335 -24.510  0.00  0.00    -0.506 OA
ATOM     28  H   UNL     1      34.854 -20.376 -25.332  0.00  0.00    +0.292 HD
ENDBRANCH  17  27
TORSDOF 2
ENDMDL
MODEL 6
REMARK VINA RESULT:     -10.0     13.581     16.457
REMARK  Name = 4369491
REMARK  2 active torsions:
REMARK  status: ('A' for Active; 'I' for Inactive)
REMARK    1  A    between atoms: C_10  and  C_21
REMARK    2  A    between atoms: C_17  and  O_27
REMARK                            x       y       z     vdW  Elec       q    Type
REMARK                         _______ _______ _______ _____ _____    ______ ____
ROOT
ATOM      1  O   UNL     1      31.065 -10.069 -20.195  0.00  0.00    -0.270 OA
ATOM      2  O   UNL     1      32.349 -14.269 -21.565  0.00  0.00    -0.270 OA
ATOM      3  N   UNL     1      33.911  -8.689 -24.409  0.00  0.00    -0.353 N 
ATOM      4  N   UNL     1      31.515 -12.320 -20.591  0.00  0.00    -0.248 N 
ATOM      5  C   UNL     1      32.810  -9.672 -22.730  0.00  0.00    +0.022 A 
ATOM      6  C   UNL     1      32.405 -10.814 -22.027  0.00  0.00    +0.060 C 
ATOM      7  C   UNL     1      33.617  -9.910 -23.854  0.00  0.00    +0.057 A 
ATOM      8  C   UNL     1      32.632  -8.252 -22.630  0.00  0.00    +0.020 A 
ATOM      9  C   UNL     1      32.791 -12.089 -22.437  0.00  0.00    +0.058 C 
ATOM     10  C   UNL     1      33.582 -12.311 -23.542  0.00  0.00    +0.006 C 
ATOM     11  C   UNL     1      33.331  -7.671 -23.692  0.00  0.00    +0.057 A 
ATOM     12  C   UNL     1      34.010 -11.200 -24.274  0.00  0.00    +0.017 C 
ATOM     13  C   UNL     1      31.579 -10.968 -20.831  0.00  0.00    +0.252 C 
ATOM     14  C   UNL     1      32.217 -13.062 -21.509  0.00  0.00    +0.252 C 
ATOM     15  C   UNL     1      31.947  -7.388 -21.745  0.00  0.00    +0.038 C 
ATOM     16  C   UNL     1      33.379  -6.288 -23.911  0.00  0.00    +0.020 C 
ATOM     17  C   UNL     1      31.986  -6.004 -21.951  0.00  0.00    +0.134 C 
ATOM     18  C   UNL     1      32.693  -5.463 -23.020  0.00  0.00    +0.038 C 
ATOM     19  H   UNL     1      34.463  -8.559 -25.213  0.00  0.00    +0.166 HD
ATOM     20  H   UNL     1      31.019 -12.716 -19.840  0.00  0.00    +0.158 HD
ENDROOT
BRANCH  10  21
ATOM     21  C   UNL     1      33.982 -13.634 -23.966  0.00  0.00    +0.000 C 
ATOM     22  C   UNL     1      34.904 -14.360 -23.212  0.00  0.00    +0.000 C 
ATOM     23  C   UNL     1      33.445 -14.187 -25.129  0.00  0.00    +0.000 C 
ATOM     24  C   UNL     1      35.290 -15.637 -23.620  0.00  0.00    +0.000 C 
ATOM     25  C   UNL     1      33.830 -15.464 -25.537  0.00  0.00    +0.000 C 
ATOM     26  C   UNL     1      34.754 -16.188 -24.783  0.00  0.00    +0.000 C 
ENDBRANCH  10  21
BRANCH  17  27
ATOM     27  O   UNL     1      31.323  -5.179 -21.093  0.00  0.00    -0.506 OA
ATOM     28  H   UNL     1      30.503  -4.803 -21.345  0.00  0.00    +0.292 HD
ENDBRANCH  17  27
TORSDOF 2
ENDMDL
MODEL 7
REMARK VINA RESULT:      -9.9      4.045      6.361
REMARK  Name = 4369491
REMARK  2 active torsions:
REMARK  status: ('A' for Active; 'I' for Inactive)
REMARK    1  A    between atoms: C_10  and  C_21
REMARK    2  A    between atoms: C_17  and  O_27
REMARK                            x       y       z     vdW  Elec       q    Type
REMARK                         _______ _______ _______ _____ _____    ______ ____
ROOT
ATOM      1  O   UNL     1      32.774 -23.289 -17.490  0.00  0.00    -0.270 OA
ATOM      2  O   UNL     1      32.703 -20.611 -21.230  0.00  0.00    -0.270 OA
ATOM      3  N   UNL     1      37.876 -21.980 -17.620  0.00  0.00    -0.353 N 
ATOM      4  N   UNL     1      32.367 -22.011 -19.395  0.00  0.00    -0.248 N 
ATOM      5  C   UNL     1      35.682 -22.292 -17.913  0.00  0.00    +0.022 A 
ATOM      6  C   UNL     1      34.491 -22.068 -18.616  0.00  0.00    +0.060 C 
ATOM      7  C   UNL     1      36.818 -21.649 -18.430  0.00  0.00    +0.057 A 
ATOM      8  C   UNL     1      36.103 -23.027 -16.755  0.00  0.00    +0.020 A 
ATOM      9  C   UNL     1      34.464 -21.257 -19.749  0.00  0.00    +0.058 C 
ATOM     10  C   UNL     1      35.584 -20.631 -20.248  0.00  0.00    +0.006 C 
ATOM     11  C   UNL     1      37.475 -22.810 -16.602  0.00  0.00    +0.057 A 
ATOM     12  C   UNL     1      36.794 -20.826 -19.578  0.00  0.00    +0.017 C 
ATOM     13  C   UNL     1      33.132 -22.555 -18.390  0.00  0.00    +0.252 C 
ATOM     14  C   UNL     1      33.092 -21.222 -20.253  0.00  0.00    +0.252 C 
ATOM     15  C   UNL     1      35.461 -23.862 -15.812  0.00  0.00    +0.038 C 
ATOM     16  C   UNL     1      38.229 -23.378 -15.567  0.00  0.00    +0.020 C 
ATOM     17  C   UNL     1      36.202 -24.437 -14.771  0.00  0.00    +0.134 C 
ATOM     18  C   UNL     1      37.566 -24.197 -14.652  0.00  0.00    +0.038 C 
ATOM     19  H   UNL     1      38.799 -21.665 -17.750  0.00  0.00    +0.166 HD
ATOM     20  H   UNL     1      31.401 -22.172 -19.491  0.00  0.00    +0.158 HD
ENDROOT
BRANCH  10  21
ATOM     21  C   UNL     1      35.553 -19.791 -21.424  0.00  0.00    +0.000 C 
ATOM     22  C   UNL     1      35.354 -20.359 -22.683  0.00  0.00    +0.000 C 
ATOM     23  C   UNL     1      35.723 -18.411 -21.302  0.00  0.00    +0.000 C 
ATOM     24  C   UNL     1      35.325 -19.549 -23.818  0.00  0.00    +0.000 C 
ATOM     25  C   UNL     1      35.692 -17.601 -22.437  0.00  0.00    +0.000 C 
ATOM     26  C   UNL     1      35.494 -18.171 -23.695  0.00  0.00    +0.000 C 
ENDBRANCH  10  21
BRANCH  17  27
ATOM     27  O   UNL     1      35.575 -25.240 -13.866  0.00  0.00    -0.506 OA
ATOM     28  H   UNL     1      34.745 -25.620 -14.073  0.00  0.00    +0.292 HD
ENDBRANCH  17  27
TORSDOF 2
ENDMDL
MODEL 8
REMARK VINA RESULT:      -9.7      9.151     12.362
REMARK  Name = 4369491
REMARK  2 active torsions:
REMARK  status: ('A' for Active; 'I' for Inactive)
REMARK    1  A    between atoms: C_10  and  C_21
REMARK    2  A    between atoms: C_17  and  O_27
REMARK                            x       y       z     vdW  Elec       q    Type
REMARK                         _______ _______ _______ _____ _____    ______ ____
ROOT
ATOM      1  O   UNL     1      34.282 -16.634 -26.546  0.00  0.00    -0.270 OA
ATOM      2  O   UNL     1      35.249 -20.366 -24.035  0.00  0.00    -0.270 OA
ATOM      3  N   UNL     1      34.847 -14.303 -21.855  0.00  0.00    -0.353 N 
ATOM      4  N   UNL     1      34.737 -18.715 -25.601  0.00  0.00    -0.248 N 
ATOM      5  C   UNL     1      34.694 -15.651 -23.633  0.00  0.00    +0.022 A 
ATOM      6  C   UNL     1      34.754 -16.920 -24.222  0.00  0.00    +0.060 C 
ATOM      7  C   UNL     1      34.947 -15.614 -22.252  0.00  0.00    +0.057 A 
ATOM      8  C   UNL     1      34.435 -14.303 -24.051  0.00  0.00    +0.020 A 
ATOM      9  C   UNL     1      35.048 -18.054 -23.466  0.00  0.00    +0.058 C 
ATOM     10  C   UNL     1      35.294 -18.007 -22.112  0.00  0.00    +0.006 C 
ATOM     11  C   UNL     1      34.538 -13.491 -22.918  0.00  0.00    +0.057 A 
ATOM     12  C   UNL     1      35.245 -16.761 -21.482  0.00  0.00    +0.017 C 
ATOM     13  C   UNL     1      34.554 -17.352 -25.604  0.00  0.00    +0.252 C 
ATOM     14  C   UNL     1      35.036 -19.213 -24.357  0.00  0.00    +0.252 C 
ATOM     15  C   UNL     1      34.120 -13.679 -25.279  0.00  0.00    +0.038 C 
ATOM     16  C   UNL     1      34.345 -12.104 -22.952  0.00  0.00    +0.020 C 
ATOM     17  C   UNL     1      33.924 -12.293 -25.328  0.00  0.00    +0.134 C 
ATOM     18  C   UNL     1      34.036 -11.518 -24.180  0.00  0.00    +0.038 C 
ATOM     19  H   UNL     1      34.978 -13.988 -20.932  0.00  0.00    +0.166 HD
ATOM     20  H   UNL     1      34.662 -19.275 -26.406  0.00  0.00    +0.158 HD
ENDROOT
BRANCH  10  21
ATOM     21  C   UNL     1      35.597 -19.184 -21.330  0.00  0.00    +0.000 C 
ATOM     22  C   UNL     1      36.918 -19.475 -20.987  0.00  0.00    +0.000 C 
ATOM     23  C   UNL     1      34.568 -20.032 -20.917  0.00  0.00    +0.000 C 
ATOM     24  C   UNL     1      37.210 -20.611 -20.233  0.00  0.00    +0.000 C 
ATOM     25  C   UNL     1      34.860 -21.168 -20.162  0.00  0.00    +0.000 C 
ATOM     26  C   UNL     1      36.182 -21.457 -19.821  0.00  0.00    +0.000 C 
ENDBRANCH  10  21
BRANCH  17  27
ATOM     27  O   UNL     1      33.622 -11.700 -26.517  0.00  0.00    -0.506 OA
ATOM     28  H   UNL     1      33.327 -10.811 -26.535  0.00  0.00    +0.292 HD
ENDBRANCH  17  27
TORSDOF 2
ENDMDL
MODEL 9
REMARK VINA RESULT:      -9.6      2.679      4.620
REMARK  Name = 4369491
REMARK  2 active torsions:
REMARK  status: ('A' for Active; 'I' for Inactive)
REMARK    1  A    between atoms: C_10  and  C_21
REMARK    2  A    between atoms: C_17  and  O_27
REMARK                            x       y       z     vdW  Elec       q    Type
REMARK                         _______ _______ _______ _____ _____    ______ ____
ROOT
ATOM      1  O   UNL     1      33.257 -24.728 -14.624  0.00  0.00    -0.270 OA
ATOM      2  O   UNL     1      32.267 -22.323 -18.419  0.00  0.00    -0.270 OA
ATOM      3  N   UNL     1      38.162 -23.402 -16.021  0.00  0.00    -0.353 N 
ATOM      4  N   UNL     1      32.393 -23.591 -16.466  0.00  0.00    -0.248 N 
ATOM      5  C   UNL     1      35.966 -23.747 -15.776  0.00  0.00    +0.022 A 
ATOM      6  C   UNL     1      34.641 -23.580 -16.198  0.00  0.00    +0.060 C 
ATOM      7  C   UNL     1      36.938 -23.135 -16.584  0.00  0.00    +0.057 A 
ATOM      8  C   UNL     1      36.659 -24.395 -14.699  0.00  0.00    +0.020 A 
ATOM      9  C   UNL     1      34.335 -22.852 -17.346  0.00  0.00    +0.058 C 
ATOM     10  C   UNL     1      35.296 -22.257 -18.132  0.00  0.00    +0.006 C 
ATOM     11  C   UNL     1      38.024 -24.160 -14.884  0.00  0.00    +0.057 A 
ATOM     12  C   UNL     1      36.632 -22.397 -17.749  0.00  0.00    +0.017 C 
ATOM     13  C   UNL     1      33.381 -24.057 -15.630  0.00  0.00    +0.252 C 
ATOM     14  C   UNL     1      32.883 -22.860 -17.520  0.00  0.00    +0.252 C 
ATOM     15  C   UNL     1      36.271 -25.164 -13.579  0.00  0.00    +0.038 C 
ATOM     16  C   UNL     1      39.008 -24.649 -14.016  0.00  0.00    +0.020 C 
ATOM     17  C   UNL     1      37.244 -25.660 -12.702  0.00  0.00    +0.134 C 
ATOM     18  C   UNL     1      38.593 -25.404 -12.919  0.00  0.00    +0.038 C 
ATOM     19  H   UNL     1      39.023 -23.092 -16.383  0.00  0.00    +0.166 HD
ATOM     20  H   UNL     1      31.435 -23.764 -16.324  0.00  0.00    +0.158 HD
ENDROOT
BRANCH  10  21
ATOM     21  C   UNL     1      34.976 -21.503 -19.324  0.00  0.00    +0.000 C 
ATOM     22  C   UNL     1      33.646 -21.342 -19.713  0.00  0.00    +0.000 C 
ATOM     23  C   UNL     1      35.998 -20.935 -20.086  0.00  0.00    +0.000 C 
ATOM     24  C   UNL     1      33.338 -20.615 -20.862  0.00  0.00    +0.000 C 
ATOM     25  C   UNL     1      35.690 -20.207 -21.235  0.00  0.00    +0.000 C 
ATOM     26  C   UNL     1      34.359 -20.048 -21.624  0.00  0.00    +0.000 C 
ENDBRANCH  10  21
BRANCH  17  27
ATOM     27  O   UNL     1      36.861 -26.400 -11.624  0.00  0.00    -0.506 OA
ATOM     28  H   UNL     1      37.366 -26.376 -10.836  0.00  0.00    +0.292 HD
ENDBRANCH  17  27
TORSDOF 2
ENDMDL
