MODEL 1
REMARK VINA RESULT:     -12.8      0.000      0.000
REMARK  Name = 6105620
REMARK  4 active torsions:
REMARK  status: ('A' for Active; 'I' for Inactive)
REMARK    1  A    between atoms: N_2  and  C_7
REMARK    2  A    between atoms: N_3  and  C_21
REMARK    3  A    between atoms: C_9  and  C_29
REMARK    4  A    between atoms: C_30  and  C_31
REMARK                            x       y       z     vdW  Elec       q    Type
REMARK                         _______ _______ _______ _____ _____    ______ ____
ROOT
ATOM      1  N   UNL     1      33.932 -22.789 -17.690  0.00  0.00    -0.086 NA
ATOM      2  N   UNL     1      35.306 -22.583 -17.245  0.00  0.00    -0.132 N 
ATOM      3  N   UNL     1      33.858 -22.213 -18.991  0.00  0.00    -0.240 N 
ATOM      4  N   UNL     1      35.975 -21.834 -18.204  0.00  0.00    -0.146 NA
ATOM      5  C   UNL     1      35.100 -21.649 -19.181  0.00  0.00    +0.162 C 
ATOM      6  H   UNL     1      33.094 -22.218 -19.612  0.00  0.00    +0.170 HD
ENDROOT
BRANCH   2  11
ATOM      7  O   UNL     1      36.933 -27.288 -16.117  0.00  0.00    -0.220 OA
ATOM      8  O   UNL     1      38.663 -24.424 -12.137  0.00  0.00    -0.220 OA
ATOM      9  N   UNL     1      38.049 -27.132 -14.134  0.00  0.00    -0.062 NA
ATOM     10  N   UNL     1      38.464 -26.445 -13.178  0.00  0.00    -0.062 NA
ATOM     11  C   UNL     1      36.037 -23.193 -16.205  0.00  0.00    +0.089 C 
ATOM     12  C   UNL     1      36.308 -24.573 -16.228  0.00  0.00    +0.030 C 
ATOM     13  C   UNL     1      36.513 -22.434 -15.120  0.00  0.00    +0.019 C 
ATOM     14  C   UNL     1      37.033 -25.168 -15.192  0.00  0.00    +0.097 C 
ATOM     15  C   UNL     1      37.493 -24.408 -14.134  0.00  0.00    +0.096 C 
ATOM     16  C   UNL     1      37.237 -23.034 -14.088  0.00  0.00    +0.014 C 
ATOM     17  C   UNL     1      37.335 -26.603 -15.180  0.00  0.00    +0.174 C 
ATOM     18  C   UNL     1      38.248 -25.093 -13.080  0.00  0.00    +0.174 C 
ENDBRANCH   2  11
BRANCH   1  21
ATOM     19  S   UNL     1      33.141 -24.235 -15.582  0.00  0.00    -0.074 S 
ATOM     20  N   UNL     1      31.620 -23.036 -17.348  0.00  0.00    -0.310 N 
ATOM     21  C   UNL     1      32.899 -23.251 -17.022  0.00  0.00    +0.222 C 
ATOM     22  C   UNL     1      30.756 -23.630 -16.485  0.00  0.00    +0.052 C 
ATOM     23  C   UNL     1      31.372 -24.337 -15.445  0.00  0.00    +0.041 C 
ATOM     24  C   UNL     1      29.373 -23.575 -16.576  0.00  0.00    +0.015 C 
ATOM     25  C   UNL     1      30.627 -24.998 -14.483  0.00  0.00    +0.007 C 
ATOM     26  C   UNL     1      28.612 -24.237 -15.612  0.00  0.00    +0.001 C 
ATOM     27  C   UNL     1      29.234 -24.945 -14.572  0.00  0.00    +0.001 C 
ATOM     28  H   UNL     1      31.335 -22.504 -18.127  0.00  0.00    +0.149 HD
ENDBRANCH   1  21
BRANCH   5  29
ATOM     29  C   UNL     1      35.463 -20.878 -20.379  0.00  0.00    +0.037 C 
ATOM     30  C   UNL     1      34.618 -20.033 -20.947  0.00  0.00    +0.003 C 
BRANCH  30  31
ATOM     31  C   UNL     1      34.932 -19.247 -22.152  0.00  0.00    +0.000 C 
ATOM     32  C   UNL     1      35.676 -18.083 -22.029  0.00  0.00    +0.000 C 
ATOM     33  C   UNL     1      34.477 -19.684 -23.385  0.00  0.00    +0.000 C 
ATOM     34  C   UNL     1      35.974 -17.339 -23.170  0.00  0.00    +0.000 C 
ATOM     35  C   UNL     1      34.775 -18.939 -24.527  0.00  0.00    +0.000 C 
ATOM     36  C   UNL     1      35.523 -17.766 -24.419  0.00  0.00    +0.000 C 
ENDBRANCH  30  31
ENDBRANCH   5  29
TORSDOF 4
ENDMDL
MODEL 2
REMARK VINA RESULT:     -12.8      2.408      5.456
REMARK  Name = 6105620
REMARK  4 active torsions:
REMARK  status: ('A' for Active; 'I' for Inactive)
REMARK    1  A    between atoms: N_2  and  C_7
REMARK    2  A    between atoms: N_3  and  C_21
REMARK    3  A    between atoms: C_9  and  C_29
REMARK    4  A    between atoms: C_30  and  C_31
REMARK                            x       y       z     vdW  Elec       q    Type
REMARK                         _______ _______ _______ _____ _____    ______ ____
ROOT
ATOM      1  N   UNL     1      35.887 -22.698 -17.456  0.00  0.00    -0.086 NA
ATOM      2  N   UNL     1      34.476 -22.719 -17.829  0.00  0.00    -0.132 N 
ATOM      3  N   UNL     1      36.531 -21.879 -18.427  0.00  0.00    -0.240 N 
ATOM      4  N   UNL     1      34.324 -22.024 -19.021  0.00  0.00    -0.146 NA
ATOM      5  C   UNL     1      35.530 -21.566 -19.320  0.00  0.00    +0.162 C 
ATOM      6  H   UNL     1      37.475 -21.601 -18.454  0.00  0.00    +0.170 HD
ENDROOT
BRANCH   2  11
ATOM      7  O   UNL     1      33.525 -24.802 -13.267  0.00  0.00    -0.220 OA
ATOM      8  O   UNL     1      28.785 -24.067 -15.273  0.00  0.00    -0.220 OA
ATOM      9  N   UNL     1      31.257 -24.969 -13.089  0.00  0.00    -0.062 NA
ATOM     10  N   UNL     1      30.119 -24.793 -13.570  0.00  0.00    -0.062 NA
ATOM     11  C   UNL     1      33.334 -23.092 -17.090  0.00  0.00    +0.089 C 
ATOM     12  C   UNL     1      33.459 -23.663 -15.811  0.00  0.00    +0.030 C 
ATOM     13  C   UNL     1      32.044 -22.901 -17.617  0.00  0.00    +0.019 C 
ATOM     14  C   UNL     1      32.321 -24.029 -15.087  0.00  0.00    +0.097 C 
ATOM     15  C   UNL     1      31.062 -23.834 -15.620  0.00  0.00    +0.096 C 
ATOM     16  C   UNL     1      30.911 -23.269 -16.889  0.00  0.00    +0.014 C 
ATOM     17  C   UNL     1      32.410 -24.626 -13.750  0.00  0.00    +0.174 C 
ATOM     18  C   UNL     1      29.909 -24.239 -14.808  0.00  0.00    +0.174 C 
ENDBRANCH   2  11
BRANCH   1  21
ATOM     19  S   UNL     1      38.063 -22.833 -15.904  0.00  0.00    -0.074 S 
ATOM     20  N   UNL     1      36.071 -24.533 -15.998  0.00  0.00    -0.310 N 
ATOM     21  C   UNL     1      36.516 -23.390 -16.532  0.00  0.00    +0.222 C 
ATOM     22  C   UNL     1      36.920 -25.036 -15.065  0.00  0.00    +0.052 C 
ATOM     23  C   UNL     1      38.070 -24.267 -14.855  0.00  0.00    +0.041 C 
ATOM     24  C   UNL     1      36.715 -26.207 -14.350  0.00  0.00    +0.015 C 
ATOM     25  C   UNL     1      39.033 -24.647 -13.935  0.00  0.00    +0.007 C 
ATOM     26  C   UNL     1      37.679 -26.600 -13.420  0.00  0.00    +0.001 C 
ATOM     27  C   UNL     1      38.830 -25.825 -13.214  0.00  0.00    +0.001 C 
ATOM     28  H   UNL     1      35.222 -24.962 -16.253  0.00  0.00    +0.149 HD
ENDBRANCH   1  21
BRANCH   5  29
ATOM     29  C   UNL     1      35.754 -20.778 -20.541  0.00  0.00    +0.037 C 
ATOM     30  C   UNL     1      34.880 -19.878 -20.960  0.00  0.00    +0.003 C 
BRANCH  30  31
ATOM     31  C   UNL     1      35.056 -19.073 -22.181  0.00  0.00    +0.000 C 
ATOM     32  C   UNL     1      35.586 -17.795 -22.082  0.00  0.00    +0.000 C 
ATOM     33  C   UNL     1      34.688 -19.606 -23.405  0.00  0.00    +0.000 C 
ATOM     34  C   UNL     1      35.752 -17.033 -23.238  0.00  0.00    +0.000 C 
ATOM     35  C   UNL     1      34.854 -18.844 -24.562  0.00  0.00    +0.000 C 
ATOM     36  C   UNL     1      35.387 -17.557 -24.478  0.00  0.00    +0.000 C 
ENDBRANCH  30  31
ENDBRANCH   5  29
TORSDOF 4
ENDMDL
MODEL 3
REMARK VINA RESULT:     -12.6      2.458      6.044
REMARK  Name = 6105620
REMARK  4 active torsions:
REMARK  status: ('A' for Active; 'I' for Inactive)
REMARK    1  A    between atoms: N_2  and  C_7
REMARK    2  A    between atoms: N_3  and  C_21
REMARK    3  A    between atoms: C_9  and  C_29
REMARK    4  A    between atoms: C_30  and  C_31
REMARK                            x       y       z     vdW  Elec       q    Type
REMARK                         _______ _______ _______ _____ _____    ______ ____
ROOT
ATOM      1  N   UNL     1      36.016 -22.730 -17.064  0.00  0.00    -0.086 NA
ATOM      2  N   UNL     1      34.631 -22.962 -17.462  0.00  0.00    -0.132 N 
ATOM      3  N   UNL     1      36.579 -21.912 -18.084  0.00  0.00    -0.240 N 
ATOM      4  N   UNL     1      34.427 -22.385 -18.709  0.00  0.00    -0.146 NA
ATOM      5  C   UNL     1      35.573 -21.800 -19.019  0.00  0.00    +0.162 C 
ATOM      6  H   UNL     1      37.481 -21.518 -18.115  0.00  0.00    +0.170 HD
ENDROOT
BRANCH   2  11
ATOM      7  O   UNL     1      29.564 -22.359 -17.594  0.00  0.00    -0.220 OA
ATOM      8  O   UNL     1      30.298 -25.535 -13.545  0.00  0.00    -0.220 OA
ATOM      9  N   UNL     1      28.718 -23.588 -15.869  0.00  0.00    -0.062 NA
ATOM     10  N   UNL     1      28.894 -24.350 -14.897  0.00  0.00    -0.062 NA
ATOM     11  C   UNL     1      33.524 -23.421 -16.718  0.00  0.00    +0.089 C 
ATOM     12  C   UNL     1      32.216 -23.030 -17.058  0.00  0.00    +0.030 C 
ATOM     13  C   UNL     1      33.704 -24.281 -15.619  0.00  0.00    +0.019 C 
ATOM     14  C   UNL     1      31.126 -23.491 -16.315  0.00  0.00    +0.097 C 
ATOM     15  C   UNL     1      31.321 -24.335 -15.239  0.00  0.00    +0.096 C 
ATOM     16  C   UNL     1      32.611 -24.738 -14.881  0.00  0.00    +0.014 C 
ATOM     17  C   UNL     1      29.748 -23.107 -16.638  0.00  0.00    +0.174 C 
ATOM     18  C   UNL     1      30.135 -24.783 -14.501  0.00  0.00    +0.174 C 
ENDBRANCH   2  11
BRANCH   1  21
ATOM     19  S   UNL     1      36.311 -22.858 -14.407  0.00  0.00    -0.074 S 
ATOM     20  N   UNL     1      37.711 -24.125 -16.224  0.00  0.00    -0.310 N 
ATOM     21  C   UNL     1      36.700 -23.263 -16.076  0.00  0.00    +0.222 C 
ATOM     22  C   UNL     1      38.239 -24.517 -15.036  0.00  0.00    +0.052 C 
ATOM     23  C   UNL     1      37.626 -23.948 -13.915  0.00  0.00    +0.041 C 
ATOM     24  C   UNL     1      39.296 -25.403 -14.888  0.00  0.00    +0.015 C 
ATOM     25  C   UNL     1      38.049 -24.249 -12.631  0.00  0.00    +0.007 C 
ATOM     26  C   UNL     1      39.732 -25.714 -13.598  0.00  0.00    +0.001 C 
ATOM     27  C   UNL     1      39.113 -25.140 -12.477  0.00  0.00    +0.001 C 
ATOM     28  H   UNL     1      38.038 -24.440 -17.098  0.00  0.00    +0.149 HD
ENDBRANCH   1  21
BRANCH   5  29
ATOM     29  C   UNL     1      35.732 -21.086 -20.295  0.00  0.00    +0.037 C 
ATOM     30  C   UNL     1      34.996 -20.030 -20.599  0.00  0.00    +0.003 C 
BRANCH  30  31
ATOM     31  C   UNL     1      35.112 -19.289 -21.867  0.00  0.00    +0.000 C 
ATOM     32  C   UNL     1      34.678 -19.882 -23.042  0.00  0.00    +0.000 C 
ATOM     33  C   UNL     1      35.652 -18.013 -21.861  0.00  0.00    +0.000 C 
ATOM     34  C   UNL     1      34.787 -19.180 -24.243  0.00  0.00    +0.000 C 
ATOM     35  C   UNL     1      35.761 -17.311 -23.061  0.00  0.00    +0.000 C 
ATOM     36  C   UNL     1      35.329 -17.895 -24.252  0.00  0.00    +0.000 C 
ENDBRANCH  30  31
ENDBRANCH   5  29
TORSDOF 4
ENDMDL
MODEL 4
REMARK VINA RESULT:     -12.6      1.337      2.035
REMARK  Name = 6105620
REMARK  4 active torsions:
REMARK  status: ('A' for Active; 'I' for Inactive)
REMARK    1  A    between atoms: N_2  and  C_7
REMARK    2  A    between atoms: N_3  and  C_21
REMARK    3  A    between atoms: C_9  and  C_29
REMARK    4  A    between atoms: C_30  and  C_31
REMARK                            x       y       z     vdW  Elec       q    Type
REMARK                         _______ _______ _______ _____ _____    ______ ____
ROOT
ATOM      1  N   UNL     1      34.003 -23.170 -17.233  0.00  0.00    -0.086 NA
ATOM      2  N   UNL     1      35.354 -23.099 -16.685  0.00  0.00    -0.132 N 
ATOM      3  N   UNL     1      34.078 -22.568 -18.521  0.00  0.00    -0.240 N 
ATOM      4  N   UNL     1      36.156 -22.398 -17.576  0.00  0.00    -0.146 NA
ATOM      5  C   UNL     1      35.376 -22.116 -18.607  0.00  0.00    +0.162 C 
ATOM      6  H   UNL     1      33.364 -22.492 -19.196  0.00  0.00    +0.170 HD
ENDROOT
BRANCH   2  11
ATOM      7  O   UNL     1      37.934 -21.874 -12.454  0.00  0.00    -0.220 OA
ATOM      8  O   UNL     1      37.718 -27.065 -12.277  0.00  0.00    -0.220 OA
ATOM      9  N   UNL     1      38.439 -23.837 -11.409  0.00  0.00    -0.062 NA
ATOM     10  N   UNL     1      38.388 -25.083 -11.367  0.00  0.00    -0.062 NA
ATOM     11  C   UNL     1      35.949 -23.792 -15.610  0.00  0.00    +0.089 C 
ATOM     12  C   UNL     1      36.603 -23.094 -14.578  0.00  0.00    +0.030 C 
ATOM     13  C   UNL     1      35.901 -25.196 -15.545  0.00  0.00    +0.019 C 
ATOM     14  C   UNL     1      37.189 -23.790 -13.517  0.00  0.00    +0.097 C 
ATOM     15  C   UNL     1      37.132 -25.169 -13.470  0.00  0.00    +0.096 C 
ATOM     16  C   UNL     1      36.487 -25.885 -14.483  0.00  0.00    +0.014 C 
ATOM     17  C   UNL     1      37.879 -23.099 -12.423  0.00  0.00    +0.174 C 
ATOM     18  C   UNL     1      37.766 -25.839 -12.329  0.00  0.00    +0.174 C 
ENDBRANCH   2  11
BRANCH   1  21
ATOM     19  S   UNL     1      32.929 -24.380 -15.101  0.00  0.00    -0.074 S 
ATOM     20  N   UNL     1      31.661 -23.351 -17.151  0.00  0.00    -0.310 N 
ATOM     21  C   UNL     1      32.886 -23.548 -16.652  0.00  0.00    +0.222 C 
ATOM     22  C   UNL     1      30.686 -23.843 -16.343  0.00  0.00    +0.052 C 
ATOM     23  C   UNL     1      31.155 -24.445 -15.171  0.00  0.00    +0.041 C 
ATOM     24  C   UNL     1      29.326 -23.779 -16.608  0.00  0.00    +0.015 C 
ATOM     25  C   UNL     1      30.284 -24.993 -14.244  0.00  0.00    +0.007 C 
ATOM     26  C   UNL     1      28.438 -24.329 -15.681  0.00  0.00    +0.001 C 
ATOM     27  C   UNL     1      28.914 -24.932 -14.507  0.00  0.00    +0.001 C 
ATOM     28  H   UNL     1      31.485 -22.900 -18.009  0.00  0.00    +0.149 HD
ENDBRANCH   1  21
BRANCH   5  29
ATOM     29  C   UNL     1      35.894 -21.361 -19.757  0.00  0.00    +0.037 C 
ATOM     30  C   UNL     1      35.128 -20.538 -20.453  0.00  0.00    +0.003 C 
BRANCH  30  31
ATOM     31  C   UNL     1      35.598 -19.767 -21.618  0.00  0.00    +0.000 C 
ATOM     32  C   UNL     1      36.859 -19.191 -21.586  0.00  0.00    +0.000 C 
ATOM     33  C   UNL     1      34.772 -19.633 -22.721  0.00  0.00    +0.000 C 
ATOM     34  C   UNL     1      37.304 -18.462 -22.689  0.00  0.00    +0.000 C 
ATOM     35  C   UNL     1      35.218 -18.903 -23.824  0.00  0.00    +0.000 C 
ATOM     36  C   UNL     1      36.484 -18.318 -23.808  0.00  0.00    +0.000 C 
ENDBRANCH  30  31
ENDBRANCH   5  29
TORSDOF 4
ENDMDL
