MODEL 1
REMARK VINA RESULT:     -11.2      0.000      0.000
REMARK  Name = 446752
REMARK  3 active torsions:
REMARK  status: ('A' for Active; 'I' for Inactive)
REMARK    1  A    between atoms: C_6  and  C_18
REMARK    2  A    between atoms: C_18  and  N_19
REMARK    3  A    between atoms: N_19  and  C_22
REMARK                            x       y       z     vdW  Elec       q    Type
REMARK                         _______ _______ _______ _____ _____    ______ ____
ROOT
ATOM      1  N   UNL     1      33.021 -20.994 -20.564  0.00  0.00    -0.182 NA
ATOM      2  N   UNL     1      32.782 -22.387 -18.730  0.00  0.00    -0.273 NA
ATOM      3  N   UNL     1      34.674 -23.044 -17.394  0.00  0.00    -0.312 NA
ATOM      4  N   UNL     1      36.817 -22.302 -17.899  0.00  0.00    -0.332 N 
ATOM      5  N   UNL     1      32.519 -23.800 -16.875  0.00  0.00    -0.283 N 
ATOM      6  C   UNL     1      35.181 -20.152 -21.200  0.00  0.00    +0.010 C 
ATOM      7  C   UNL     1      35.757 -20.827 -20.149  0.00  0.00    -0.009 C 
ATOM      8  C   UNL     1      34.943 -21.592 -19.301  0.00  0.00    +0.115 C 
ATOM      9  C   UNL     1      33.564 -21.658 -19.535  0.00  0.00    +0.104 C 
ATOM     10  C   UNL     1      33.824 -20.260 -21.372  0.00  0.00    +0.107 C 
ATOM     11  C   UNL     1      37.241 -20.691 -19.986  0.00  0.00    +0.032 C 
ATOM     12  C   UNL     1      35.441 -22.307 -18.214  0.00  0.00    +0.201 C 
ATOM     13  C   UNL     1      33.371 -23.039 -17.706  0.00  0.00    +0.206 C 
ATOM     14  H   UNL     1      37.146 -22.815 -17.125  0.00  0.00    +0.145 HD
ATOM     15  H   UNL     1      37.447 -21.787 -18.452  0.00  0.00    +0.145 HD
ATOM     16  H   UNL     1      31.553 -23.833 -17.057  0.00  0.00    +0.156 HD
ATOM     17  H   UNL     1      32.893 -24.298 -16.112  0.00  0.00    +0.156 HD
ENDROOT
BRANCH   6  18
ATOM     18  C   UNL     1      35.983 -19.311 -22.155  0.00  0.00    +0.097 C 
BRANCH  18  19
ATOM     19  N   UNL     1      35.624 -17.935 -22.033  0.00  0.00    -0.288 NA
ATOM     20  H   UNL     1      35.649 -17.518 -21.140  0.00  0.00    +0.124 HD
BRANCH  19  22
ATOM     21  N   UNL     1      34.073 -13.757 -24.000  0.00  0.00    -0.248 NA
ATOM     22  C   UNL     1      35.233 -17.145 -23.140  0.00  0.00    +0.101 C 
ATOM     23  C   UNL     1      34.840 -15.805 -22.988  0.00  0.00    +0.010 C 
ATOM     24  C   UNL     1      34.456 -15.043 -24.111  0.00  0.00    +0.061 C 
ATOM     25  C   UNL     1      35.250 -17.736 -24.401  0.00  0.00    -0.010 C 
ATOM     26  C   UNL     1      34.815 -15.185 -21.731  0.00  0.00    +0.000 C 
ATOM     27  C   UNL     1      34.480 -15.658 -25.359  0.00  0.00    +0.071 C 
ATOM     28  C   UNL     1      34.872 -16.991 -25.511  0.00  0.00    -0.023 C 
ATOM     29  C   UNL     1      34.421 -13.861 -21.613  0.00  0.00    +0.020 C 
ATOM     30  C   UNL     1      34.063 -13.196 -22.768  0.00  0.00    +0.098 C 
ENDBRANCH  19  22
ENDBRANCH  18  19
ENDBRANCH   6  18
TORSDOF 3
ENDMDL
MODEL 2
REMARK VINA RESULT:     -11.2      0.607      2.076
REMARK  Name = 446752
REMARK  3 active torsions:
REMARK  status: ('A' for Active; 'I' for Inactive)
REMARK    1  A    between atoms: C_6  and  C_18
REMARK    2  A    between atoms: C_18  and  N_19
REMARK    3  A    between atoms: N_19  and  C_22
REMARK                            x       y       z     vdW  Elec       q    Type
REMARK                         _______ _______ _______ _____ _____    ______ ____
ROOT
ATOM      1  N   UNL     1      32.850 -20.897 -20.574  0.00  0.00    -0.182 NA
ATOM      2  N   UNL     1      32.883 -22.392 -18.807  0.00  0.00    -0.273 NA
ATOM      3  N   UNL     1      34.937 -22.986 -17.699  0.00  0.00    -0.312 NA
ATOM      4  N   UNL     1      36.968 -22.078 -18.368  0.00  0.00    -0.332 N 
ATOM      5  N   UNL     1      32.897 -23.910 -17.017  0.00  0.00    -0.283 N 
ATOM      6  C   UNL     1      34.879 -19.882 -21.369  0.00  0.00    +0.010 C 
ATOM      7  C   UNL     1      35.599 -20.568 -20.418  0.00  0.00    -0.009 C 
ATOM      8  C   UNL     1      34.923 -21.427 -19.540  0.00  0.00    +0.115 C 
ATOM      9  C   UNL     1      33.535 -21.574 -19.641  0.00  0.00    +0.104 C 
ATOM     10  C   UNL     1      33.521 -20.072 -21.414  0.00  0.00    +0.107 C 
ATOM     11  C   UNL     1      37.080 -20.340 -20.393  0.00  0.00    +0.032 C 
ATOM     12  C   UNL     1      35.571 -22.159 -18.548  0.00  0.00    +0.201 C 
ATOM     13  C   UNL     1      33.612 -23.054 -17.882  0.00  0.00    +0.206 C 
ATOM     14  H   UNL     1      37.405 -22.606 -17.660  0.00  0.00    +0.145 HD
ATOM     15  H   UNL     1      37.507 -21.495 -18.950  0.00  0.00    +0.145 HD
ATOM     16  H   UNL     1      31.921 -23.998 -17.106  0.00  0.00    +0.156 HD
ATOM     17  H   UNL     1      33.376 -24.419 -16.323  0.00  0.00    +0.156 HD
ENDROOT
BRANCH   6  18
ATOM     18  C   UNL     1      35.527 -18.943 -22.349  0.00  0.00    +0.097 C 
BRANCH  18  19
ATOM     19  N   UNL     1      35.880 -17.717 -21.708  0.00  0.00    -0.288 NA
ATOM     20  H   UNL     1      36.596 -17.726 -21.032  0.00  0.00    +0.124 HD
BRANCH  19  22
ATOM     21  N   UNL     1      33.959 -14.511 -24.834  0.00  0.00    -0.248 NA
ATOM     22  C   UNL     1      35.243 -16.488 -22.004  0.00  0.00    +0.101 C 
ATOM     23  C   UNL     1      34.918 -16.123 -23.321  0.00  0.00    +0.010 C 
ATOM     24  C   UNL     1      34.283 -14.891 -23.584  0.00  0.00    +0.061 C 
ATOM     25  C   UNL     1      34.941 -15.639 -20.943  0.00  0.00    -0.010 C 
ATOM     26  C   UNL     1      35.210 -16.959 -24.407  0.00  0.00    +0.000 C 
ATOM     27  C   UNL     1      33.994 -14.061 -22.505  0.00  0.00    +0.071 C 
ATOM     28  C   UNL     1      34.316 -14.423 -21.195  0.00  0.00    -0.023 C 
ATOM     29  C   UNL     1      34.877 -16.571 -25.696  0.00  0.00    +0.020 C 
ATOM     30  C   UNL     1      34.258 -15.347 -25.855  0.00  0.00    +0.098 C 
ENDBRANCH  19  22
ENDBRANCH  18  19
ENDBRANCH   6  18
TORSDOF 3
ENDMDL
MODEL 3
REMARK VINA RESULT:     -11.2      1.118      2.966
REMARK  Name = 446752
REMARK  3 active torsions:
REMARK  status: ('A' for Active; 'I' for Inactive)
REMARK    1  A    between atoms: C_6  and  C_18
REMARK    2  A    between atoms: C_18  and  N_19
REMARK    3  A    between atoms: N_19  and  C_22
REMARK                            x       y       z     vdW  Elec       q    Type
REMARK                         _______ _______ _______ _____ _____    ______ ____
ROOT
ATOM      1  N   UNL     1      37.303 -20.308 -19.971  0.00  0.00    -0.182 NA
ATOM      2  N   UNL     1      37.092 -21.761 -18.182  0.00  0.00    -0.273 NA
ATOM      3  N   UNL     1      34.996 -22.831 -17.670  0.00  0.00    -0.312 NA
ATOM      4  N   UNL     1      33.102 -22.441 -18.958  0.00  0.00    -0.332 N 
ATOM      5  N   UNL     1      36.897 -23.232 -16.363  0.00  0.00    -0.283 N 
ATOM      6  C   UNL     1      35.425 -19.815 -21.388  0.00  0.00    +0.010 C 
ATOM      7  C   UNL     1      34.633 -20.651 -20.636  0.00  0.00    -0.009 C 
ATOM      8  C   UNL     1      35.197 -21.319 -19.539  0.00  0.00    +0.115 C 
ATOM      9  C   UNL     1      36.548 -21.127 -19.227  0.00  0.00    +0.104 C 
ATOM     10  C   UNL     1      36.741 -19.671 -21.027  0.00  0.00    +0.107 C 
ATOM     11  C   UNL     1      33.201 -20.788 -21.053  0.00  0.00    +0.032 C 
ATOM     12  C   UNL     1      34.471 -22.184 -18.724  0.00  0.00    +0.201 C 
ATOM     13  C   UNL     1      36.295 -22.577 -17.459  0.00  0.00    +0.206 C 
ATOM     14  H   UNL     1      32.609 -23.056 -18.368  0.00  0.00    +0.145 HD
ATOM     15  H   UNL     1      32.642 -22.005 -19.711  0.00  0.00    +0.145 HD
ATOM     16  H   UNL     1      37.848 -23.082 -16.161  0.00  0.00    +0.156 HD
ATOM     17  H   UNL     1      36.364 -23.839 -15.799  0.00  0.00    +0.156 HD
ENDROOT
BRANCH   6  18
ATOM     18  C   UNL     1      34.898 -19.061 -22.578  0.00  0.00    +0.097 C 
BRANCH  18  19
ATOM     19  N   UNL     1      35.680 -17.891 -22.815  0.00  0.00    -0.288 NA
ATOM     20  H   UNL     1      36.616 -17.999 -23.102  0.00  0.00    +0.124 HD
BRANCH  19  22
ATOM     21  N   UNL     1      33.697 -13.805 -24.579  0.00  0.00    -0.248 NA
ATOM     22  C   UNL     1      35.166 -16.581 -22.656  0.00  0.00    +0.101 C 
ATOM     23  C   UNL     1      34.677 -15.843 -23.746  0.00  0.00    +0.010 C 
ATOM     24  C   UNL     1      34.172 -14.540 -23.556  0.00  0.00    +0.061 C 
ATOM     25  C   UNL     1      35.157 -16.036 -21.375  0.00  0.00    -0.010 C 
ATOM     26  C   UNL     1      34.675 -16.367 -25.046  0.00  0.00    +0.000 C 
ATOM     27  C   UNL     1      34.176 -14.019 -22.265  0.00  0.00    +0.071 C 
ATOM     28  C   UNL     1      34.661 -14.753 -21.180  0.00  0.00    -0.023 C 
ATOM     29  C   UNL     1      34.186 -15.613 -26.102  0.00  0.00    +0.020 C 
ATOM     30  C   UNL     1      33.712 -14.349 -25.818  0.00  0.00    +0.098 C 
ENDBRANCH  19  22
ENDBRANCH  18  19
ENDBRANCH   6  18
TORSDOF 3
ENDMDL
MODEL 4
REMARK VINA RESULT:     -11.0      0.990      2.194
REMARK  Name = 446752
REMARK  3 active torsions:
REMARK  status: ('A' for Active; 'I' for Inactive)
REMARK    1  A    between atoms: C_6  and  C_18
REMARK    2  A    between atoms: C_18  and  N_19
REMARK    3  A    between atoms: N_19  and  C_22
REMARK                            x       y       z     vdW  Elec       q    Type
REMARK                         _______ _______ _______ _____ _____    ______ ____
ROOT
ATOM      1  N   UNL     1      37.134 -20.896 -19.461  0.00  0.00    -0.182 NA
ATOM      2  N   UNL     1      36.823 -22.279 -17.631  0.00  0.00    -0.273 NA
ATOM      3  N   UNL     1      34.668 -23.222 -17.118  0.00  0.00    -0.312 NA
ATOM      4  N   UNL     1      32.814 -22.776 -18.446  0.00  0.00    -0.332 N 
ATOM      5  N   UNL     1      36.527 -23.680 -15.771  0.00  0.00    -0.283 N 
ATOM      6  C   UNL     1      35.303 -20.350 -20.920  0.00  0.00    +0.010 C 
ATOM      7  C   UNL     1      34.459 -21.120 -20.154  0.00  0.00    -0.009 C 
ATOM      8  C   UNL     1      34.972 -21.782 -19.030  0.00  0.00    +0.115 C 
ATOM      9  C   UNL     1      36.327 -21.651 -18.703  0.00  0.00    +0.104 C 
ATOM     10  C   UNL     1      36.619 -20.263 -20.544  0.00  0.00    +0.107 C 
ATOM     11  C   UNL     1      33.026 -21.196 -20.589  0.00  0.00    +0.032 C 
ATOM     12  C   UNL     1      34.191 -22.582 -18.199  0.00  0.00    +0.201 C 
ATOM     13  C   UNL     1      35.975 -23.030 -16.896  0.00  0.00    +0.206 C 
ATOM     14  H   UNL     1      32.282 -23.346 -17.845  0.00  0.00    +0.145 HD
ATOM     15  H   UNL     1      32.387 -22.340 -19.219  0.00  0.00    +0.145 HD
ATOM     16  H   UNL     1      37.483 -23.573 -15.560  0.00  0.00    +0.156 HD
ATOM     17  H   UNL     1      35.956 -24.241 -15.198  0.00  0.00    +0.156 HD
ENDROOT
BRANCH   6  18
ATOM     18  C   UNL     1      34.831 -19.607 -22.140  0.00  0.00    +0.097 C 
BRANCH  18  19
ATOM     19  N   UNL     1      35.634 -18.448 -22.361  0.00  0.00    -0.288 NA
ATOM     20  H   UNL     1      36.470 -18.348 -21.849  0.00  0.00    +0.124 HD
BRANCH  19  22
ATOM     21  N   UNL     1      34.310 -13.886 -23.443  0.00  0.00    -0.248 NA
ATOM     22  C   UNL     1      35.279 -17.435 -23.285  0.00  0.00    +0.101 C 
ATOM     23  C   UNL     1      34.966 -16.132 -22.866  0.00  0.00    +0.010 C 
ATOM     24  C   UNL     1      34.616 -15.144 -23.810  0.00  0.00    +0.061 C 
ATOM     25  C   UNL     1      35.248 -17.768 -24.636  0.00  0.00    -0.010 C 
ATOM     26  C   UNL     1      34.990 -15.770 -21.512  0.00  0.00    +0.000 C 
ATOM     27  C   UNL     1      34.591 -15.504 -25.154  0.00  0.00    +0.071 C 
ATOM     28  C   UNL     1      34.904 -16.800 -25.572  0.00  0.00    -0.023 C 
ATOM     29  C   UNL     1      34.675 -14.475 -21.130  0.00  0.00    +0.020 C 
ATOM     30  C   UNL     1      34.345 -13.578 -22.125  0.00  0.00    +0.098 C 
ENDBRANCH  19  22
ENDBRANCH  18  19
ENDBRANCH   6  18
TORSDOF 3
ENDMDL
MODEL 5
REMARK VINA RESULT:     -10.9      1.503      8.302
REMARK  Name = 446752
REMARK  3 active torsions:
REMARK  status: ('A' for Active; 'I' for Inactive)
REMARK    1  A    between atoms: C_6  and  C_18
REMARK    2  A    between atoms: C_18  and  N_19
REMARK    3  A    between atoms: N_19  and  C_22
REMARK                            x       y       z     vdW  Elec       q    Type
REMARK                         _______ _______ _______ _____ _____    ______ ____
ROOT
ATOM      1  N   UNL     1      34.953 -17.392 -25.331  0.00  0.00    -0.182 NA
ATOM      2  N   UNL     1      34.112 -15.584 -26.506  0.00  0.00    -0.273 NA
ATOM      3  N   UNL     1      33.660 -13.480 -25.425  0.00  0.00    -0.312 NA
ATOM      4  N   UNL     1      34.053 -13.188 -23.153  0.00  0.00    -0.332 N 
ATOM      5  N   UNL     1      33.259 -13.761 -27.714  0.00  0.00    -0.283 N 
ATOM      6  C   UNL     1      35.406 -17.230 -22.976  0.00  0.00    +0.010 C 
ATOM      7  C   UNL     1      34.979 -15.923 -22.980  0.00  0.00    -0.009 C 
ATOM      8  C   UNL     1      34.536 -15.354 -24.183  0.00  0.00    +0.115 C 
ATOM      9  C   UNL     1      34.534 -16.120 -25.355  0.00  0.00    +0.104 C 
ATOM     10  C   UNL     1      35.377 -17.924 -24.159  0.00  0.00    +0.107 C 
ATOM     11  C   UNL     1      35.022 -15.190 -21.674  0.00  0.00    +0.032 C 
ATOM     12  C   UNL     1      34.088 -14.039 -24.280  0.00  0.00    +0.201 C 
ATOM     13  C   UNL     1      33.699 -14.298 -26.485  0.00  0.00    +0.206 C 
ATOM     14  H   UNL     1      33.732 -12.262 -23.246  0.00  0.00    +0.145 HD
ATOM     15  H   UNL     1      34.349 -13.522 -22.276  0.00  0.00    +0.145 HD
ATOM     16  H   UNL     1      33.265 -14.317 -28.526  0.00  0.00    +0.156 HD
ATOM     17  H   UNL     1      32.946 -12.828 -27.759  0.00  0.00    +0.156 HD
ENDROOT
BRANCH   6  18
ATOM     18  C   UNL     1      35.895 -17.914 -21.729  0.00  0.00    +0.097 C 
BRANCH  18  19
ATOM     19  N   UNL     1      35.830 -19.332 -21.878  0.00  0.00    -0.288 NA
ATOM     20  H   UNL     1      36.406 -19.762 -22.552  0.00  0.00    +0.124 HD
BRANCH  19  22
ATOM     21  N   UNL     1      35.005 -22.433 -18.213  0.00  0.00    -0.248 NA
ATOM     22  C   UNL     1      34.973 -20.146 -21.099  0.00  0.00    +0.101 C 
ATOM     23  C   UNL     1      35.455 -20.898 -20.014  0.00  0.00    +0.010 C 
ATOM     24  C   UNL     1      34.576 -21.700 -19.257  0.00  0.00    +0.061 C 
ATOM     25  C   UNL     1      33.623 -20.182 -21.437  0.00  0.00    -0.010 C 
ATOM     26  C   UNL     1      36.809 -20.880 -19.652  0.00  0.00    +0.000 C 
ATOM     27  C   UNL     1      33.232 -21.719 -19.617  0.00  0.00    +0.071 C 
ATOM     28  C   UNL     1      32.752 -20.969 -20.695  0.00  0.00    -0.023 C 
ATOM     29  C   UNL     1      37.254 -21.634 -18.577  0.00  0.00    +0.020 C 
ATOM     30  C   UNL     1      36.320 -22.387 -17.895  0.00  0.00    +0.098 C 
ENDBRANCH  19  22
ENDBRANCH  18  19
ENDBRANCH   6  18
TORSDOF 3
ENDMDL
MODEL 6
REMARK VINA RESULT:     -10.7      3.360      6.854
REMARK  Name = 446752
REMARK  3 active torsions:
REMARK  status: ('A' for Active; 'I' for Inactive)
REMARK    1  A    between atoms: C_6  and  C_18
REMARK    2  A    between atoms: C_18  and  N_19
REMARK    3  A    between atoms: N_19  and  C_22
REMARK                            x       y       z     vdW  Elec       q    Type
REMARK                         _______ _______ _______ _____ _____    ______ ____
ROOT
ATOM      1  N   UNL     1      34.987 -15.190 -21.164  0.00  0.00    -0.182 NA
ATOM      2  N   UNL     1      35.587 -17.426 -21.180  0.00  0.00    -0.273 NA
ATOM      3  N   UNL     1      35.614 -18.708 -23.218  0.00  0.00    -0.312 NA
ATOM      4  N   UNL     1      35.037 -17.743 -25.251  0.00  0.00    -0.332 N 
ATOM      5  N   UNL     1      36.197 -19.692 -21.175  0.00  0.00    -0.283 N 
ATOM      6  C   UNL     1      34.367 -14.065 -23.196  0.00  0.00    +0.010 C 
ATOM      7  C   UNL     1      34.569 -15.227 -23.905  0.00  0.00    -0.009 C 
ATOM      8  C   UNL     1      34.986 -16.378 -23.222  0.00  0.00    +0.115 C 
ATOM      9  C   UNL     1      35.189 -16.331 -21.838  0.00  0.00    +0.104 C 
ATOM     10  C   UNL     1      34.584 -14.088 -21.842  0.00  0.00    +0.107 C 
ATOM     11  C   UNL     1      34.324 -15.173 -25.382  0.00  0.00    +0.032 C 
ATOM     12  C   UNL     1      35.215 -17.596 -23.858  0.00  0.00    +0.201 C 
ATOM     13  C   UNL     1      35.779 -18.553 -21.897  0.00  0.00    +0.206 C 
ATOM     14  H   UNL     1      35.205 -18.614 -25.679  0.00  0.00    +0.145 HD
ATOM     15  H   UNL     1      34.744 -16.976 -25.793  0.00  0.00    +0.145 HD
ATOM     16  H   UNL     1      36.334 -19.636 -20.202  0.00  0.00    +0.156 HD
ATOM     17  H   UNL     1      36.353 -20.543 -21.646  0.00  0.00    +0.156 HD
ENDROOT
BRANCH   6  18
ATOM     18  C   UNL     1      33.919 -12.788 -23.853  0.00  0.00    +0.097 C 
BRANCH  18  19
ATOM     19  N   UNL     1      32.709 -12.319 -23.260  0.00  0.00    -0.288 NA
ATOM     20  H   UNL     1      31.920 -12.909 -23.267  0.00  0.00    +0.124 HD
BRANCH  19  22
ATOM     21  N   UNL     1      31.872  -9.418 -19.436  0.00  0.00    -0.248 NA
ATOM     22  C   UNL     1      32.595 -11.041 -22.662  0.00  0.00    +0.101 C 
ATOM     23  C   UNL     1      32.280 -10.888 -21.302  0.00  0.00    +0.010 C 
ATOM     24  C   UNL     1      32.173  -9.601 -20.735  0.00  0.00    +0.061 C 
ATOM     25  C   UNL     1      32.807  -9.924 -23.466  0.00  0.00    -0.010 C 
ATOM     26  C   UNL     1      32.062 -11.994 -20.470  0.00  0.00    +0.000 C 
ATOM     27  C   UNL     1      32.388  -8.502 -21.562  0.00  0.00    +0.071 C 
ATOM     28  C   UNL     1      32.703  -8.653 -22.915  0.00  0.00    -0.023 C 
ATOM     29  C   UNL     1      31.752 -11.811 -19.131  0.00  0.00    +0.020 C 
ATOM     30  C   UNL     1      31.669 -10.514 -18.667  0.00  0.00    +0.098 C 
ENDBRANCH  19  22
ENDBRANCH  18  19
ENDBRANCH   6  18
TORSDOF 3
ENDMDL
MODEL 7
REMARK VINA RESULT:     -10.6      3.699      7.150
REMARK  Name = 446752
REMARK  3 active torsions:
REMARK  status: ('A' for Active; 'I' for Inactive)
REMARK    1  A    between atoms: C_6  and  C_18
REMARK    2  A    between atoms: C_18  and  N_19
REMARK    3  A    between atoms: N_19  and  C_22
REMARK                            x       y       z     vdW  Elec       q    Type
REMARK                         _______ _______ _______ _____ _____    ______ ____
ROOT
ATOM      1  N   UNL     1      34.873 -15.298 -20.995  0.00  0.00    -0.182 NA
ATOM      2  N   UNL     1      35.729 -17.415 -21.375  0.00  0.00    -0.273 NA
ATOM      3  N   UNL     1      35.840 -18.348 -23.592  0.00  0.00    -0.312 NA
ATOM      4  N   UNL     1      35.088 -17.153 -25.437  0.00  0.00    -0.332 N 
ATOM      5  N   UNL     1      36.601 -19.563 -21.741  0.00  0.00    -0.283 N 
ATOM      6  C   UNL     1      34.059 -13.952 -22.812  0.00  0.00    +0.010 C 
ATOM      7  C   UNL     1      34.373 -14.955 -23.700  0.00  0.00    -0.009 C 
ATOM      8  C   UNL     1      34.944 -16.140 -23.216  0.00  0.00    +0.115 C 
ATOM      9  C   UNL     1      35.185 -16.286 -21.845  0.00  0.00    +0.104 C 
ATOM     10  C   UNL     1      34.321 -14.160 -21.482  0.00  0.00    +0.107 C 
ATOM     11  C   UNL     1      34.075 -14.699 -25.147  0.00  0.00    +0.032 C 
ATOM     12  C   UNL     1      35.293 -17.206 -24.042  0.00  0.00    +0.201 C 
ATOM     13  C   UNL     1      36.029 -18.384 -22.266  0.00  0.00    +0.206 C 
ATOM     14  H   UNL     1      35.342 -17.919 -26.001  0.00  0.00    +0.145 HD
ATOM     15  H   UNL     1      34.690 -16.351 -25.846  0.00  0.00    +0.145 HD
ATOM     16  H   UNL     1      36.762 -19.644 -20.774  0.00  0.00    +0.156 HD
ATOM     17  H   UNL     1      36.840 -20.304 -22.344  0.00  0.00    +0.156 HD
ENDROOT
BRANCH   6  18
ATOM     18  C   UNL     1      33.444 -12.651 -23.251  0.00  0.00    +0.097 C 
BRANCH  18  19
ATOM     19  N   UNL     1      32.193 -12.445 -22.596  0.00  0.00    -0.288 NA
ATOM     20  H   UNL     1      31.388 -12.875 -22.969  0.00  0.00    +0.124 HD
BRANCH  19  22
ATOM     21  N   UNL     1      32.319  -8.161 -20.279  0.00  0.00    -0.248 NA
ATOM     22  C   UNL     1      32.059 -11.648 -21.433  0.00  0.00    +0.101 C 
ATOM     23  C   UNL     1      32.266 -10.260 -21.462  0.00  0.00    +0.010 C 
ATOM     24  C   UNL     1      32.126  -9.493 -20.287  0.00  0.00    +0.061 C 
ATOM     25  C   UNL     1      31.709 -12.284 -20.245  0.00  0.00    -0.010 C 
ATOM     26  C   UNL     1      32.618  -9.594 -22.645  0.00  0.00    +0.000 C 
ATOM     27  C   UNL     1      31.778 -10.154 -19.112  0.00  0.00    +0.071 C 
ATOM     28  C   UNL     1      31.569 -11.535 -19.083  0.00  0.00    -0.023 C 
ATOM     29  C   UNL     1      32.818  -8.222 -22.641  0.00  0.00    +0.020 C 
ATOM     30  C   UNL     1      32.657  -7.557 -21.443  0.00  0.00    +0.098 C 
ENDBRANCH  19  22
ENDBRANCH  18  19
ENDBRANCH   6  18
TORSDOF 3
ENDMDL
MODEL 8
REMARK VINA RESULT:     -10.6      1.415      8.190
REMARK  Name = 446752
REMARK  3 active torsions:
REMARK  status: ('A' for Active; 'I' for Inactive)
REMARK    1  A    between atoms: C_6  and  C_18
REMARK    2  A    between atoms: C_18  and  N_19
REMARK    3  A    between atoms: N_19  and  C_22
REMARK                            x       y       z     vdW  Elec       q    Type
REMARK                         _______ _______ _______ _____ _____    ______ ____
ROOT
ATOM      1  N   UNL     1      35.112 -15.480 -21.613  0.00  0.00    -0.182 NA
ATOM      2  N   UNL     1      34.285 -13.563 -22.613  0.00  0.00    -0.273 NA
ATOM      3  N   UNL     1      33.733 -13.503 -24.955  0.00  0.00    -0.312 NA
ATOM      4  N   UNL     1      34.012 -15.374 -26.304  0.00  0.00    -0.332 N 
ATOM      5  N   UNL     1      33.448 -11.609 -23.608  0.00  0.00    -0.283 N 
ATOM      6  C   UNL     1      35.449 -17.489 -22.889  0.00  0.00    +0.010 C 
ATOM      7  C   UNL     1      34.994 -16.852 -24.020  0.00  0.00    -0.009 C 
ATOM      8  C   UNL     1      34.594 -15.510 -23.932  0.00  0.00    +0.115 C 
ATOM      9  C   UNL     1      34.664 -14.843 -22.704  0.00  0.00    +0.104 C 
ATOM     10  C   UNL     1      35.494 -16.776 -21.718  0.00  0.00    +0.107 C 
ATOM     11  C   UNL     1      34.957 -17.655 -25.284  0.00  0.00    +0.032 C 
ATOM     12  C   UNL     1      34.119 -14.788 -25.024  0.00  0.00    +0.201 C 
ATOM     13  C   UNL     1      33.841 -12.959 -23.736  0.00  0.00    +0.206 C 
ATOM     14  H   UNL     1      33.674 -14.844 -27.061  0.00  0.00    +0.145 HD
ATOM     15  H   UNL     1      34.276 -16.313 -26.438  0.00  0.00    +0.145 HD
ATOM     16  H   UNL     1      33.506 -11.159 -22.735  0.00  0.00    +0.156 HD
ATOM     17  H   UNL     1      33.116 -11.117 -24.394  0.00  0.00    +0.156 HD
ENDROOT
BRANCH   6  18
ATOM     18  C   UNL     1      35.898 -18.925 -22.899  0.00  0.00    +0.097 C 
BRANCH  18  19
ATOM     19  N   UNL     1      36.101 -19.394 -21.567  0.00  0.00    -0.288 NA
ATOM     20  H   UNL     1      36.931 -19.144 -21.099  0.00  0.00    +0.124 HD
BRANCH  19  22
ATOM     21  N   UNL     1      34.883 -22.586 -18.093  0.00  0.00    -0.248 NA
ATOM     22  C   UNL     1      35.158 -20.204 -20.888  0.00  0.00    +0.101 C 
ATOM     23  C   UNL     1      35.526 -21.008 -19.797  0.00  0.00    +0.010 C 
ATOM     24  C   UNL     1      34.564 -21.804 -19.141  0.00  0.00    +0.061 C 
ATOM     25  C   UNL     1      33.840 -20.183 -21.335  0.00  0.00    -0.010 C 
ATOM     26  C   UNL     1      36.846 -21.047 -19.326  0.00  0.00    +0.000 C 
ATOM     27  C   UNL     1      33.254 -21.766 -19.610  0.00  0.00    +0.071 C 
ATOM     28  C   UNL     1      32.887 -20.966 -20.695  0.00  0.00    -0.023 C 
ATOM     29  C   UNL     1      37.178 -21.851 -18.246  0.00  0.00    +0.020 C 
ATOM     30  C   UNL     1      36.169 -22.595 -17.669  0.00  0.00    +0.098 C 
ENDBRANCH  19  22
ENDBRANCH  18  19
ENDBRANCH   6  18
TORSDOF 3
ENDMDL
MODEL 9
REMARK VINA RESULT:     -10.4      4.364      7.085
REMARK  Name = 446752
REMARK  3 active torsions:
REMARK  status: ('A' for Active; 'I' for Inactive)
REMARK    1  A    between atoms: C_6  and  C_18
REMARK    2  A    between atoms: C_18  and  N_19
REMARK    3  A    between atoms: N_19  and  C_22
REMARK                            x       y       z     vdW  Elec       q    Type
REMARK                         _______ _______ _______ _____ _____    ______ ____
ROOT
ATOM      1  N   UNL     1      33.990 -15.665 -25.638  0.00  0.00    -0.182 NA
ATOM      2  N   UNL     1      34.612 -17.859 -25.244  0.00  0.00    -0.273 NA
ATOM      3  N   UNL     1      35.429 -18.570 -23.093  0.00  0.00    -0.312 NA
ATOM      4  N   UNL     1      35.624 -17.072 -21.328  0.00  0.00    -0.332 N 
ATOM      5  N   UNL     1      35.239 -20.089 -24.864  0.00  0.00    -0.283 N 
ATOM      6  C   UNL     1      34.140 -14.010 -23.901  0.00  0.00    +0.010 C 
ATOM      7  C   UNL     1      34.623 -14.961 -23.032  0.00  0.00    -0.009 C 
ATOM      8  C   UNL     1      34.786 -16.278 -23.484  0.00  0.00    +0.115 C 
ATOM      9  C   UNL     1      34.459 -16.605 -24.805  0.00  0.00    +0.104 C 
ATOM     10  C   UNL     1      33.839 -14.397 -25.182  0.00  0.00    +0.107 C 
ATOM     11  C   UNL     1      34.943 -14.508 -21.639  0.00  0.00    +0.032 C 
ATOM     12  C   UNL     1      35.267 -17.304 -22.674  0.00  0.00    +0.201 C 
ATOM     13  C   UNL     1      35.087 -18.775 -24.372  0.00  0.00    +0.206 C 
ATOM     14  H   UNL     1      35.963 -17.813 -20.774  0.00  0.00    +0.145 HD
ATOM     15  H   UNL     1      35.536 -16.170 -20.944  0.00  0.00    +0.145 HD
ATOM     16  H   UNL     1      35.002 -20.297 -25.797  0.00  0.00    +0.156 HD
ATOM     17  H   UNL     1      35.581 -20.799 -24.273  0.00  0.00    +0.156 HD
ENDROOT
BRANCH   6  18
ATOM     18  C   UNL     1      33.937 -12.576 -23.494  0.00  0.00    +0.097 C 
BRANCH  18  19
ATOM     19  N   UNL     1      32.613 -12.379 -23.000  0.00  0.00    -0.288 NA
ATOM     20  H   UNL     1      31.853 -12.646 -23.567  0.00  0.00    +0.124 HD
BRANCH  19  22
ATOM     21  N   UNL     1      32.081  -8.570 -20.009  0.00  0.00    -0.248 NA
ATOM     22  C   UNL     1      32.346 -11.816 -21.729  0.00  0.00    +0.101 C 
ATOM     23  C   UNL     1      32.352 -10.427 -21.521  0.00  0.00    +0.010 C 
ATOM     24  C   UNL     1      32.083  -9.896 -20.243  0.00  0.00    +0.061 C 
ATOM     25  C   UNL     1      32.073 -12.685 -20.676  0.00  0.00    -0.010 C 
ATOM     26  C   UNL     1      32.623  -9.530 -22.563  0.00  0.00    +0.000 C 
ATOM     27  C   UNL     1      31.814 -10.787 -19.207  0.00  0.00    +0.071 C 
ATOM     28  C   UNL     1      31.807 -12.169 -19.413  0.00  0.00    -0.023 C 
ATOM     29  C   UNL     1      32.622  -8.163 -22.327  0.00  0.00    +0.020 C 
ATOM     30  C   UNL     1      32.347  -7.738 -21.043  0.00  0.00    +0.098 C 
ENDBRANCH  19  22
ENDBRANCH  18  19
ENDBRANCH   6  18
TORSDOF 3
ENDMDL
