MODEL 1
REMARK VINA RESULT:     -11.4      0.000      0.000
REMARK  Name = 449162
REMARK  12 active torsions:
REMARK  status: ('A' for Active; 'I' for Inactive)
REMARK    1  A    between atoms: C_1  and  C_9
REMARK    2  A    between atoms: C_3  and  C_19
REMARK    3  A    between atoms: C_10  and  C_16
REMARK    4  A    between atoms: C_11  and  C_13
REMARK    5  A    between atoms: C_13  and  O_14
REMARK    6  A    between atoms: C_16  and  O_17
REMARK    7  A    between atoms: C_20  and  C_21
REMARK    8  A    between atoms: C_21  and  O_22
REMARK    9  A    between atoms: O_22  and  C_23
REMARK   10  A    between atoms: C_24  and  C_32
REMARK   11  A    between atoms: C_25  and  O_29
REMARK   12  A    between atoms: C_32  and  O_33
REMARK                            x       y       z     vdW  Elec       q    Type
REMARK                         _______ _______ _______ _____ _____    ______ ____
ROOT
ATOM      1  C   UNL     1      35.551 -18.546 -22.828  0.00  0.00    +0.037 C 
ATOM      2  C   UNL     1      34.737 -19.397 -22.081  0.00  0.00    +0.003 C 
ATOM      3  C   UNL     1      35.280 -20.144 -21.036  0.00  0.00    -0.000 C 
ATOM      4  C   UNL     1      36.910 -18.442 -22.529  0.00  0.00    +0.003 C 
ATOM      5  C   UNL     1      36.639 -20.040 -20.737  0.00  0.00    -0.000 C 
ATOM      6  C   UNL     1      37.453 -19.189 -21.484  0.00  0.00    +0.000 C 
ENDROOT
BRANCH   1   9
ATOM      7  O   UNL     1      34.541 -18.498 -24.962  0.00  0.00    -0.353 OA
ATOM      8  N   UNL     1      34.033 -17.633 -25.922  0.00  0.00    -0.071 NA
ATOM      9  C   UNL     1      34.991 -17.773 -23.909  0.00  0.00    +0.175 A 
ATOM     10  C   UNL     1      34.797 -16.443 -24.137  0.00  0.00    +0.071 A 
ATOM     11  C   UNL     1      34.196 -16.410 -25.407  0.00  0.00    +0.196 A 
BRANCH  11  13
ATOM     12  O   UNL     1      34.039 -15.044 -27.344  0.00  0.00    -0.243 OA
ATOM     13  C   UNL     1      33.769 -15.262 -26.154  0.00  0.00    +0.359 C 
BRANCH  13  14
ATOM     14  O   UNL     1      33.004 -14.365 -25.450  0.00  0.00    -0.476 OA
ATOM     15  H   UNL     1      32.560 -14.637 -24.672  0.00  0.00    +0.295 HD
ENDBRANCH  13  14
ENDBRANCH  11  13
BRANCH  10  16
ATOM     16  C   UNL     1      35.139 -15.309 -23.260  0.00  0.00    +0.169 C 
BRANCH  16  17
ATOM     17  O   UNL     1      33.980 -14.658 -22.727  0.00  0.00    -0.377 OA
ATOM     18  H   UNL     1      34.208 -14.228 -21.888  0.00  0.00    +0.211 HD
ENDBRANCH  16  17
ENDBRANCH  10  16
ENDBRANCH   1   9
BRANCH   3  19
ATOM     19  C   UNL     1      34.430 -21.031 -20.258  0.00  0.00    -0.001 C 
ATOM     20  C   UNL     1      34.823 -22.171 -19.646  0.00  0.00    +0.021 C 
BRANCH  20  21
ATOM     21  C   UNL     1      33.913 -23.044 -18.843  0.00  0.00    +0.232 C 
BRANCH  21  22
ATOM     22  O   UNL     1      34.572 -23.402 -17.635  0.00  0.00    -0.470 OA
BRANCH  22  23
ATOM     23  C   UNL     1      33.791 -23.511 -16.514  0.00  0.00    +0.148 C 
ATOM     24  C   UNL     1      34.279 -24.128 -15.367  0.00  0.00    +0.143 C 
ATOM     25  C   UNL     1      33.467 -24.228 -14.237  0.00  0.00    +0.143 C 
ATOM     26  C   UNL     1      32.500 -22.993 -16.544  0.00  0.00    +0.037 C 
ATOM     27  C   UNL     1      32.172 -23.711 -14.261  0.00  0.00    +0.037 C 
ATOM     28  C   UNL     1      31.689 -23.094 -15.414  0.00  0.00    +0.006 C 
BRANCH  25  29
ATOM     29  O   UNL     1      33.920 -24.827 -13.099  0.00  0.00    -0.505 OA
ATOM     30  H   UNL     1      34.738 -25.283 -13.103  0.00  0.00    +0.292 HD
ENDBRANCH  25  29
BRANCH  24  32
ATOM     31  O   UNL     1      35.957 -25.760 -15.824  0.00  0.00    -0.245 OA
ATOM     32  C   UNL     1      35.634 -24.669 -15.342  0.00  0.00    +0.347 C 
BRANCH  32  33
ATOM     33  O   UNL     1      36.500 -23.815 -14.718  0.00  0.00    -0.441 OA
ATOM     34  C   UNL     1      37.646 -23.401 -15.468  0.00  0.00    +0.256 C 
ENDBRANCH  32  33
ENDBRANCH  24  32
ENDBRANCH  22  23
ENDBRANCH  21  22
ENDBRANCH  20  21
ENDBRANCH   3  19
TORSDOF 12
ENDMDL
MODEL 2
REMARK VINA RESULT:     -10.6      2.551      3.727
REMARK  Name = 449162
REMARK  12 active torsions:
REMARK  status: ('A' for Active; 'I' for Inactive)
REMARK    1  A    between atoms: C_1  and  C_9
REMARK    2  A    between atoms: C_3  and  C_19
REMARK    3  A    between atoms: C_10  and  C_16
REMARK    4  A    between atoms: C_11  and  C_13
REMARK    5  A    between atoms: C_13  and  O_14
REMARK    6  A    between atoms: C_16  and  O_17
REMARK    7  A    between atoms: C_20  and  C_21
REMARK    8  A    between atoms: C_21  and  O_22
REMARK    9  A    between atoms: O_22  and  C_23
REMARK   10  A    between atoms: C_24  and  C_32
REMARK   11  A    between atoms: C_25  and  O_29
REMARK   12  A    between atoms: C_32  and  O_33
REMARK                            x       y       z     vdW  Elec       q    Type
REMARK                         _______ _______ _______ _____ _____    ______ ____
ROOT
ATOM      1  C   UNL     1      34.880 -19.952 -21.055  0.00  0.00    +0.037 C 
ATOM      2  C   UNL     1      35.917 -20.423 -20.249  0.00  0.00    +0.003 C 
ATOM      3  C   UNL     1      35.703 -21.508 -19.400  0.00  0.00    -0.000 C 
ATOM      4  C   UNL     1      33.629 -20.568 -21.012  0.00  0.00    +0.003 C 
ATOM      5  C   UNL     1      34.452 -22.124 -19.356  0.00  0.00    -0.000 C 
ATOM      6  C   UNL     1      33.415 -21.654 -20.162  0.00  0.00    +0.000 C 
ENDROOT
BRANCH   1   9
ATOM      7  O   UNL     1      35.479 -17.683 -21.319  0.00  0.00    -0.353 OA
ATOM      8  N   UNL     1      35.653 -16.693 -22.277  0.00  0.00    -0.071 NA
ATOM      9  C   UNL     1      35.100 -18.830 -21.934  0.00  0.00    +0.175 A 
ATOM     10  C   UNL     1      35.016 -18.635 -23.281  0.00  0.00    +0.071 A 
ATOM     11  C   UNL     1      35.371 -17.285 -23.442  0.00  0.00    +0.196 A 
BRANCH  11  13
ATOM     12  O   UNL     1      35.216 -16.977 -25.792  0.00  0.00    -0.243 OA
ATOM     13  C   UNL     1      35.455 -16.531 -24.660  0.00  0.00    +0.359 C 
BRANCH  13  14
ATOM     14  O   UNL     1      35.833 -15.220 -24.506  0.00  0.00    -0.476 OA
ATOM     15  H   UNL     1      36.391 -14.817 -25.141  0.00  0.00    +0.295 HD
ENDBRANCH  13  14
ENDBRANCH  11  13
BRANCH  10  16
ATOM     16  C   UNL     1      34.640 -19.609 -24.320  0.00  0.00    +0.169 C 
BRANCH  16  17
ATOM     17  O   UNL     1      33.548 -19.157 -25.128  0.00  0.00    -0.377 OA
ATOM     18  H   UNL     1      32.786 -18.956 -24.561  0.00  0.00    +0.211 HD
ENDBRANCH  16  17
ENDBRANCH  10  16
ENDBRANCH   1   9
BRANCH   3  19
ATOM     19  C   UNL     1      36.785 -21.998 -18.560  0.00  0.00    -0.001 C 
ATOM     20  C   UNL     1      36.787 -22.028 -17.208  0.00  0.00    +0.021 C 
BRANCH  20  21
ATOM     21  C   UNL     1      37.919 -22.556 -16.387  0.00  0.00    +0.232 C 
BRANCH  21  22
ATOM     22  O   UNL     1      37.644 -23.908 -16.046  0.00  0.00    -0.470 OA
BRANCH  22  23
ATOM     23  C   UNL     1      37.333 -24.165 -14.736  0.00  0.00    +0.148 C 
ATOM     24  C   UNL     1      37.442 -25.451 -14.219  0.00  0.00    +0.143 C 
ATOM     25  C   UNL     1      37.119 -25.689 -12.883  0.00  0.00    +0.143 C 
ATOM     26  C   UNL     1      36.903 -23.114 -13.932  0.00  0.00    +0.037 C 
ATOM     27  C   UNL     1      36.688 -24.640 -12.072  0.00  0.00    +0.037 C 
ATOM     28  C   UNL     1      36.580 -23.352 -12.596  0.00  0.00    +0.006 C 
BRANCH  25  29
ATOM     29  O   UNL     1      37.219 -26.940 -12.350  0.00  0.00    -0.505 OA
ATOM     30  H   UNL     1      36.582 -27.238 -11.731  0.00  0.00    +0.292 HD
ENDBRANCH  25  29
BRANCH  24  32
ATOM     31  O   UNL     1      37.231 -27.032 -15.992  0.00  0.00    -0.245 OA
ATOM     32  C   UNL     1      37.893 -26.549 -15.068  0.00  0.00    +0.347 C 
BRANCH  32  33
ATOM     33  O   UNL     1      39.143 -26.974 -14.711  0.00  0.00    -0.441 OA
ATOM     34  C   UNL     1      40.239 -26.134 -15.086  0.00  0.00    +0.256 C 
ENDBRANCH  32  33
ENDBRANCH  24  32
ENDBRANCH  22  23
ENDBRANCH  21  22
ENDBRANCH  20  21
ENDBRANCH   3  19
TORSDOF 12
ENDMDL
MODEL 3
REMARK VINA RESULT:     -10.6      1.758      3.667
REMARK  Name = 449162
REMARK  12 active torsions:
REMARK  status: ('A' for Active; 'I' for Inactive)
REMARK    1  A    between atoms: C_1  and  C_9
REMARK    2  A    between atoms: C_3  and  C_19
REMARK    3  A    between atoms: C_10  and  C_16
REMARK    4  A    between atoms: C_11  and  C_13
REMARK    5  A    between atoms: C_13  and  O_14
REMARK    6  A    between atoms: C_16  and  O_17
REMARK    7  A    between atoms: C_20  and  C_21
REMARK    8  A    between atoms: C_21  and  O_22
REMARK    9  A    between atoms: O_22  and  C_23
REMARK   10  A    between atoms: C_24  and  C_32
REMARK   11  A    between atoms: C_25  and  O_29
REMARK   12  A    between atoms: C_32  and  O_33
REMARK                            x       y       z     vdW  Elec       q    Type
REMARK                         _______ _______ _______ _____ _____    ______ ____
ROOT
ATOM      1  C   UNL     1      34.692 -20.104 -21.416  0.00  0.00    +0.037 C 
ATOM      2  C   UNL     1      35.827 -20.478 -20.696  0.00  0.00    +0.003 C 
ATOM      3  C   UNL     1      35.704 -21.310 -19.584  0.00  0.00    -0.000 C 
ATOM      4  C   UNL     1      33.435 -20.564 -21.024  0.00  0.00    +0.003 C 
ATOM      5  C   UNL     1      34.447 -21.770 -19.191  0.00  0.00    -0.000 C 
ATOM      6  C   UNL     1      33.313 -21.396 -19.911  0.00  0.00    +0.000 C 
ENDROOT
BRANCH   1   9
ATOM      7  O   UNL     1      34.482 -19.811 -23.750  0.00  0.00    -0.353 OA
ATOM      8  N   UNL     1      34.649 -18.876 -24.763  0.00  0.00    -0.071 NA
ATOM      9  C   UNL     1      34.817 -19.243 -22.566  0.00  0.00    +0.175 A 
ATOM     10  C   UNL     1      35.205 -17.949 -22.759  0.00  0.00    +0.071 A 
ATOM     11  C   UNL     1      35.081 -17.772 -24.148  0.00  0.00    +0.196 A 
BRANCH  11  13
ATOM     12  O   UNL     1      35.023 -16.415 -26.097  0.00  0.00    -0.243 OA
ATOM     13  C   UNL     1      35.357 -16.592 -24.916  0.00  0.00    +0.359 C 
BRANCH  13  14
ATOM     14  O   UNL     1      36.047 -15.612 -24.246  0.00  0.00    -0.476 OA
ATOM     15  H   UNL     1      35.948 -14.715 -24.497  0.00  0.00    +0.295 HD
ENDBRANCH  13  14
ENDBRANCH  11  13
BRANCH  10  16
ATOM     16  C   UNL     1      35.649 -16.972 -21.751  0.00  0.00    +0.169 C 
BRANCH  16  17
ATOM     17  O   UNL     1      34.789 -15.830 -21.675  0.00  0.00    -0.377 OA
ATOM     18  H   UNL     1      33.891 -16.116 -21.445  0.00  0.00    +0.211 HD
ENDBRANCH  16  17
ENDBRANCH  10  16
ENDBRANCH   1   9
BRANCH   3  19
ATOM     19  C   UNL     1      36.888 -21.699 -18.833  0.00  0.00    -0.001 C 
ATOM     20  C   UNL     1      36.968 -21.827 -17.489  0.00  0.00    +0.021 C 
BRANCH  20  21
ATOM     21  C   UNL     1      38.206 -22.246 -16.763  0.00  0.00    +0.232 C 
BRANCH  21  22
ATOM     22  O   UNL     1      37.840 -22.743 -15.483  0.00  0.00    -0.470 OA
BRANCH  22  23
ATOM     23  C   UNL     1      37.949 -24.095 -15.291  0.00  0.00    +0.148 C 
ATOM     24  C   UNL     1      36.821 -24.908 -15.312  0.00  0.00    +0.143 C 
ATOM     25  C   UNL     1      36.956 -26.283 -15.113  0.00  0.00    +0.143 C 
ATOM     26  C   UNL     1      39.210 -24.641 -15.075  0.00  0.00    +0.037 C 
ATOM     27  C   UNL     1      38.217 -26.836 -14.895  0.00  0.00    +0.037 C 
ATOM     28  C   UNL     1      39.344 -26.015 -14.876  0.00  0.00    +0.006 C 
BRANCH  25  29
ATOM     29  O   UNL     1      35.867 -27.104 -15.129  0.00  0.00    -0.505 OA
ATOM     30  H   UNL     1      35.811 -27.820 -14.528  0.00  0.00    +0.292 HD
ENDBRANCH  25  29
BRANCH  24  32
ATOM     31  O   UNL     1      34.865 -24.441 -16.593  0.00  0.00    -0.245 OA
ATOM     32  C   UNL     1      35.501 -24.330 -15.540  0.00  0.00    +0.347 C 
BRANCH  32  33
ATOM     33  O   UNL     1      35.058 -23.651 -14.439  0.00  0.00    -0.441 OA
ATOM     34  C   UNL     1      34.110 -24.326 -13.606  0.00  0.00    +0.256 C 
ENDBRANCH  32  33
ENDBRANCH  24  32
ENDBRANCH  22  23
ENDBRANCH  21  22
ENDBRANCH  20  21
ENDBRANCH   3  19
TORSDOF 12
ENDMDL
MODEL 4
REMARK VINA RESULT:     -10.4      4.434     11.112
REMARK  Name = 449162
REMARK  12 active torsions:
REMARK  status: ('A' for Active; 'I' for Inactive)
REMARK    1  A    between atoms: C_1  and  C_9
REMARK    2  A    between atoms: C_3  and  C_19
REMARK    3  A    between atoms: C_10  and  C_16
REMARK    4  A    between atoms: C_11  and  C_13
REMARK    5  A    between atoms: C_13  and  O_14
REMARK    6  A    between atoms: C_16  and  O_17
REMARK    7  A    between atoms: C_20  and  C_21
REMARK    8  A    between atoms: C_21  and  O_22
REMARK    9  A    between atoms: O_22  and  C_23
REMARK   10  A    between atoms: C_24  and  C_32
REMARK   11  A    between atoms: C_25  and  O_29
REMARK   12  A    between atoms: C_32  and  O_33
REMARK                            x       y       z     vdW  Elec       q    Type
REMARK                         _______ _______ _______ _____ _____    ______ ____
ROOT
ATOM      1  C   UNL     1      35.469 -17.679 -23.032  0.00  0.00    +0.037 C 
ATOM      2  C   UNL     1      35.256 -16.346 -22.682  0.00  0.00    +0.003 C 
ATOM      3  C   UNL     1      34.824 -15.432 -23.642  0.00  0.00    -0.000 C 
ATOM      4  C   UNL     1      35.248 -18.098 -24.345  0.00  0.00    +0.003 C 
ATOM      5  C   UNL     1      34.603 -15.850 -24.954  0.00  0.00    -0.000 C 
ATOM      6  C   UNL     1      34.816 -17.183 -25.305  0.00  0.00    +0.000 C 
ENDROOT
BRANCH   1   9
ATOM      7  O   UNL     1      37.208 -18.488 -21.655  0.00  0.00    -0.353 OA
ATOM      8  N   UNL     1      37.501 -19.458 -20.704  0.00  0.00    -0.071 NA
ATOM      9  C   UNL     1      35.916 -18.626 -22.040  0.00  0.00    +0.175 A 
ATOM     10  C   UNL     1      35.334 -19.663 -21.373  0.00  0.00    +0.071 A 
ATOM     11  C   UNL     1      36.367 -20.147 -20.551  0.00  0.00    +0.196 A 
BRANCH  11  13
ATOM     12  O   UNL     1      35.763 -22.329 -19.832  0.00  0.00    -0.243 OA
ATOM     13  C   UNL     1      36.320 -21.241 -19.624  0.00  0.00    +0.359 C 
BRANCH  13  14
ATOM     14  O   UNL     1      36.955 -21.015 -18.428  0.00  0.00    -0.476 OA
ATOM     15  H   UNL     1      36.591 -20.411 -17.812  0.00  0.00    +0.295 HD
ENDBRANCH  13  14
ENDBRANCH  11  13
BRANCH  10  16
ATOM     16  C   UNL     1      33.951 -20.158 -21.487  0.00  0.00    +0.169 C 
BRANCH  16  17
ATOM     17  O   UNL     1      33.388 -20.513 -20.219  0.00  0.00    -0.377 OA
ATOM     18  H   UNL     1      33.905 -21.234 -19.826  0.00  0.00    +0.211 HD
ENDBRANCH  16  17
ENDBRANCH  10  16
ENDBRANCH   1   9
BRANCH   3  19
ATOM     19  C   UNL     1      34.603 -14.042 -23.275  0.00  0.00    -0.001 C 
ATOM     20  C   UNL     1      33.968 -13.115 -24.027  0.00  0.00    +0.021 C 
BRANCH  20  21
ATOM     21  C   UNL     1      33.751 -11.699 -23.599  0.00  0.00    +0.232 C 
BRANCH  21  22
ATOM     22  O   UNL     1      32.414 -11.561 -23.138  0.00  0.00    -0.470 OA
BRANCH  22  23
ATOM     23  C   UNL     1      32.243 -11.313 -21.801  0.00  0.00    +0.148 C 
ATOM     24  C   UNL     1      32.173 -10.009 -21.324  0.00  0.00    +0.143 C 
ATOM     25  C   UNL     1      31.999  -9.781 -19.958  0.00  0.00    +0.143 C 
ATOM     26  C   UNL     1      32.142 -12.392 -20.928  0.00  0.00    +0.037 C 
ATOM     27  C   UNL     1      31.897 -10.858 -19.078  0.00  0.00    +0.037 C 
ATOM     28  C   UNL     1      31.969 -12.163 -19.563  0.00  0.00    +0.006 C 
BRANCH  25  29
ATOM     29  O   UNL     1      31.926  -8.512 -19.464  0.00  0.00    -0.505 OA
ATOM     30  H   UNL     1      31.709  -7.799 -20.032  0.00  0.00    +0.292 HD
ENDBRANCH  25  29
BRANCH  24  32
ATOM     31  O   UNL     1      31.419  -8.581 -23.078  0.00  0.00    -0.245 OA
ATOM     32  C   UNL     1      32.279  -8.882 -22.244  0.00  0.00    +0.347 C 
BRANCH  32  33
ATOM     33  O   UNL     1      33.452  -8.202 -22.066  0.00  0.00    -0.441 OA
ATOM     34  C   UNL     1      34.158  -7.818 -23.250  0.00  0.00    +0.256 C 
ENDBRANCH  32  33
ENDBRANCH  24  32
ENDBRANCH  22  23
ENDBRANCH  21  22
ENDBRANCH  20  21
ENDBRANCH   3  19
TORSDOF 12
ENDMDL
MODEL 5
REMARK VINA RESULT:     -10.1      2.526     10.702
REMARK  Name = 449162
REMARK  12 active torsions:
REMARK  status: ('A' for Active; 'I' for Inactive)
REMARK    1  A    between atoms: C_1  and  C_9
REMARK    2  A    between atoms: C_3  and  C_19
REMARK    3  A    between atoms: C_10  and  C_16
REMARK    4  A    between atoms: C_11  and  C_13
REMARK    5  A    between atoms: C_13  and  O_14
REMARK    6  A    between atoms: C_16  and  O_17
REMARK    7  A    between atoms: C_20  and  C_21
REMARK    8  A    between atoms: C_21  and  O_22
REMARK    9  A    between atoms: O_22  and  C_23
REMARK   10  A    between atoms: C_24  and  C_32
REMARK   11  A    between atoms: C_25  and  O_29
REMARK   12  A    between atoms: C_32  and  O_33
REMARK                            x       y       z     vdW  Elec       q    Type
REMARK                         _______ _______ _______ _____ _____    ______ ____
ROOT
ATOM      1  C   UNL     1      34.196 -22.184 -18.503  0.00  0.00    +0.037 C 
ATOM      2  C   UNL     1      33.823 -21.435 -19.620  0.00  0.00    +0.003 C 
ATOM      3  C   UNL     1      34.800 -20.880 -20.445  0.00  0.00    -0.000 C 
ATOM      4  C   UNL     1      35.546 -22.377 -18.213  0.00  0.00    +0.003 C 
ATOM      5  C   UNL     1      36.151 -21.072 -20.155  0.00  0.00    -0.000 C 
ATOM      6  C   UNL     1      36.524 -21.820 -19.039  0.00  0.00    +0.000 C 
ENDROOT
BRANCH   1   9
ATOM      7  O   UNL     1      31.907 -22.514 -18.023  0.00  0.00    -0.353 OA
ATOM      8  N   UNL     1      31.047 -23.122 -17.118  0.00  0.00    -0.071 NA
ATOM      9  C   UNL     1      33.186 -22.759 -17.649  0.00  0.00    +0.175 A 
ATOM     10  C   UNL     1      33.208 -23.516 -16.514  0.00  0.00    +0.071 A 
ATOM     11  C   UNL     1      31.847 -23.714 -16.225  0.00  0.00    +0.196 A 
BRANCH  11  13
ATOM     12  O   UNL     1      30.639 -25.507 -15.240  0.00  0.00    -0.243 OA
ATOM     13  C   UNL     1      31.272 -24.447 -15.133  0.00  0.00    +0.359 C 
BRANCH  13  14
ATOM     14  O   UNL     1      31.466 -23.887 -13.894  0.00  0.00    -0.476 OA
ATOM     15  H   UNL     1      31.130 -24.313 -13.131  0.00  0.00    +0.295 HD
ENDBRANCH  13  14
ENDBRANCH  11  13
BRANCH  10  16
ATOM     16  C   UNL     1      34.379 -24.007 -15.769  0.00  0.00    +0.169 C 
BRANCH  16  17
ATOM     17  O   UNL     1      34.588 -23.298 -14.543  0.00  0.00    -0.377 OA
ATOM     18  H   UNL     1      35.216 -22.573 -14.691  0.00  0.00    +0.211 HD
ENDBRANCH  16  17
ENDBRANCH  10  16
ENDBRANCH   1   9
BRANCH   3  19
ATOM     19  C   UNL     1      34.410 -20.099 -21.609  0.00  0.00    -0.001 C 
ATOM     20  C   UNL     1      35.227 -19.716 -22.617  0.00  0.00    +0.021 C 
BRANCH  20  21
ATOM     21  C   UNL     1      34.776 -18.926 -23.803  0.00  0.00    +0.232 C 
BRANCH  21  22
ATOM     22  O   UNL     1      35.609 -17.782 -23.934  0.00  0.00    -0.470 OA
BRANCH  22  23
ATOM     23  C   UNL     1      35.210 -16.648 -23.278  0.00  0.00    +0.148 C 
ATOM     24  C   UNL     1      34.678 -15.572 -23.980  0.00  0.00    +0.143 C 
ATOM     25  C   UNL     1      34.278 -14.426 -23.291  0.00  0.00    +0.143 C 
ATOM     26  C   UNL     1      35.346 -16.592 -21.894  0.00  0.00    +0.037 C 
ATOM     27  C   UNL     1      34.412 -14.364 -21.904  0.00  0.00    +0.037 C 
ATOM     28  C   UNL     1      34.947 -15.446 -21.206  0.00  0.00    +0.006 C 
BRANCH  25  29
ATOM     29  O   UNL     1      33.752 -13.357 -23.954  0.00  0.00    -0.505 OA
ATOM     30  H   UNL     1      32.824 -13.283 -24.062  0.00  0.00    +0.292 HD
ENDBRANCH  25  29
BRANCH  24  32
ATOM     31  O   UNL     1      35.367 -16.148 -26.188  0.00  0.00    -0.245 OA
ATOM     32  C   UNL     1      34.537 -15.637 -25.430  0.00  0.00    +0.347 C 
BRANCH  32  33
ATOM     33  O   UNL     1      33.368 -15.061 -25.844  0.00  0.00    -0.441 OA
ATOM     34  C   UNL     1      33.429 -14.259 -27.027  0.00  0.00    +0.256 C 
ENDBRANCH  32  33
ENDBRANCH  24  32
ENDBRANCH  22  23
ENDBRANCH  21  22
ENDBRANCH  20  21
ENDBRANCH   3  19
TORSDOF 12
ENDMDL
MODEL 6
REMARK VINA RESULT:     -10.1      3.063     10.688
REMARK  Name = 449162
REMARK  12 active torsions:
REMARK  status: ('A' for Active; 'I' for Inactive)
REMARK    1  A    between atoms: C_1  and  C_9
REMARK    2  A    between atoms: C_3  and  C_19
REMARK    3  A    between atoms: C_10  and  C_16
REMARK    4  A    between atoms: C_11  and  C_13
REMARK    5  A    between atoms: C_13  and  O_14
REMARK    6  A    between atoms: C_16  and  O_17
REMARK    7  A    between atoms: C_20  and  C_21
REMARK    8  A    between atoms: C_21  and  O_22
REMARK    9  A    between atoms: O_22  and  C_23
REMARK   10  A    between atoms: C_24  and  C_32
REMARK   11  A    between atoms: C_25  and  O_29
REMARK   12  A    between atoms: C_32  and  O_33
REMARK                            x       y       z     vdW  Elec       q    Type
REMARK                         _______ _______ _______ _____ _____    ______ ____
ROOT
ATOM      1  C   UNL     1      34.862 -23.459 -16.377  0.00  0.00    +0.037 C 
ATOM      2  C   UNL     1      34.776 -22.978 -17.683  0.00  0.00    +0.003 C 
ATOM      3  C   UNL     1      33.534 -22.650 -18.225  0.00  0.00    -0.000 C 
ATOM      4  C   UNL     1      33.705 -23.611 -15.612  0.00  0.00    +0.003 C 
ATOM      5  C   UNL     1      32.377 -22.802 -17.461  0.00  0.00    -0.000 C 
ATOM      6  C   UNL     1      32.463 -23.283 -16.155  0.00  0.00    +0.000 C 
ENDROOT
BRANCH   1   9
ATOM      7  O   UNL     1      36.974 -22.749 -15.594  0.00  0.00    -0.353 OA
ATOM      8  N   UNL     1      38.165 -23.219 -15.056  0.00  0.00    -0.071 NA
ATOM      9  C   UNL     1      36.146 -23.799 -15.814  0.00  0.00    +0.175 A 
ATOM     10  C   UNL     1      36.751 -24.962 -15.438  0.00  0.00    +0.071 A 
ATOM     11  C   UNL     1      38.009 -24.544 -14.971  0.00  0.00    +0.196 A 
BRANCH  11  13
ATOM     12  O   UNL     1      39.513 -25.288 -13.290  0.00  0.00    -0.243 OA
ATOM     13  C   UNL     1      39.071 -25.353 -14.447  0.00  0.00    +0.359 C 
BRANCH  13  14
ATOM     14  O   UNL     1      39.607 -26.253 -15.334  0.00  0.00    -0.476 OA
ATOM     15  H   UNL     1      40.514 -26.480 -15.281  0.00  0.00    +0.295 HD
ENDBRANCH  13  14
ENDBRANCH  11  13
BRANCH  10  16
ATOM     16  C   UNL     1      36.213 -26.332 -15.506  0.00  0.00    +0.169 C 
BRANCH  16  17
ATOM     17  O   UNL     1      36.926 -27.157 -16.434  0.00  0.00    -0.377 OA
ATOM     18  H   UNL     1      36.298 -27.718 -16.917  0.00  0.00    +0.211 HD
ENDBRANCH  16  17
ENDBRANCH  10  16
ENDBRANCH   1   9
BRANCH   3  19
ATOM     19  C   UNL     1      33.446 -22.148 -19.588  0.00  0.00    -0.001 C 
ATOM     20  C   UNL     1      33.325 -20.851 -19.949  0.00  0.00    +0.021 C 
BRANCH  20  21
ATOM     21  C   UNL     1      33.253 -20.382 -21.367  0.00  0.00    +0.232 C 
BRANCH  21  22
ATOM     22  O   UNL     1      34.566 -20.071 -21.813  0.00  0.00    -0.470 OA
BRANCH  22  23
ATOM     23  C   UNL     1      34.670 -19.248 -22.903  0.00  0.00    +0.148 C 
ATOM     24  C   UNL     1      35.241 -17.985 -22.788  0.00  0.00    +0.143 C 
ATOM     25  C   UNL     1      35.336 -17.164 -23.912  0.00  0.00    +0.143 C 
ATOM     26  C   UNL     1      34.192 -19.698 -24.130  0.00  0.00    +0.037 C 
ATOM     27  C   UNL     1      34.859 -17.610 -25.144  0.00  0.00    +0.037 C 
ATOM     28  C   UNL     1      34.287 -18.877 -25.253  0.00  0.00    +0.006 C 
BRANCH  25  29
ATOM     29  O   UNL     1      35.893 -15.922 -23.827  0.00  0.00    -0.505 OA
ATOM     30  H   UNL     1      36.824 -15.828 -23.775  0.00  0.00    +0.292 HD
ENDBRANCH  25  29
BRANCH  24  32
ATOM     31  O   UNL     1      35.358 -16.488 -20.936  0.00  0.00    -0.245 OA
ATOM     32  C   UNL     1      35.740 -17.519 -21.499  0.00  0.00    +0.347 C 
BRANCH  32  33
ATOM     33  O   UNL     1      36.684 -18.369 -20.993  0.00  0.00    -0.441 OA
ATOM     34  C   UNL     1      37.804 -18.661 -21.835  0.00  0.00    +0.256 C 
ENDBRANCH  32  33
ENDBRANCH  24  32
ENDBRANCH  22  23
ENDBRANCH  21  22
ENDBRANCH  20  21
ENDBRANCH   3  19
TORSDOF 12
ENDMDL
MODEL 7
REMARK VINA RESULT:     -10.0      4.256     11.033
REMARK  Name = 449162
REMARK  12 active torsions:
REMARK  status: ('A' for Active; 'I' for Inactive)
REMARK    1  A    between atoms: C_1  and  C_9
REMARK    2  A    between atoms: C_3  and  C_19
REMARK    3  A    between atoms: C_10  and  C_16
REMARK    4  A    between atoms: C_11  and  C_13
REMARK    5  A    between atoms: C_13  and  O_14
REMARK    6  A    between atoms: C_16  and  O_17
REMARK    7  A    between atoms: C_20  and  C_21
REMARK    8  A    between atoms: C_21  and  O_22
REMARK    9  A    between atoms: O_22  and  C_23
REMARK   10  A    between atoms: C_24  and  C_32
REMARK   11  A    between atoms: C_25  and  O_29
REMARK   12  A    between atoms: C_32  and  O_33
REMARK                            x       y       z     vdW  Elec       q    Type
REMARK                         _______ _______ _______ _____ _____    ______ ____
ROOT
ATOM      1  C   UNL     1      35.373 -17.819 -23.237  0.00  0.00    +0.037 C 
ATOM      2  C   UNL     1      35.351 -16.440 -23.027  0.00  0.00    +0.003 C 
ATOM      3  C   UNL     1      34.880 -15.589 -24.026  0.00  0.00    -0.000 C 
ATOM      4  C   UNL     1      34.923 -18.346 -24.448  0.00  0.00    +0.003 C 
ATOM      5  C   UNL     1      34.431 -16.115 -25.237  0.00  0.00    -0.000 C 
ATOM      6  C   UNL     1      34.452 -17.494 -25.448  0.00  0.00    +0.000 C 
ENDROOT
BRANCH   1   9
ATOM      7  O   UNL     1      37.160 -18.530 -21.868  0.00  0.00    -0.353 OA
ATOM      8  N   UNL     1      37.492 -19.438 -20.871  0.00  0.00    -0.071 NA
ATOM      9  C   UNL     1      35.859 -18.701 -22.205  0.00  0.00    +0.175 A 
ATOM     10  C   UNL     1      35.307 -19.701 -21.459  0.00  0.00    +0.071 A 
ATOM     11  C   UNL     1      36.369 -20.127 -20.643  0.00  0.00    +0.196 A 
BRANCH  11  13
ATOM     12  O   UNL     1      35.820 -22.272 -19.783  0.00  0.00    -0.243 OA
ATOM     13  C   UNL     1      36.361 -21.164 -19.652  0.00  0.00    +0.359 C 
BRANCH  13  14
ATOM     14  O   UNL     1      37.017 -20.857 -18.485  0.00  0.00    -0.476 OA
ATOM     15  H   UNL     1      36.528 -20.646 -17.715  0.00  0.00    +0.295 HD
ENDBRANCH  13  14
ENDBRANCH  11  13
BRANCH  10  16
ATOM     16  C   UNL     1      33.927 -20.213 -21.502  0.00  0.00    +0.169 C 
BRANCH  16  17
ATOM     17  O   UNL     1      33.421 -20.538 -20.202  0.00  0.00    -0.377 OA
ATOM     18  H   UNL     1      32.473 -20.734 -20.263  0.00  0.00    +0.211 HD
ENDBRANCH  16  17
ENDBRANCH  10  16
ENDBRANCH   1   9
BRANCH   3  19
ATOM     19  C   UNL     1      34.858 -14.151 -23.804  0.00  0.00    -0.001 C 
ATOM     20  C   UNL     1      34.025 -13.270 -24.402  0.00  0.00    +0.021 C 
BRANCH  20  21
ATOM     21  C   UNL     1      34.030 -11.800 -24.130  0.00  0.00    +0.232 C 
BRANCH  21  22
ATOM     22  O   UNL     1      32.858 -11.466 -23.398  0.00  0.00    -0.470 OA
BRANCH  22  23
ATOM     23  C   UNL     1      32.873 -10.278 -22.715  0.00  0.00    +0.148 C 
ATOM     24  C   UNL     1      32.299 -10.178 -21.452  0.00  0.00    +0.143 C 
ATOM     25  C   UNL     1      32.325  -8.958 -20.775  0.00  0.00    +0.143 C 
ATOM     26  C   UNL     1      33.472  -9.172 -23.309  0.00  0.00    +0.037 C 
ATOM     27  C   UNL     1      32.925  -7.846 -21.366  0.00  0.00    +0.037 C 
ATOM     28  C   UNL     1      33.497  -7.953 -22.633  0.00  0.00    +0.006 C 
BRANCH  25  29
ATOM     29  O   UNL     1      31.772  -8.833 -19.536  0.00  0.00    -0.505 OA
ATOM     30  H   UNL     1      32.213  -8.338 -18.873  0.00  0.00    +0.292 HD
ENDBRANCH  25  29
BRANCH  24  32
ATOM     31  O   UNL     1      30.452 -11.519 -20.762  0.00  0.00    -0.245 OA
ATOM     32  C   UNL     1      31.673 -11.342 -20.835  0.00  0.00    +0.347 C 
BRANCH  32  33
ATOM     33  O   UNL     1      32.608 -12.212 -20.348  0.00  0.00    -0.441 OA
ATOM     34  C   UNL     1      32.499 -13.575 -20.770  0.00  0.00    +0.256 C 
ENDBRANCH  32  33
ENDBRANCH  24  32
ENDBRANCH  22  23
ENDBRANCH  21  22
ENDBRANCH  20  21
ENDBRANCH   3  19
TORSDOF 12
ENDMDL
MODEL 8
REMARK VINA RESULT:     -10.0      4.043     10.916
REMARK  Name = 449162
REMARK  12 active torsions:
REMARK  status: ('A' for Active; 'I' for Inactive)
REMARK    1  A    between atoms: C_1  and  C_9
REMARK    2  A    between atoms: C_3  and  C_19
REMARK    3  A    between atoms: C_10  and  C_16
REMARK    4  A    between atoms: C_11  and  C_13
REMARK    5  A    between atoms: C_13  and  O_14
REMARK    6  A    between atoms: C_16  and  O_17
REMARK    7  A    between atoms: C_20  and  C_21
REMARK    8  A    between atoms: C_21  and  O_22
REMARK    9  A    between atoms: O_22  and  C_23
REMARK   10  A    between atoms: C_24  and  C_32
REMARK   11  A    between atoms: C_25  and  O_29
REMARK   12  A    between atoms: C_32  and  O_33
REMARK                            x       y       z     vdW  Elec       q    Type
REMARK                         _______ _______ _______ _____ _____    ______ ____
ROOT
ATOM      1  C   UNL     1      33.538 -23.916 -14.943  0.00  0.00    +0.037 C 
ATOM      2  C   UNL     1      33.992 -23.520 -16.202  0.00  0.00    +0.003 C 
ATOM      3  C   UNL     1      33.078 -23.160 -17.191  0.00  0.00    -0.000 C 
ATOM      4  C   UNL     1      32.170 -23.952 -14.675  0.00  0.00    +0.003 C 
ATOM      5  C   UNL     1      31.709 -23.196 -16.924  0.00  0.00    -0.000 C 
ATOM      6  C   UNL     1      31.256 -23.592 -15.666  0.00  0.00    +0.000 C 
ENDROOT
BRANCH   1   9
ATOM      7  O   UNL     1      34.127 -23.946 -12.657  0.00  0.00    -0.353 OA
ATOM      8  N   UNL     1      35.120 -24.362 -11.779  0.00  0.00    -0.071 NA
ATOM      9  C   UNL     1      34.482 -24.289 -13.919  0.00  0.00    +0.175 A 
ATOM     10  C   UNL     1      35.689 -24.925 -13.911  0.00  0.00    +0.071 A 
ATOM     11  C   UNL     1      36.043 -24.944 -12.551  0.00  0.00    +0.196 A 
BRANCH  11  13
ATOM     12  O   UNL     1      37.510 -26.702 -11.917  0.00  0.00    -0.243 OA
ATOM     13  C   UNL     1      37.224 -25.496 -11.953  0.00  0.00    +0.359 C 
BRANCH  13  14
ATOM     14  O   UNL     1      38.072 -24.575 -11.389  0.00  0.00    -0.476 OA
ATOM     15  H   UNL     1      37.783 -23.694 -11.252  0.00  0.00    +0.295 HD
ENDBRANCH  13  14
ENDBRANCH  11  13
BRANCH  10  16
ATOM     16  C   UNL     1      36.442 -25.463 -15.057  0.00  0.00    +0.169 C 
BRANCH  16  17
ATOM     17  O   UNL     1      36.130 -26.835 -15.325  0.00  0.00    -0.377 OA
ATOM     18  H   UNL     1      35.279 -26.889 -15.790  0.00  0.00    +0.211 HD
ENDBRANCH  16  17
ENDBRANCH  10  16
ENDBRANCH   1   9
BRANCH   3  19
ATOM     19  C   UNL     1      33.552 -22.747 -18.503  0.00  0.00    -0.001 C 
ATOM     20  C   UNL     1      33.111 -21.679 -19.206  0.00  0.00    +0.021 C 
BRANCH  20  21
ATOM     21  C   UNL     1      33.642 -21.285 -20.546  0.00  0.00    +0.232 C 
BRANCH  21  22
ATOM     22  O   UNL     1      34.431 -20.112 -20.400  0.00  0.00    -0.470 OA
BRANCH  22  23
ATOM     23  C   UNL     1      35.049 -19.638 -21.526  0.00  0.00    +0.148 C 
ATOM     24  C   UNL     1      36.414 -19.370 -21.527  0.00  0.00    +0.143 C 
ATOM     25  C   UNL     1      37.023 -18.887 -22.686  0.00  0.00    +0.143 C 
ATOM     26  C   UNL     1      34.287 -19.429 -22.671  0.00  0.00    +0.037 C 
ATOM     27  C   UNL     1      36.264 -18.675 -23.837  0.00  0.00    +0.037 C 
ATOM     28  C   UNL     1      34.896 -18.946 -23.829  0.00  0.00    +0.006 C 
BRANCH  25  29
ATOM     29  O   UNL     1      38.359 -18.617 -22.715  0.00  0.00    -0.505 OA
ATOM     30  H   UNL     1      38.788 -18.459 -23.533  0.00  0.00    +0.292 HD
ENDBRANCH  25  29
BRANCH  24  32
ATOM     31  O   UNL     1      37.948 -18.745 -19.812  0.00  0.00    -0.245 OA
ATOM     32  C   UNL     1      37.208 -19.592 -20.324  0.00  0.00    +0.347 C 
BRANCH  32  33
ATOM     33  O   UNL     1      37.028 -20.855 -19.834  0.00  0.00    -0.441 OA
ATOM     34  C   UNL     1      37.191 -21.027 -18.422  0.00  0.00    +0.256 C 
ENDBRANCH  32  33
ENDBRANCH  24  32
ENDBRANCH  22  23
ENDBRANCH  21  22
ENDBRANCH  20  21
ENDBRANCH   3  19
TORSDOF 12
ENDMDL
MODEL 9
REMARK VINA RESULT:     -10.0      3.192     11.295
REMARK  Name = 449162
REMARK  12 active torsions:
REMARK  status: ('A' for Active; 'I' for Inactive)
REMARK    1  A    between atoms: C_1  and  C_9
REMARK    2  A    between atoms: C_3  and  C_19
REMARK    3  A    between atoms: C_10  and  C_16
REMARK    4  A    between atoms: C_11  and  C_13
REMARK    5  A    between atoms: C_13  and  O_14
REMARK    6  A    between atoms: C_16  and  O_17
REMARK    7  A    between atoms: C_20  and  C_21
REMARK    8  A    between atoms: C_21  and  O_22
REMARK    9  A    between atoms: O_22  and  C_23
REMARK   10  A    between atoms: C_24  and  C_32
REMARK   11  A    between atoms: C_25  and  O_29
REMARK   12  A    between atoms: C_32  and  O_33
REMARK                            x       y       z     vdW  Elec       q    Type
REMARK                         _______ _______ _______ _____ _____    ______ ____
ROOT
ATOM      1  C   UNL     1      36.008 -23.046 -16.745  0.00  0.00    +0.037 C 
ATOM      2  C   UNL     1      36.702 -22.307 -17.702  0.00  0.00    +0.003 C 
ATOM      3  C   UNL     1      36.044 -21.851 -18.844  0.00  0.00    -0.000 C 
ATOM      4  C   UNL     1      34.654 -23.328 -16.929  0.00  0.00    +0.003 C 
ATOM      5  C   UNL     1      34.691 -22.133 -19.029  0.00  0.00    -0.000 C 
ATOM      6  C   UNL     1      33.996 -22.872 -18.072  0.00  0.00    +0.000 C 
ENDROOT
BRANCH   1   9
ATOM      7  O   UNL     1      37.286 -22.556 -14.820  0.00  0.00    -0.353 OA
ATOM      8  N   UNL     1      37.897 -23.149 -13.722  0.00  0.00    -0.071 NA
ATOM      9  C   UNL     1      36.687 -23.518 -15.563  0.00  0.00    +0.175 A 
ATOM     10  C   UNL     1      36.880 -24.742 -14.992  0.00  0.00    +0.071 A 
ATOM     11  C   UNL     1      37.641 -24.454 -13.846  0.00  0.00    +0.196 A 
BRANCH  11  13
ATOM     12  O   UNL     1      37.818 -25.371 -11.662  0.00  0.00    -0.243 OA
ATOM     13  C   UNL     1      38.136 -25.372 -12.860  0.00  0.00    +0.359 C 
BRANCH  13  14
ATOM     14  O   UNL     1      39.027 -26.304 -13.331  0.00  0.00    -0.476 OA
ATOM     15  H   UNL     1      39.207 -27.075 -12.831  0.00  0.00    +0.295 HD
ENDBRANCH  13  14
ENDBRANCH  11  13
BRANCH  10  16
ATOM     16  C   UNL     1      36.404 -26.053 -15.466  0.00  0.00    +0.169 C 
BRANCH  16  17
ATOM     17  O   UNL     1      37.451 -26.843 -16.041  0.00  0.00    -0.377 OA
ATOM     18  H   UNL     1      37.561 -27.658 -15.526  0.00  0.00    +0.211 HD
ENDBRANCH  16  17
ENDBRANCH  10  16
ENDBRANCH   1   9
BRANCH   3  19
ATOM     19  C   UNL     1      36.770 -21.080 -19.842  0.00  0.00    -0.001 C 
ATOM     20  C   UNL     1      36.325 -19.962 -20.458  0.00  0.00    +0.021 C 
BRANCH  20  21
ATOM     21  C   UNL     1      37.115 -19.195 -21.468  0.00  0.00    +0.232 C 
BRANCH  21  22
ATOM     22  O   UNL     1      36.341 -18.088 -21.911  0.00  0.00    -0.470 OA
BRANCH  22  23
ATOM     23  C   UNL     1      35.655 -18.245 -23.087  0.00  0.00    +0.148 C 
ATOM     24  C   UNL     1      35.104 -17.146 -23.738  0.00  0.00    +0.143 C 
ATOM     25  C   UNL     1      34.410 -17.329 -24.935  0.00  0.00    +0.143 C 
ATOM     26  C   UNL     1      35.519 -19.523 -23.618  0.00  0.00    +0.037 C 
ATOM     27  C   UNL     1      34.270 -18.608 -25.472  0.00  0.00    +0.037 C 
ATOM     28  C   UNL     1      34.824 -19.705 -24.813  0.00  0.00    +0.006 C 
BRANCH  25  29
ATOM     29  O   UNL     1      33.861 -16.270 -25.595  0.00  0.00    -0.505 OA
ATOM     30  H   UNL     1      33.967 -16.190 -26.523  0.00  0.00    +0.292 HD
ENDBRANCH  25  29
BRANCH  24  32
ATOM     31  O   UNL     1      35.613 -14.819 -23.821  0.00  0.00    -0.245 OA
ATOM     32  C   UNL     1      35.251 -15.808 -23.177  0.00  0.00    +0.347 C 
BRANCH  32  33
ATOM     33  O   UNL     1      34.934 -15.788 -21.847  0.00  0.00    -0.441 OA
ATOM     34  C   UNL     1      34.578 -14.519 -21.290  0.00  0.00    +0.256 C 
ENDBRANCH  32  33
ENDBRANCH  24  32
ENDBRANCH  22  23
ENDBRANCH  21  22
ENDBRANCH  20  21
ENDBRANCH   3  19
TORSDOF 12
ENDMDL
