MODEL 1
REMARK VINA RESULT:     -11.7      0.000      0.000
REMARK  Name = 52920501
REMARK  9 active torsions:
REMARK  status: ('A' for Active; 'I' for Inactive)
REMARK    1  A    between atoms: N_1  and  C_12
REMARK    2  A    between atoms: C_5  and  O_27
REMARK    3  A    between atoms: C_9  and  C_15
REMARK    4  A    between atoms: C_15  and  S_16
REMARK    5  A    between atoms: S_16  and  N_19
REMARK    6  A    between atoms: N_19  and  C_21
REMARK    7  A    between atoms: C_21  and  C_22
REMARK    8  A    between atoms: C_22  and  N_23
REMARK    9  A    between atoms: O_27  and  C_35
REMARK                            x       y       z     vdW  Elec       q    Type
REMARK                         _______ _______ _______ _____ _____    ______ ____
ROOT
ATOM      1  N   UNL     1      32.975 -22.382 -18.833  0.00  0.00    -0.247 N 
ATOM      2  N   UNL     1      33.676 -22.864 -16.646  0.00  0.00    -0.300 NA
ATOM      3  N   UNL     1      31.427 -23.356 -17.362  0.00  0.00    -0.170 NA
ATOM      4  C   UNL     1      32.678 -22.893 -17.550  0.00  0.00    +0.152 C 
ATOM      5  C   UNL     1      33.357 -23.359 -15.432  0.00  0.00    +0.295 C 
ATOM      6  C   UNL     1      32.114 -23.863 -15.111  0.00  0.00    +0.094 C 
ATOM      7  C   UNL     1      31.179 -23.836 -16.125  0.00  0.00    +0.118 C 
ATOM      8  H   UNL     1      32.217 -22.423 -19.461  0.00  0.00    +0.165 HD
ENDROOT
BRANCH   1  12
ATOM      9  C   UNL     1      35.216 -20.469 -21.074  0.00  0.00    +0.004 C 
ATOM     10  C   UNL     1      34.059 -21.018 -20.523  0.00  0.00    +0.013 C 
ATOM     11  C   UNL     1      36.457 -20.729 -20.492  0.00  0.00    -0.002 C 
ATOM     12  C   UNL     1      34.142 -21.827 -19.390  0.00  0.00    +0.057 C 
ATOM     13  C   UNL     1      36.541 -21.538 -19.358  0.00  0.00    +0.001 C 
ATOM     14  C   UNL     1      35.383 -22.087 -18.808  0.00  0.00    +0.015 C 
BRANCH   9  15
ATOM     15  C   UNL     1      35.127 -19.603 -22.285  0.00  0.00    +0.195 C 
BRANCH  15  16
ATOM     16  S   UNL     1      36.238 -18.250 -22.067  0.00  0.00    +0.045 S 
ATOM     17  O   UNL     1      35.705 -17.378 -21.033  0.00  0.00    -0.157 OA
ATOM     18  O   UNL     1      37.583 -18.790 -21.948  0.00  0.00    -0.157 OA
BRANCH  16  19
ATOM     19  N   UNL     1      36.110 -17.474 -23.586  0.00  0.00    -0.185 NA
ATOM     20  H   UNL     1      35.736 -18.160 -24.242  0.00  0.00    +0.148 HD
BRANCH  19  21
ATOM     21  C   UNL     1      35.273 -16.266 -23.703  0.00  0.00    +0.068 C 
BRANCH  21  22
ATOM     22  C   UNL     1      34.737 -16.161 -25.123  0.00  0.00    -0.058 C 
BRANCH  22  23
ATOM     23  N   UNL     1      33.747 -15.095 -25.213  0.00  0.00    +0.385 N 
ATOM     24  C   UNL     1      34.097 -13.990 -24.319  0.00  0.00    -0.101 C 
ATOM     25  C   UNL     1      33.628 -14.615 -26.591  0.00  0.00    -0.101 C 
ATOM     26  H   UNL     1      32.845 -15.474 -24.922  0.00  0.00    -0.080 HD
ENDBRANCH  22  23
ENDBRANCH  21  22
ENDBRANCH  19  21
ENDBRANCH  16  19
ENDBRANCH  15  16
ENDBRANCH   9  15
ENDBRANCH   1  12
BRANCH   5  27
ATOM     27  O   UNL     1      34.351 -23.352 -14.468  0.00  0.00    -0.427 OA
BRANCH  27  35
ATOM     28  N   UNL     1      38.693 -26.657 -14.994  0.00  0.00    -0.316 N 
ATOM     29  C   UNL     1      37.720 -24.785 -14.269  0.00  0.00    +0.017 C 
ATOM     30  C   UNL     1      37.499 -25.973 -14.969  0.00  0.00    +0.048 C 
ATOM     31  C   UNL     1      39.659 -25.946 -14.335  0.00  0.00    +0.026 C 
ATOM     32  C   UNL     1      39.087 -24.782 -13.875  0.00  0.00    +0.012 C 
ATOM     33  C   UNL     1      36.647 -23.889 -14.097  0.00  0.00    +0.039 C 
ATOM     34  C   UNL     1      36.253 -26.311 -15.508  0.00  0.00    +0.018 C 
ATOM     35  C   UNL     1      35.394 -24.214 -14.630  0.00  0.00    +0.148 C 
ATOM     36  C   UNL     1      35.203 -25.406 -15.325  0.00  0.00    +0.039 C 
ATOM     37  C   UNL     1      41.037 -26.455 -14.213  0.00  0.00    +0.047 C 
ATOM     38  H   UNL     1      38.832 -27.533 -15.423  0.00  0.00    +0.152 HD
ENDBRANCH  27  35
ENDBRANCH   5  27
TORSDOF 9
ENDMDL
MODEL 2
REMARK VINA RESULT:     -11.4      3.599     12.289
REMARK  Name = 52920501
REMARK  9 active torsions:
REMARK  status: ('A' for Active; 'I' for Inactive)
REMARK    1  A    between atoms: N_1  and  C_12
REMARK    2  A    between atoms: C_5  and  O_27
REMARK    3  A    between atoms: C_9  and  C_15
REMARK    4  A    between atoms: C_15  and  S_16
REMARK    5  A    between atoms: S_16  and  N_19
REMARK    6  A    between atoms: N_19  and  C_21
REMARK    7  A    between atoms: C_21  and  C_22
REMARK    8  A    between atoms: C_22  and  N_23
REMARK    9  A    between atoms: O_27  and  C_35
REMARK                            x       y       z     vdW  Elec       q    Type
REMARK                         _______ _______ _______ _____ _____    ______ ____
ROOT
ATOM      1  N   UNL     1      34.718 -19.007 -23.927  0.00  0.00    -0.247 N 
ATOM      2  N   UNL     1      34.981 -16.700 -23.587  0.00  0.00    -0.300 NA
ATOM      3  N   UNL     1      34.204 -17.558 -25.701  0.00  0.00    -0.170 NA
ATOM      4  C   UNL     1      34.630 -17.690 -24.429  0.00  0.00    +0.152 C 
ATOM      5  C   UNL     1      34.886 -15.456 -24.100  0.00  0.00    +0.295 C 
ATOM      6  C   UNL     1      34.464 -15.186 -25.385  0.00  0.00    +0.094 C 
ATOM      7  C   UNL     1      34.133 -16.287 -26.148  0.00  0.00    +0.118 C 
ATOM      8  H   UNL     1      34.451 -19.698 -24.577  0.00  0.00    +0.165 HD
ENDROOT
BRANCH   1  12
ATOM      9  C   UNL     1      34.557 -20.631 -20.604  0.00  0.00    +0.004 C 
ATOM     10  C   UNL     1      34.167 -20.118 -21.841  0.00  0.00    +0.013 C 
ATOM     11  C   UNL     1      35.891 -20.551 -20.206  0.00  0.00    -0.002 C 
ATOM     12  C   UNL     1      35.110 -19.525 -22.679  0.00  0.00    +0.057 C 
ATOM     13  C   UNL     1      36.836 -19.959 -21.044  0.00  0.00    +0.001 C 
ATOM     14  C   UNL     1      36.445 -19.445 -22.281  0.00  0.00    +0.015 C 
BRANCH   9  15
ATOM     15  C   UNL     1      33.547 -21.265 -19.708  0.00  0.00    +0.195 C 
BRANCH  15  16
ATOM     16  S   UNL     1      34.236 -22.770 -19.095  0.00  0.00    +0.045 S 
ATOM     17  O   UNL     1      34.285 -23.732 -20.184  0.00  0.00    -0.157 OA
ATOM     18  O   UNL     1      35.444 -22.440 -18.356  0.00  0.00    -0.157 OA
BRANCH  16  19
ATOM     19  N   UNL     1      33.037 -23.243 -17.970  0.00  0.00    -0.185 NA
ATOM     20  H   UNL     1      32.567 -24.060 -18.361  0.00  0.00    +0.148 HD
BRANCH  19  21
ATOM     21  C   UNL     1      33.445 -23.596 -16.598  0.00  0.00    +0.068 C 
BRANCH  21  22
ATOM     22  C   UNL     1      32.332 -23.219 -15.631  0.00  0.00    -0.058 C 
BRANCH  22  23
ATOM     23  N   UNL     1      31.216 -24.147 -15.759  0.00  0.00    +0.385 N 
ATOM     24  C   UNL     1      31.193 -25.084 -14.633  0.00  0.00    -0.101 C 
ATOM     25  C   UNL     1      29.947 -23.421 -15.840  0.00  0.00    -0.101 C 
ATOM     26  H   UNL     1      31.341 -24.679 -16.620  0.00  0.00    -0.080 HD
ENDBRANCH  22  23
ENDBRANCH  21  22
ENDBRANCH  19  21
ENDBRANCH  16  19
ENDBRANCH  15  16
ENDBRANCH   9  15
ENDBRANCH   1  12
BRANCH   5  27
ATOM     27  O   UNL     1      35.236 -14.404 -23.271  0.00  0.00    -0.427 OA
BRANCH  27  35
ATOM     28  N   UNL     1      31.542 -10.449 -22.392  0.00  0.00    -0.316 N 
ATOM     29  C   UNL     1      33.398 -11.232 -23.352  0.00  0.00    +0.017 C 
ATOM     30  C   UNL     1      32.354 -11.556 -22.483  0.00  0.00    +0.048 C 
ATOM     31  C   UNL     1      32.035  -9.437 -23.171  0.00  0.00    +0.026 C 
ATOM     32  C   UNL     1      33.184  -9.891 -23.778  0.00  0.00    +0.012 C 
ATOM     33  C   UNL     1      34.383 -12.202 -23.622  0.00  0.00    +0.039 C 
ATOM     34  C   UNL     1      32.246 -12.809 -21.868  0.00  0.00    +0.018 C 
ATOM     35  C   UNL     1      34.287 -13.459 -23.014  0.00  0.00    +0.148 C 
ATOM     36  C   UNL     1      33.235 -13.756 -22.151  0.00  0.00    +0.039 C 
ATOM     37  C   UNL     1      31.353  -8.133 -23.255  0.00  0.00    +0.047 C 
ATOM     38  H   UNL     1      30.725 -10.392 -21.846  0.00  0.00    +0.152 HD
ENDBRANCH  27  35
ENDBRANCH   5  27
TORSDOF 9
ENDMDL
MODEL 3
REMARK VINA RESULT:     -11.4      2.886     11.134
REMARK  Name = 52920501
REMARK  9 active torsions:
REMARK  status: ('A' for Active; 'I' for Inactive)
REMARK    1  A    between atoms: N_1  and  C_12
REMARK    2  A    between atoms: C_5  and  O_27
REMARK    3  A    between atoms: C_9  and  C_15
REMARK    4  A    between atoms: C_15  and  S_16
REMARK    5  A    between atoms: S_16  and  N_19
REMARK    6  A    between atoms: N_19  and  C_21
REMARK    7  A    between atoms: C_21  and  C_22
REMARK    8  A    between atoms: C_22  and  N_23
REMARK    9  A    between atoms: O_27  and  C_35
REMARK                            x       y       z     vdW  Elec       q    Type
REMARK                         _______ _______ _______ _____ _____    ______ ____
ROOT
ATOM      1  N   UNL     1      34.476 -22.419 -18.477  0.00  0.00    -0.247 N 
ATOM      2  N   UNL     1      35.270 -20.739 -19.910  0.00  0.00    -0.300 NA
ATOM      3  N   UNL     1      33.040 -21.621 -20.152  0.00  0.00    -0.170 NA
ATOM      4  C   UNL     1      34.251 -21.550 -19.566  0.00  0.00    +0.152 C 
ATOM      5  C   UNL     1      35.020 -19.923 -20.955  0.00  0.00    +0.295 C 
ATOM      6  C   UNL     1      33.823 -19.898 -21.640  0.00  0.00    +0.094 C 
ATOM      7  C   UNL     1      32.859 -20.778 -21.190  0.00  0.00    +0.118 C 
ATOM      8  H   UNL     1      33.706 -22.993 -18.261  0.00  0.00    +0.165 HD
ENDROOT
BRANCH   1  12
ATOM      9  C   UNL     1      36.598 -23.714 -15.733  0.00  0.00    +0.004 C 
ATOM     10  C   UNL     1      35.497 -23.511 -16.564  0.00  0.00    +0.013 C 
ATOM     11  C   UNL     1      37.790 -23.029 -15.974  0.00  0.00    -0.002 C 
ATOM     12  C   UNL     1      35.587 -22.624 -17.637  0.00  0.00    +0.057 C 
ATOM     13  C   UNL     1      37.880 -22.142 -17.047  0.00  0.00    +0.001 C 
ATOM     14  C   UNL     1      36.778 -21.940 -17.878  0.00  0.00    +0.015 C 
BRANCH   9  15
ATOM     15  C   UNL     1      36.502 -24.663 -14.587  0.00  0.00    +0.195 C 
BRANCH  15  16
ATOM     16  S   UNL     1      37.272 -26.176 -15.069  0.00  0.00    +0.045 S 
ATOM     17  O   UNL     1      36.341 -26.922 -15.900  0.00  0.00    -0.157 OA
ATOM     18  O   UNL     1      38.604 -25.862 -15.562  0.00  0.00    -0.157 OA
BRANCH  16  19
ATOM     19  N   UNL     1      37.436 -26.956 -13.555  0.00  0.00    -0.185 NA
ATOM     20  H   UNL     1      38.416 -27.223 -13.461  0.00  0.00    +0.148 HD
BRANCH  19  21
ATOM     21  C   UNL     1      37.069 -26.223 -12.330  0.00  0.00    +0.068 C 
BRANCH  21  22
ATOM     22  C   UNL     1      38.141 -25.186 -12.026  0.00  0.00    -0.058 C 
BRANCH  22  23
ATOM     23  N   UNL     1      37.581 -24.100 -11.229  0.00  0.00    +0.385 N 
ATOM     24  C   UNL     1      37.710 -22.824 -11.935  0.00  0.00    -0.101 C 
ATOM     25  C   UNL     1      36.177 -24.364 -10.910  0.00  0.00    -0.101 C 
ATOM     26  H   UNL     1      38.107 -24.043 -10.357  0.00  0.00    -0.080 HD
ENDBRANCH  22  23
ENDBRANCH  21  22
ENDBRANCH  19  21
ENDBRANCH  16  19
ENDBRANCH  15  16
ENDBRANCH   9  15
ENDBRANCH   1  12
BRANCH   5  27
ATOM     27  O   UNL     1      36.037 -19.069 -21.345  0.00  0.00    -0.427 OA
BRANCH  27  35
ATOM     28  N   UNL     1      34.682 -14.739 -24.424  0.00  0.00    -0.316 N 
ATOM     29  C   UNL     1      35.024 -15.722 -22.451  0.00  0.00    +0.017 C 
ATOM     30  C   UNL     1      35.047 -15.927 -23.832  0.00  0.00    +0.048 C 
ATOM     31  C   UNL     1      34.430 -13.793 -23.469  0.00  0.00    +0.026 C 
ATOM     32  C   UNL     1      34.633 -14.371 -22.236  0.00  0.00    +0.012 C 
ATOM     33  C   UNL     1      35.361 -16.793 -21.600  0.00  0.00    +0.039 C 
ATOM     34  C   UNL     1      35.393 -17.155 -24.407  0.00  0.00    +0.018 C 
ATOM     35  C   UNL     1      35.709 -18.027 -22.161  0.00  0.00    +0.148 C 
ATOM     36  C   UNL     1      35.724 -18.203 -23.544  0.00  0.00    +0.039 C 
ATOM     37  C   UNL     1      34.017 -12.425 -23.834  0.00  0.00    +0.047 C 
ATOM     38  H   UNL     1      34.614 -14.591 -25.396  0.00  0.00    +0.152 HD
ENDBRANCH  27  35
ENDBRANCH   5  27
TORSDOF 9
ENDMDL
MODEL 4
REMARK VINA RESULT:     -11.3      2.824     10.468
REMARK  Name = 52920501
REMARK  9 active torsions:
REMARK  status: ('A' for Active; 'I' for Inactive)
REMARK    1  A    between atoms: N_1  and  C_12
REMARK    2  A    between atoms: C_5  and  O_27
REMARK    3  A    between atoms: C_9  and  C_15
REMARK    4  A    between atoms: C_15  and  S_16
REMARK    5  A    between atoms: S_16  and  N_19
REMARK    6  A    between atoms: N_19  and  C_21
REMARK    7  A    between atoms: C_21  and  C_22
REMARK    8  A    between atoms: C_22  and  N_23
REMARK    9  A    between atoms: O_27  and  C_35
REMARK                            x       y       z     vdW  Elec       q    Type
REMARK                         _______ _______ _______ _____ _____    ______ ____
ROOT
ATOM      1  N   UNL     1      34.501 -22.771 -17.817  0.00  0.00    -0.247 N 
ATOM      2  N   UNL     1      35.342 -21.278 -19.420  0.00  0.00    -0.300 NA
ATOM      3  N   UNL     1      33.026 -21.945 -19.445  0.00  0.00    -0.170 NA
ATOM      4  C   UNL     1      34.279 -21.957 -18.949  0.00  0.00    +0.152 C 
ATOM      5  C   UNL     1      35.094 -20.512 -20.502  0.00  0.00    +0.295 C 
ATOM      6  C   UNL     1      33.857 -20.412 -21.104  0.00  0.00    +0.094 C 
ATOM      7  C   UNL     1      32.850 -21.158 -20.527  0.00  0.00    +0.118 C 
ATOM      8  H   UNL     1      33.697 -23.249 -17.508  0.00  0.00    +0.165 HD
ENDROOT
BRANCH   1  12
ATOM      9  C   UNL     1      36.768 -24.314 -15.329  0.00  0.00    +0.004 C 
ATOM     10  C   UNL     1      35.632 -24.056 -16.096  0.00  0.00    +0.013 C 
ATOM     11  C   UNL     1      37.919 -23.546 -15.508  0.00  0.00    -0.002 C 
ATOM     12  C   UNL     1      35.647 -23.032 -17.043  0.00  0.00    +0.057 C 
ATOM     13  C   UNL     1      37.934 -22.521 -16.454  0.00  0.00    +0.001 C 
ATOM     14  C   UNL     1      36.798 -22.264 -17.221  0.00  0.00    +0.015 C 
BRANCH   9  15
ATOM     15  C   UNL     1      36.752 -25.410 -14.318  0.00  0.00    +0.195 C 
BRANCH  15  16
ATOM     16  S   UNL     1      36.305 -24.707 -12.763  0.00  0.00    +0.045 S 
ATOM     17  O   UNL     1      37.006 -25.428 -11.713  0.00  0.00    -0.157 OA
ATOM     18  O   UNL     1      36.437 -23.262 -12.871  0.00  0.00    -0.157 OA
BRANCH  16  19
ATOM     19  N   UNL     1      34.638 -25.085 -12.700  0.00  0.00    -0.185 NA
ATOM     20  H   UNL     1      34.379 -25.128 -11.714  0.00  0.00    +0.148 HD
BRANCH  19  21
ATOM     21  C   UNL     1      33.676 -24.185 -13.361  0.00  0.00    +0.068 C 
BRANCH  21  22
ATOM     22  C   UNL     1      32.531 -25.008 -13.934  0.00  0.00    -0.058 C 
BRANCH  22  23
ATOM     23  N   UNL     1      31.332 -24.188 -14.058  0.00  0.00    +0.385 N 
ATOM     24  C   UNL     1      31.606 -22.992 -14.858  0.00  0.00    -0.101 C 
ATOM     25  C   UNL     1      30.239 -24.958 -14.653  0.00  0.00    -0.101 C 
ATOM     26  H   UNL     1      31.050 -23.894 -13.122  0.00  0.00    -0.080 HD
ENDBRANCH  22  23
ENDBRANCH  21  22
ENDBRANCH  19  21
ENDBRANCH  16  19
ENDBRANCH  15  16
ENDBRANCH   9  15
ENDBRANCH   1  12
BRANCH   5  27
ATOM     27  O   UNL     1      36.156 -19.792 -21.022  0.00  0.00    -0.427 OA
BRANCH  27  35
ATOM     28  N   UNL     1      34.969 -15.564 -24.305  0.00  0.00    -0.316 N 
ATOM     29  C   UNL     1      35.262 -16.468 -22.286  0.00  0.00    +0.017 C 
ATOM     30  C   UNL     1      35.290 -16.735 -23.657  0.00  0.00    +0.048 C 
ATOM     31  C   UNL     1      34.740 -14.568 -23.395  0.00  0.00    +0.026 C 
ATOM     32  C   UNL     1      34.913 -15.097 -22.136  0.00  0.00    +0.012 C 
ATOM     33  C   UNL     1      35.557 -17.510 -21.385  0.00  0.00    +0.039 C 
ATOM     34  C   UNL     1      35.600 -17.998 -24.173  0.00  0.00    +0.018 C 
ATOM     35  C   UNL     1      35.869 -18.778 -21.888  0.00  0.00    +0.148 C 
ATOM     36  C   UNL     1      35.890 -19.017 -23.260  0.00  0.00    +0.039 C 
ATOM     37  C   UNL     1      34.375 -13.206 -23.825  0.00  0.00    +0.047 C 
ATOM     38  H   UNL     1      34.914 -15.458 -25.282  0.00  0.00    +0.152 HD
ENDBRANCH  27  35
ENDBRANCH   5  27
TORSDOF 9
ENDMDL
MODEL 5
REMARK VINA RESULT:     -11.2      3.759     11.520
REMARK  Name = 52920501
REMARK  9 active torsions:
REMARK  status: ('A' for Active; 'I' for Inactive)
REMARK    1  A    between atoms: N_1  and  C_12
REMARK    2  A    between atoms: C_5  and  O_27
REMARK    3  A    between atoms: C_9  and  C_15
REMARK    4  A    between atoms: C_15  and  S_16
REMARK    5  A    between atoms: S_16  and  N_19
REMARK    6  A    between atoms: N_19  and  C_21
REMARK    7  A    between atoms: C_21  and  C_22
REMARK    8  A    between atoms: C_22  and  N_23
REMARK    9  A    between atoms: O_27  and  C_35
REMARK                            x       y       z     vdW  Elec       q    Type
REMARK                         _______ _______ _______ _____ _____    ______ ____
ROOT
ATOM      1  N   UNL     1      35.041 -19.782 -23.028  0.00  0.00    -0.247 N 
ATOM      2  N   UNL     1      35.343 -17.493 -23.445  0.00  0.00    -0.300 NA
ATOM      3  N   UNL     1      34.077 -18.871 -24.963  0.00  0.00    -0.170 NA
ATOM      4  C   UNL     1      34.809 -18.660 -23.852  0.00  0.00    +0.152 C 
ATOM      5  C   UNL     1      35.103 -16.443 -24.256  0.00  0.00    +0.295 C 
ATOM      6  C   UNL     1      34.368 -16.526 -25.421  0.00  0.00    +0.094 C 
ATOM      7  C   UNL     1      33.875 -17.778 -25.728  0.00  0.00    +0.118 C 
ATOM      8  H   UNL     1      34.632 -20.613 -23.364  0.00  0.00    +0.165 HD
ENDROOT
BRANCH   1  12
ATOM      9  C   UNL     1      36.052 -21.100 -19.719  0.00  0.00    +0.004 C 
ATOM     10  C   UNL     1      35.357 -20.938 -20.917  0.00  0.00    +0.013 C 
ATOM     11  C   UNL     1      37.132 -20.268 -19.422  0.00  0.00    -0.002 C 
ATOM     12  C   UNL     1      35.742 -19.946 -21.819  0.00  0.00    +0.057 C 
ATOM     13  C   UNL     1      37.518 -19.275 -20.323  0.00  0.00    +0.001 C 
ATOM     14  C   UNL     1      36.822 -19.114 -21.521  0.00  0.00    +0.015 C 
BRANCH   9  15
ATOM     15  C   UNL     1      35.641 -22.161 -18.756  0.00  0.00    +0.195 C 
BRANCH  15  16
ATOM     16  S   UNL     1      33.993 -22.648 -19.156  0.00  0.00    +0.045 S 
ATOM     17  O   UNL     1      33.205 -21.450 -19.399  0.00  0.00    -0.157 OA
ATOM     18  O   UNL     1      34.067 -23.692 -20.165  0.00  0.00    -0.157 OA
BRANCH  16  19
ATOM     19  N   UNL     1      33.497 -23.366 -17.684  0.00  0.00    -0.185 NA
ATOM     20  H   UNL     1      34.187 -23.107 -16.978  0.00  0.00    +0.148 HD
BRANCH  19  21
ATOM     21  C   UNL     1      32.171 -23.028 -17.136  0.00  0.00    +0.068 C 
BRANCH  21  22
ATOM     22  C   UNL     1      31.935 -23.830 -15.865  0.00  0.00    -0.058 C 
BRANCH  22  23
ATOM     23  N   UNL     1      30.532 -24.215 -15.764  0.00  0.00    +0.385 N 
ATOM     24  C   UNL     1      30.345 -25.209 -14.705  0.00  0.00    -0.101 C 
ATOM     25  C   UNL     1      29.692 -23.043 -15.513  0.00  0.00    -0.101 C 
ATOM     26  H   UNL     1      30.252 -24.631 -16.652  0.00  0.00    -0.080 HD
ENDBRANCH  22  23
ENDBRANCH  21  22
ENDBRANCH  19  21
ENDBRANCH  16  19
ENDBRANCH  15  16
ENDBRANCH   9  15
ENDBRANCH   1  12
BRANCH   5  27
ATOM     27  O   UNL     1      35.631 -15.220 -23.879  0.00  0.00    -0.427 OA
BRANCH  27  35
ATOM     28  N   UNL     1      32.079 -11.428 -22.126  0.00  0.00    -0.316 N 
ATOM     29  C   UNL     1      33.206 -13.338 -21.873  0.00  0.00    +0.017 C 
ATOM     30  C   UNL     1      32.990 -12.261 -22.736  0.00  0.00    +0.048 C 
ATOM     31  C   UNL     1      31.712 -11.939 -20.911  0.00  0.00    +0.026 C 
ATOM     32  C   UNL     1      32.392 -13.122 -20.726  0.00  0.00    +0.012 C 
ATOM     33  C   UNL     1      34.106 -14.349 -22.261  0.00  0.00    +0.039 C 
ATOM     34  C   UNL     1      33.634 -12.145 -23.973  0.00  0.00    +0.018 C 
ATOM     35  C   UNL     1      34.758 -14.246 -23.496  0.00  0.00    +0.148 C 
ATOM     36  C   UNL     1      34.523 -13.160 -24.337  0.00  0.00    +0.039 C 
ATOM     37  C   UNL     1      30.742 -11.242 -20.048  0.00  0.00    +0.047 C 
ATOM     38  H   UNL     1      31.741 -10.586 -22.509  0.00  0.00    +0.152 HD
ENDBRANCH  27  35
ENDBRANCH   5  27
TORSDOF 9
ENDMDL
MODEL 6
REMARK VINA RESULT:     -11.1      1.822      4.967
REMARK  Name = 52920501
REMARK  9 active torsions:
REMARK  status: ('A' for Active; 'I' for Inactive)
REMARK    1  A    between atoms: N_1  and  C_12
REMARK    2  A    between atoms: C_5  and  O_27
REMARK    3  A    between atoms: C_9  and  C_15
REMARK    4  A    between atoms: C_15  and  S_16
REMARK    5  A    between atoms: S_16  and  N_19
REMARK    6  A    between atoms: N_19  and  C_21
REMARK    7  A    between atoms: C_21  and  C_22
REMARK    8  A    between atoms: C_22  and  N_23
REMARK    9  A    between atoms: O_27  and  C_35
REMARK                            x       y       z     vdW  Elec       q    Type
REMARK                         _______ _______ _______ _____ _____    ______ ____
ROOT
ATOM      1  N   UNL     1      36.717 -21.563 -18.273  0.00  0.00    -0.247 N 
ATOM      2  N   UNL     1      35.754 -23.259 -16.968  0.00  0.00    -0.300 NA
ATOM      3  N   UNL     1      37.964 -22.429 -16.484  0.00  0.00    -0.170 NA
ATOM      4  C   UNL     1      36.816 -22.461 -17.188  0.00  0.00    +0.152 C 
ATOM      5  C   UNL     1      35.883 -24.105 -15.925  0.00  0.00    +0.295 C 
ATOM      6  C   UNL     1      37.006 -24.170 -15.126  0.00  0.00    +0.094 C 
ATOM      7  C   UNL     1      38.025 -23.301 -15.456  0.00  0.00    +0.118 C 
ATOM      8  H   UNL     1      37.515 -21.000 -18.397  0.00  0.00    +0.165 HD
ENDROOT
BRANCH   1  12
ATOM      9  C   UNL     1      34.982 -20.392 -21.327  0.00  0.00    +0.004 C 
ATOM     10  C   UNL     1      35.991 -20.638 -20.397  0.00  0.00    +0.013 C 
ATOM     11  C   UNL     1      33.679 -20.821 -21.072  0.00  0.00    -0.002 C 
ATOM     12  C   UNL     1      35.699 -21.314 -19.213  0.00  0.00    +0.057 C 
ATOM     13  C   UNL     1      33.386 -21.497 -19.888  0.00  0.00    +0.001 C 
ATOM     14  C   UNL     1      34.396 -21.743 -18.958  0.00  0.00    +0.015 C 
BRANCH   9  15
ATOM     15  C   UNL     1      35.295 -19.670 -22.594  0.00  0.00    +0.195 C 
BRANCH  15  16
ATOM     16  S   UNL     1      36.276 -18.261 -22.186  0.00  0.00    +0.045 S 
ATOM     17  O   UNL     1      35.620 -17.539 -21.109  0.00  0.00    -0.157 OA
ATOM     18  O   UNL     1      37.653 -18.703 -22.037  0.00  0.00    -0.157 OA
BRANCH  16  19
ATOM     19  N   UNL     1      36.162 -17.354 -23.632  0.00  0.00    -0.185 NA
ATOM     20  H   UNL     1      35.811 -17.984 -24.354  0.00  0.00    +0.148 HD
BRANCH  19  21
ATOM     21  C   UNL     1      35.309 -16.153 -23.656  0.00  0.00    +0.068 C 
BRANCH  21  22
ATOM     22  C   UNL     1      34.715 -15.986 -25.047  0.00  0.00    -0.058 C 
BRANCH  22  23
ATOM     23  N   UNL     1      33.761 -14.884 -25.061  0.00  0.00    +0.385 N 
ATOM     24  C   UNL     1      34.242 -13.775 -24.234  0.00  0.00    -0.101 C 
ATOM     25  C   UNL     1      33.520 -14.427 -26.431  0.00  0.00    -0.101 C 
ATOM     26  H   UNL     1      32.881 -15.220 -24.672  0.00  0.00    -0.080 HD
ENDBRANCH  22  23
ENDBRANCH  21  22
ENDBRANCH  19  21
ENDBRANCH  16  19
ENDBRANCH  15  16
ENDBRANCH   9  15
ENDBRANCH   1  12
BRANCH   5  27
ATOM     27  O   UNL     1      34.816 -24.945 -15.658  0.00  0.00    -0.427 OA
BRANCH  27  35
ATOM     28  N   UNL     1      29.907 -22.659 -14.798  0.00  0.00    -0.316 N 
ATOM     29  C   UNL     1      31.424 -23.629 -16.116  0.00  0.00    +0.017 C 
ATOM     30  C   UNL     1      31.174 -23.197 -14.811  0.00  0.00    +0.048 C 
ATOM     31  C   UNL     1      29.348 -22.736 -16.044  0.00  0.00    +0.026 C 
ATOM     32  C   UNL     1      30.263 -23.331 -16.883  0.00  0.00    +0.012 C 
ATOM     33  C   UNL     1      32.666 -24.226 -16.407  0.00  0.00    +0.039 C 
ATOM     34  C   UNL     1      32.109 -23.332 -13.779  0.00  0.00    +0.018 C 
ATOM     35  C   UNL     1      33.611 -24.368 -15.385  0.00  0.00    +0.148 C 
ATOM     36  C   UNL     1      33.335 -23.927 -14.092  0.00  0.00    +0.039 C 
ATOM     37  C   UNL     1      27.989 -22.228 -16.308  0.00  0.00    +0.047 C 
ATOM     38  H   UNL     1      29.466 -22.275 -14.005  0.00  0.00    +0.152 HD
ENDBRANCH  27  35
ENDBRANCH   5  27
TORSDOF 9
ENDMDL
MODEL 7
REMARK VINA RESULT:     -11.0      2.853     11.514
REMARK  Name = 52920501
REMARK  9 active torsions:
REMARK  status: ('A' for Active; 'I' for Inactive)
REMARK    1  A    between atoms: N_1  and  C_12
REMARK    2  A    between atoms: C_5  and  O_27
REMARK    3  A    between atoms: C_9  and  C_15
REMARK    4  A    between atoms: C_15  and  S_16
REMARK    5  A    between atoms: S_16  and  N_19
REMARK    6  A    between atoms: N_19  and  C_21
REMARK    7  A    between atoms: C_21  and  C_22
REMARK    8  A    between atoms: C_22  and  N_23
REMARK    9  A    between atoms: O_27  and  C_35
REMARK                            x       y       z     vdW  Elec       q    Type
REMARK                         _______ _______ _______ _____ _____    ______ ____
ROOT
ATOM      1  N   UNL     1      35.069 -19.715 -23.104  0.00  0.00    -0.247 N 
ATOM      2  N   UNL     1      35.353 -17.416 -23.482  0.00  0.00    -0.300 NA
ATOM      3  N   UNL     1      34.117 -18.783 -25.035  0.00  0.00    -0.170 NA
ATOM      4  C   UNL     1      34.835 -18.582 -23.913  0.00  0.00    +0.152 C 
ATOM      5  C   UNL     1      35.110 -16.355 -24.279  0.00  0.00    +0.295 C 
ATOM      6  C   UNL     1      34.389 -16.428 -25.453  0.00  0.00    +0.094 C 
ATOM      7  C   UNL     1      33.912 -17.679 -25.785  0.00  0.00    +0.118 C 
ATOM      8  H   UNL     1      34.672 -20.544 -23.457  0.00  0.00    +0.165 HD
ENDROOT
BRANCH   1  12
ATOM      9  C   UNL     1      36.053 -21.068 -19.801  0.00  0.00    +0.004 C 
ATOM     10  C   UNL     1      35.369 -20.895 -21.004  0.00  0.00    +0.013 C 
ATOM     11  C   UNL     1      37.127 -20.236 -19.483  0.00  0.00    -0.002 C 
ATOM     12  C   UNL     1      35.759 -19.890 -21.890  0.00  0.00    +0.057 C 
ATOM     13  C   UNL     1      37.517 -19.231 -20.369  0.00  0.00    +0.001 C 
ATOM     14  C   UNL     1      36.833 -19.058 -21.572  0.00  0.00    +0.015 C 
BRANCH   9  15
ATOM     15  C   UNL     1      35.637 -22.143 -18.855  0.00  0.00    +0.195 C 
BRANCH  15  16
ATOM     16  S   UNL     1      33.936 -22.503 -19.158  0.00  0.00    +0.045 S 
ATOM     17  O   UNL     1      33.278 -21.283 -19.596  0.00  0.00    -0.157 OA
ATOM     18  O   UNL     1      33.872 -23.704 -19.976  0.00  0.00    -0.157 OA
BRANCH  16  19
ATOM     19  N   UNL     1      33.402 -22.904 -17.583  0.00  0.00    -0.185 NA
ATOM     20  H   UNL     1      32.465 -23.296 -17.676  0.00  0.00    +0.148 HD
BRANCH  19  21
ATOM     21  C   UNL     1      34.190 -23.858 -16.782  0.00  0.00    +0.068 C 
BRANCH  21  22
ATOM     22  C   UNL     1      34.551 -23.217 -15.450  0.00  0.00    -0.058 C 
BRANCH  22  23
ATOM     23  N   UNL     1      35.787 -23.790 -14.931  0.00  0.00    +0.385 N 
ATOM     24  C   UNL     1      35.813 -25.238 -15.143  0.00  0.00    -0.101 C 
ATOM     25  C   UNL     1      36.950 -23.164 -15.563  0.00  0.00    -0.101 C 
ATOM     26  H   UNL     1      35.825 -23.608 -13.928  0.00  0.00    -0.080 HD
ENDBRANCH  22  23
ENDBRANCH  21  22
ENDBRANCH  19  21
ENDBRANCH  16  19
ENDBRANCH  15  16
ENDBRANCH   9  15
ENDBRANCH   1  12
BRANCH   5  27
ATOM     27  O   UNL     1      35.622 -15.134 -23.877  0.00  0.00    -0.427 OA
BRANCH  27  35
ATOM     28  N   UNL     1      32.022 -11.414 -22.072  0.00  0.00    -0.316 N 
ATOM     29  C   UNL     1      33.182 -13.306 -21.840  0.00  0.00    +0.017 C 
ATOM     30  C   UNL     1      32.941 -12.227 -22.694  0.00  0.00    +0.048 C 
ATOM     31  C   UNL     1      31.672 -11.939 -20.857  0.00  0.00    +0.026 C 
ATOM     32  C   UNL     1      32.374 -13.111 -20.685  0.00  0.00    +0.012 C 
ATOM     33  C   UNL     1      34.096 -14.299 -22.242  0.00  0.00    +0.039 C 
ATOM     34  C   UNL     1      33.573 -12.092 -23.935  0.00  0.00    +0.018 C 
ATOM     35  C   UNL     1      34.736 -14.177 -23.481  0.00  0.00    +0.148 C 
ATOM     36  C   UNL     1      34.477 -13.090 -24.313  0.00  0.00    +0.039 C 
ATOM     37  C   UNL     1      30.697 -11.264 -19.982  0.00  0.00    +0.047 C 
ATOM     38  H   UNL     1      31.666 -10.575 -22.446  0.00  0.00    +0.152 HD
ENDBRANCH  27  35
ENDBRANCH   5  27
TORSDOF 9
ENDMDL
MODEL 8
REMARK VINA RESULT:     -11.0      4.392      8.961
REMARK  Name = 52920501
REMARK  9 active torsions:
REMARK  status: ('A' for Active; 'I' for Inactive)
REMARK    1  A    between atoms: N_1  and  C_12
REMARK    2  A    between atoms: C_5  and  O_27
REMARK    3  A    between atoms: C_9  and  C_15
REMARK    4  A    between atoms: C_15  and  S_16
REMARK    5  A    between atoms: S_16  and  N_19
REMARK    6  A    between atoms: N_19  and  C_21
REMARK    7  A    between atoms: C_21  and  C_22
REMARK    8  A    between atoms: C_22  and  N_23
REMARK    9  A    between atoms: O_27  and  C_35
REMARK                            x       y       z     vdW  Elec       q    Type
REMARK                         _______ _______ _______ _____ _____    ______ ____
ROOT
ATOM      1  N   UNL     1      33.536 -15.595 -25.813  0.00  0.00    -0.247 N 
ATOM      2  N   UNL     1      34.837 -16.751 -24.239  0.00  0.00    -0.300 NA
ATOM      3  N   UNL     1      33.660 -17.932 -25.979  0.00  0.00    -0.170 NA
ATOM      4  C   UNL     1      34.036 -16.819 -25.319  0.00  0.00    +0.152 C 
ATOM      5  C   UNL     1      35.295 -17.939 -23.794  0.00  0.00    +0.295 C 
ATOM      6  C   UNL     1      34.985 -19.149 -24.380  0.00  0.00    +0.094 C 
ATOM      7  C   UNL     1      34.155 -19.084 -25.480  0.00  0.00    +0.118 C 
ATOM      8  H   UNL     1      32.956 -15.693 -26.603  0.00  0.00    +0.165 HD
ENDROOT
BRANCH   1  12
ATOM      9  C   UNL     1      33.871 -12.624 -23.629  0.00  0.00    +0.004 C 
ATOM     10  C   UNL     1      33.703 -13.947 -24.039  0.00  0.00    +0.013 C 
ATOM     11  C   UNL     1      34.041 -11.616 -24.577  0.00  0.00    -0.002 C 
ATOM     12  C   UNL     1      33.706 -14.261 -25.398  0.00  0.00    +0.057 C 
ATOM     13  C   UNL     1      34.044 -11.930 -25.937  0.00  0.00    +0.001 C 
ATOM     14  C   UNL     1      33.876 -13.252 -26.347  0.00  0.00    +0.015 C 
BRANCH   9  15
ATOM     15  C   UNL     1      33.869 -12.289 -22.176  0.00  0.00    +0.195 C 
BRANCH  15  16
ATOM     16  S   UNL     1      32.236 -12.552 -21.561  0.00  0.00    +0.045 S 
ATOM     17  O   UNL     1      31.291 -11.970 -22.499  0.00  0.00    -0.157 OA
ATOM     18  O   UNL     1      32.121 -13.951 -21.181  0.00  0.00    -0.157 OA
BRANCH  16  19
ATOM     19  N   UNL     1      32.270 -11.614 -20.131  0.00  0.00    -0.185 NA
ATOM     20  H   UNL     1      33.246 -11.382 -19.949  0.00  0.00    +0.148 HD
BRANCH  19  21
ATOM     21  C   UNL     1      31.511 -10.351 -20.087  0.00  0.00    +0.068 C 
BRANCH  21  22
ATOM     22  C   UNL     1      32.479  -9.180 -20.168  0.00  0.00    -0.058 C 
BRANCH  22  23
ATOM     23  N   UNL     1      32.138  -8.318 -21.293  0.00  0.00    +0.385 N 
ATOM     24  C   UNL     1      32.495  -6.928 -21.004  0.00  0.00    -0.101 C 
ATOM     25  C   UNL     1      32.810  -8.771 -22.512  0.00  0.00    -0.101 C 
ATOM     26  H   UNL     1      31.130  -8.371 -21.439  0.00  0.00    -0.080 HD
ENDBRANCH  22  23
ENDBRANCH  21  22
ENDBRANCH  19  21
ENDBRANCH  16  19
ENDBRANCH  15  16
ENDBRANCH   9  15
ENDBRANCH   1  12
BRANCH   5  27
ATOM     27  O   UNL     1      36.123 -17.920 -22.685  0.00  0.00    -0.427 OA
BRANCH  27  35
ATOM     28  N   UNL     1      35.413 -22.031 -19.128  0.00  0.00    -0.316 N 
ATOM     29  C   UNL     1      34.630 -20.500 -20.550  0.00  0.00    +0.017 C 
ATOM     30  C   UNL     1      35.795 -21.022 -19.982  0.00  0.00    +0.048 C 
ATOM     31  C   UNL     1      34.051 -22.167 -19.136  0.00  0.00    +0.026 C 
ATOM     32  C   UNL     1      33.538 -21.232 -20.007  0.00  0.00    +0.012 C 
ATOM     33  C   UNL     1      34.740 -19.442 -21.473  0.00  0.00    +0.039 C 
ATOM     34  C   UNL     1      37.069 -20.535 -20.293  0.00  0.00    +0.018 C 
ATOM     35  C   UNL     1      36.009 -18.944 -21.793  0.00  0.00    +0.148 C 
ATOM     36  C   UNL     1      37.154 -19.484 -21.211  0.00  0.00    +0.039 C 
ATOM     37  C   UNL     1      33.377 -23.180 -18.304  0.00  0.00    +0.047 C 
ATOM     38  H   UNL     1      36.030 -22.578 -18.590  0.00  0.00    +0.152 HD
ENDBRANCH  27  35
ENDBRANCH   5  27
TORSDOF 9
ENDMDL
MODEL 9
REMARK VINA RESULT:     -10.7      6.176     14.509
REMARK  Name = 52920501
REMARK  9 active torsions:
REMARK  status: ('A' for Active; 'I' for Inactive)
REMARK    1  A    between atoms: N_1  and  C_12
REMARK    2  A    between atoms: C_5  and  O_27
REMARK    3  A    between atoms: C_9  and  C_15
REMARK    4  A    between atoms: C_15  and  S_16
REMARK    5  A    between atoms: S_16  and  N_19
REMARK    6  A    between atoms: N_19  and  C_21
REMARK    7  A    between atoms: C_21  and  C_22
REMARK    8  A    between atoms: C_22  and  N_23
REMARK    9  A    between atoms: O_27  and  C_35
REMARK                            x       y       z     vdW  Elec       q    Type
REMARK                         _______ _______ _______ _____ _____    ______ ____
ROOT
ATOM      1  N   UNL     1      31.961 -12.555 -21.738  0.00  0.00    -0.247 N 
ATOM      2  N   UNL     1      32.653 -10.412 -21.077  0.00  0.00    -0.300 NA
ATOM      3  N   UNL     1      30.755 -11.475 -20.040  0.00  0.00    -0.170 NA
ATOM      4  C   UNL     1      31.782 -11.425 -20.911  0.00  0.00    +0.152 C 
ATOM      5  C   UNL     1      32.451  -9.349 -20.271  0.00  0.00    +0.295 C 
ATOM      6  C   UNL     1      31.438  -9.276 -19.338  0.00  0.00    +0.094 C 
ATOM      7  C   UNL     1      30.612 -10.379 -19.266  0.00  0.00    +0.118 C 
ATOM      8  H   UNL     1      31.302 -13.270 -21.582  0.00  0.00    +0.165 HD
ENDROOT
BRANCH   1  12
ATOM      9  C   UNL     1      34.438 -14.415 -23.766  0.00  0.00    +0.004 C 
ATOM     10  C   UNL     1      33.509 -14.114 -22.771  0.00  0.00    +0.013 C 
ATOM     11  C   UNL     1      34.760 -13.461 -24.732  0.00  0.00    -0.002 C 
ATOM     12  C   UNL     1      32.900 -12.860 -22.742  0.00  0.00    +0.057 C 
ATOM     13  C   UNL     1      34.151 -12.206 -24.703  0.00  0.00    +0.001 C 
ATOM     14  C   UNL     1      33.221 -11.906 -23.708  0.00  0.00    +0.015 C 
BRANCH   9  15
ATOM     15  C   UNL     1      35.089 -15.757 -23.797  0.00  0.00    +0.195 C 
BRANCH  15  16
ATOM     16  S   UNL     1      34.590 -16.567 -25.283  0.00  0.00    +0.045 S 
ATOM     17  O   UNL     1      33.237 -16.143 -25.607  0.00  0.00    -0.157 OA
ATOM     18  O   UNL     1      35.658 -16.412 -26.258  0.00  0.00    -0.157 OA
BRANCH  16  19
ATOM     19  N   UNL     1      34.567 -18.200 -24.773  0.00  0.00    -0.185 NA
ATOM     20  H   UNL     1      34.696 -18.774 -25.606  0.00  0.00    +0.148 HD
BRANCH  19  21
ATOM     21  C   UNL     1      35.558 -18.651 -23.780  0.00  0.00    +0.068 C 
BRANCH  21  22
ATOM     22  C   UNL     1      34.854 -19.455 -22.697  0.00  0.00    -0.058 C 
BRANCH  22  23
ATOM     23  N   UNL     1      35.535 -19.286 -21.419  0.00  0.00    +0.385 N 
ATOM     24  C   UNL     1      35.598 -20.559 -20.697  0.00  0.00    -0.101 C 
ATOM     25  C   UNL     1      36.882 -18.749 -21.619  0.00  0.00    -0.101 C 
ATOM     26  H   UNL     1      35.000 -18.622 -20.859  0.00  0.00    -0.080 HD
ENDBRANCH  22  23
ENDBRANCH  21  22
ENDBRANCH  19  21
ENDBRANCH  16  19
ENDBRANCH  15  16
ENDBRANCH   9  15
ENDBRANCH   1  12
BRANCH   5  27
ATOM     27  O   UNL     1      33.324  -8.282 -20.404  0.00  0.00    -0.427 OA
BRANCH  27  35
ATOM     28  N   UNL     1      32.668  -4.868 -24.644  0.00  0.00    -0.316 N 
ATOM     29  C   UNL     1      33.807  -6.433 -23.534  0.00  0.00    +0.017 C 
ATOM     30  C   UNL     1      32.652  -5.648 -23.510  0.00  0.00    +0.048 C 
ATOM     31  C   UNL     1      33.790  -5.131 -25.382  0.00  0.00    +0.026 C 
ATOM     32  C   UNL     1      34.516  -6.096 -24.721  0.00  0.00    +0.012 C 
ATOM     33  C   UNL     1      34.038  -7.333 -22.475  0.00  0.00    +0.039 C 
ATOM     34  C   UNL     1      31.713  -5.719 -22.475  0.00  0.00    +0.018 C 
ATOM     35  C   UNL     1      33.107  -7.414 -21.433  0.00  0.00    +0.148 C 
ATOM     36  C   UNL     1      31.963  -6.619 -21.435  0.00  0.00    +0.039 C 
ATOM     37  C   UNL     1      34.055  -4.428 -26.651  0.00  0.00    +0.047 C 
ATOM     38  H   UNL     1      31.973  -4.215 -24.889  0.00  0.00    +0.152 HD
ENDBRANCH  27  35
ENDBRANCH   5  27
TORSDOF 9
ENDMDL
