MODEL 1
REMARK VINA RESULT:     -11.6      0.000      0.000
REMARK  Name = 11314340
REMARK  7 active torsions:
REMARK  status: ('A' for Active; 'I' for Inactive)
REMARK    1  A    between atoms: C_2  and  C_10
REMARK    2  A    between atoms: C_3  and  O_18
REMARK    3  A    between atoms: O_18  and  C_19
REMARK    4  A    between atoms: C_19  and  C_20
REMARK    5  A    between atoms: C_20  and  N_21
REMARK    6  A    between atoms: C_20  and  C_25
REMARK    7  A    between atoms: C_25  and  C_26
REMARK                            x       y       z     vdW  Elec       q    Type
REMARK                         _______ _______ _______ _____ _____    ______ ____
ROOT
ATOM      1  N   UNL     1      33.773 -16.030 -26.310  0.00  0.00    -0.239 NA
ATOM      2  C   UNL     1      34.036 -14.326 -24.624  0.00  0.00    +0.022 C 
ATOM      3  C   UNL     1      35.192 -16.414 -24.390  0.00  0.00    +0.158 C 
ATOM      4  C   UNL     1      34.892 -15.146 -23.905  0.00  0.00    +0.040 C 
ATOM      5  C   UNL     1      33.505 -14.804 -25.807  0.00  0.00    +0.099 C 
ATOM      6  C   UNL     1      34.611 -16.806 -25.585  0.00  0.00    +0.136 C 
ENDROOT
BRANCH   2  10
ATOM      7  N   UNL     1      31.961  -9.751 -21.725  0.00  0.00    -0.280 N 
ATOM      8  N   UNL     1      32.724  -9.288 -22.735  0.00  0.00    -0.173 NA
ATOM      9  C   UNL     1      32.645 -11.559 -22.688  0.00  0.00    +0.032 A 
ATOM     10  C   UNL     1      33.703 -12.997 -24.145  0.00  0.00    +0.002 C 
ATOM     11  C   UNL     1      33.169 -10.393 -23.360  0.00  0.00    +0.102 A 
ATOM     12  C   UNL     1      32.865 -12.889 -23.018  0.00  0.00    +0.003 C 
ATOM     13  C   UNL     1      31.878 -11.111 -21.649  0.00  0.00    +0.053 A 
ATOM     14  C   UNL     1      34.248 -11.874 -24.845  0.00  0.00    +0.002 C 
ATOM     15  C   UNL     1      34.005 -10.530 -24.483  0.00  0.00    +0.021 C 
ATOM     16  C   UNL     1      31.088 -11.788 -20.607  0.00  0.00    +0.051 C 
ATOM     17  H   UNL     1      31.500  -9.155 -21.091  0.00  0.00    +0.189 HD
ENDBRANCH   2  10
BRANCH   3  18
ATOM     18  O   UNL     1      36.027 -17.241 -23.713  0.00  0.00    -0.476 OA
BRANCH  18  19
ATOM     19  C   UNL     1      35.610 -18.597 -23.543  0.00  0.00    +0.184 C 
BRANCH  19  20
ATOM     20  C   UNL     1      35.593 -18.965 -22.055  0.00  0.00    -0.017 C 
BRANCH  20  21
ATOM     21  N   UNL     1      35.662 -17.729 -21.272  0.00  0.00    +0.384 N 
ATOM     22  H   UNL     1      35.491 -16.929 -21.881  0.00  0.00    -0.089 HD
ATOM     23  H   UNL     1      36.588 -17.644 -20.851  0.00  0.00    -0.089 HD
ATOM     24  H   UNL     1      34.955 -17.752 -20.535  0.00  0.00    -0.089 HD
ENDBRANCH  20  21
BRANCH  20  25
ATOM     25  C   UNL     1      34.322 -19.733 -21.634  0.00  0.00    +0.008 C 
BRANCH  25  26
ATOM     26  C   UNL     1      34.530 -20.735 -20.524  0.00  0.00    -0.024 C 
ATOM     27  C   UNL     1      35.821 -21.040 -20.118  0.00  0.00    -0.004 C 
ATOM     28  C   UNL     1      33.429 -21.331 -19.930  0.00  0.00    -0.004 C 
ATOM     29  C   UNL     1      36.014 -21.965 -19.092  0.00  0.00    -0.000 C 
ATOM     30  C   UNL     1      33.623 -22.257 -18.904  0.00  0.00    -0.000 C 
ATOM     31  C   UNL     1      34.915 -22.574 -18.485  0.00  0.00    -0.000 C 
ENDBRANCH  25  26
ENDBRANCH  20  25
ENDBRANCH  19  20
ENDBRANCH  18  19
ENDBRANCH   3  18
TORSDOF 7
ENDMDL
MODEL 2
REMARK VINA RESULT:     -11.1      0.880      1.780
REMARK  Name = 11314340
REMARK  7 active torsions:
REMARK  status: ('A' for Active; 'I' for Inactive)
REMARK    1  A    between atoms: C_2  and  C_10
REMARK    2  A    between atoms: C_3  and  O_18
REMARK    3  A    between atoms: O_18  and  C_19
REMARK    4  A    between atoms: C_19  and  C_20
REMARK    5  A    between atoms: C_20  and  N_21
REMARK    6  A    between atoms: C_20  and  C_25
REMARK    7  A    between atoms: C_25  and  C_26
REMARK                            x       y       z     vdW  Elec       q    Type
REMARK                         _______ _______ _______ _____ _____    ______ ____
ROOT
ATOM      1  N   UNL     1      33.960 -15.240 -25.941  0.00  0.00    -0.239 NA
ATOM      2  C   UNL     1      33.801 -14.302 -23.726  0.00  0.00    +0.022 C 
ATOM      3  C   UNL     1      35.220 -16.196 -24.114  0.00  0.00    +0.158 C 
ATOM      4  C   UNL     1      34.692 -15.249 -23.243  0.00  0.00    +0.040 C 
ATOM      5  C   UNL     1      33.467 -14.335 -25.066  0.00  0.00    +0.099 C 
ATOM      6  C   UNL     1      34.825 -16.150 -25.441  0.00  0.00    +0.136 C 
ENDROOT
BRANCH   2  10
ATOM      7  N   UNL     1      31.773  -9.433 -21.315  0.00  0.00    -0.280 N 
ATOM      8  N   UNL     1      31.638 -10.427 -20.414  0.00  0.00    -0.173 NA
ATOM      9  C   UNL     1      32.564 -11.149 -22.359  0.00  0.00    +0.032 A 
ATOM     10  C   UNL     1      33.232 -13.301 -22.843  0.00  0.00    +0.002 C 
ATOM     11  C   UNL     1      32.124 -11.517 -21.034  0.00  0.00    +0.102 A 
ATOM     12  C   UNL     1      33.127 -11.980 -23.319  0.00  0.00    +0.003 C 
ATOM     13  C   UNL     1      32.325  -9.812 -22.504  0.00  0.00    +0.053 A 
ATOM     14  C   UNL     1      32.810 -13.716 -21.540  0.00  0.00    +0.002 C 
ATOM     15  C   UNL     1      32.241 -12.844 -20.585  0.00  0.00    +0.021 C 
ATOM     16  C   UNL     1      32.544  -8.856 -23.602  0.00  0.00    +0.051 C 
ATOM     17  H   UNL     1      31.494  -8.507 -21.129  0.00  0.00    +0.189 HD
ENDBRANCH   2  10
BRANCH   3  18
ATOM     18  O   UNL     1      36.095 -17.136 -23.676  0.00  0.00    -0.476 OA
BRANCH  18  19
ATOM     19  C   UNL     1      35.634 -18.487 -23.624  0.00  0.00    +0.184 C 
BRANCH  19  20
ATOM     20  C   UNL     1      35.742 -19.032 -22.195  0.00  0.00    -0.017 C 
BRANCH  20  21
ATOM     21  N   UNL     1      36.124 -17.929 -21.308  0.00  0.00    +0.384 N 
ATOM     22  H   UNL     1      36.246 -17.077 -21.855  0.00  0.00    -0.089 HD
ATOM     23  H   UNL     1      37.000 -18.159 -20.837  0.00  0.00    -0.089 HD
ATOM     24  H   UNL     1      35.392 -17.784 -20.611  0.00  0.00    -0.089 HD
ENDBRANCH  20  21
BRANCH  20  25
ATOM     25  C   UNL     1      34.422 -19.636 -21.673  0.00  0.00    +0.008 C 
BRANCH  25  26
ATOM     26  C   UNL     1      34.589 -20.667 -20.583  0.00  0.00    -0.024 C 
ATOM     27  C   UNL     1      35.864 -20.992 -20.145  0.00  0.00    -0.004 C 
ATOM     28  C   UNL     1      33.466 -21.271 -20.039  0.00  0.00    -0.004 C 
ATOM     29  C   UNL     1      36.020 -21.944 -19.138  0.00  0.00    -0.000 C 
ATOM     30  C   UNL     1      33.623 -22.223 -19.032  0.00  0.00    -0.000 C 
ATOM     31  C   UNL     1      34.898 -22.560 -18.582  0.00  0.00    -0.000 C 
ENDBRANCH  25  26
ENDBRANCH  20  25
ENDBRANCH  19  20
ENDBRANCH  18  19
ENDBRANCH   3  18
TORSDOF 7
ENDMDL
MODEL 3
REMARK VINA RESULT:     -11.0      5.291     12.085
REMARK  Name = 11314340
REMARK  7 active torsions:
REMARK  status: ('A' for Active; 'I' for Inactive)
REMARK    1  A    between atoms: C_2  and  C_10
REMARK    2  A    between atoms: C_3  and  O_18
REMARK    3  A    between atoms: O_18  and  C_19
REMARK    4  A    between atoms: C_19  and  C_20
REMARK    5  A    between atoms: C_20  and  N_21
REMARK    6  A    between atoms: C_20  and  C_25
REMARK    7  A    between atoms: C_25  and  C_26
REMARK                            x       y       z     vdW  Elec       q    Type
REMARK                         _______ _______ _______ _____ _____    ______ ____
ROOT
ATOM      1  N   UNL     1      31.770 -23.397 -15.674  0.00  0.00    -0.239 NA
ATOM      2  C   UNL     1      34.180 -23.489 -15.702  0.00  0.00    +0.022 C 
ATOM      3  C   UNL     1      32.990 -22.953 -17.713  0.00  0.00    +0.158 C 
ATOM      4  C   UNL     1      34.193 -23.163 -17.049  0.00  0.00    +0.040 C 
ATOM      5  C   UNL     1      32.959 -23.594 -15.062  0.00  0.00    +0.099 C 
ATOM      6  C   UNL     1      31.817 -23.081 -16.988  0.00  0.00    +0.136 C 
ENDROOT
BRANCH   2  10
ATOM      7  N   UNL     1      38.247 -24.487 -11.690  0.00  0.00    -0.280 N 
ATOM      8  N   UNL     1      38.865 -24.362 -12.881  0.00  0.00    -0.173 NA
ATOM      9  C   UNL     1      36.611 -24.125 -13.051  0.00  0.00    +0.032 A 
ATOM     10  C   UNL     1      35.418 -23.715 -14.980  0.00  0.00    +0.002 C 
ATOM     11  C   UNL     1      37.870 -24.134 -13.758  0.00  0.00    +0.102 A 
ATOM     12  C   UNL     1      35.347 -23.923 -13.589  0.00  0.00    +0.003 C 
ATOM     13  C   UNL     1      36.890 -24.354 -11.734  0.00  0.00    +0.053 A 
ATOM     14  C   UNL     1      36.640 -23.715 -15.726  0.00  0.00    +0.002 C 
ATOM     15  C   UNL     1      37.912 -23.924 -15.148  0.00  0.00    +0.021 C 
ATOM     16  C   UNL     1      36.056 -24.463 -10.525  0.00  0.00    +0.051 C 
ATOM     17  H   UNL     1      38.737 -24.662 -10.854  0.00  0.00    +0.189 HD
ENDBRANCH   2  10
BRANCH   3  18
ATOM     18  O   UNL     1      32.967 -22.631 -19.031  0.00  0.00    -0.476 OA
BRANCH  18  19
ATOM     19  C   UNL     1      34.210 -22.283 -19.642  0.00  0.00    +0.184 C 
BRANCH  19  20
ATOM     20  C   UNL     1      34.009 -21.139 -20.642  0.00  0.00    -0.017 C 
BRANCH  20  21
ATOM     21  N   UNL     1      32.808 -20.392 -20.255  0.00  0.00    +0.384 N 
ATOM     22  H   UNL     1      32.047 -21.044 -20.067  0.00  0.00    -0.089 HD
ATOM     23  H   UNL     1      32.539 -19.765 -21.014  0.00  0.00    -0.089 HD
ATOM     24  H   UNL     1      33.004 -19.845 -19.416  0.00  0.00    -0.089 HD
ENDBRANCH  20  21
BRANCH  20  25
ATOM     25  C   UNL     1      35.196 -20.154 -20.687  0.00  0.00    +0.008 C 
BRANCH  25  26
ATOM     26  C   UNL     1      35.224 -19.256 -21.900  0.00  0.00    -0.024 C 
ATOM     27  C   UNL     1      35.652 -17.944 -21.764  0.00  0.00    -0.004 C 
ATOM     28  C   UNL     1      34.822 -19.759 -23.128  0.00  0.00    -0.004 C 
ATOM     29  C   UNL     1      35.678 -17.114 -22.884  0.00  0.00    -0.000 C 
ATOM     30  C   UNL     1      34.849 -18.928 -24.248  0.00  0.00    -0.000 C 
ATOM     31  C   UNL     1      35.276 -17.606 -24.127  0.00  0.00    -0.000 C 
ENDBRANCH  25  26
ENDBRANCH  20  25
ENDBRANCH  19  20
ENDBRANCH  18  19
ENDBRANCH   3  18
TORSDOF 7
ENDMDL
MODEL 4
REMARK VINA RESULT:     -11.0      2.945      6.052
REMARK  Name = 11314340
REMARK  7 active torsions:
REMARK  status: ('A' for Active; 'I' for Inactive)
REMARK    1  A    between atoms: C_2  and  C_10
REMARK    2  A    between atoms: C_3  and  O_18
REMARK    3  A    between atoms: O_18  and  C_19
REMARK    4  A    between atoms: C_19  and  C_20
REMARK    5  A    between atoms: C_20  and  N_21
REMARK    6  A    between atoms: C_20  and  C_25
REMARK    7  A    between atoms: C_25  and  C_26
REMARK                            x       y       z     vdW  Elec       q    Type
REMARK                         _______ _______ _______ _____ _____    ______ ____
ROOT
ATOM      1  N   UNL     1      37.594 -19.042 -20.428  0.00  0.00    -0.239 NA
ATOM      2  C   UNL     1      35.918 -18.921 -22.157  0.00  0.00    +0.022 C 
ATOM      3  C   UNL     1      35.956 -20.803 -20.671  0.00  0.00    +0.158 C 
ATOM      4  C   UNL     1      35.383 -20.133 -21.747  0.00  0.00    +0.040 C 
ATOM      5  C   UNL     1      37.011 -18.419 -21.476  0.00  0.00    +0.099 C 
ATOM      6  C   UNL     1      37.050 -20.221 -20.052  0.00  0.00    +0.136 C 
ENDROOT
BRANCH   2  10
ATOM      7  N   UNL     1      33.894 -14.888 -25.801  0.00  0.00    -0.280 N 
ATOM      8  N   UNL     1      33.740 -16.090 -26.390  0.00  0.00    -0.173 NA
ATOM      9  C   UNL     1      34.687 -16.256 -24.331  0.00  0.00    +0.032 A 
ATOM     10  C   UNL     1      35.344 -18.197 -23.277  0.00  0.00    +0.002 C 
ATOM     11  C   UNL     1      34.226 -16.971 -25.497  0.00  0.00    +0.102 A 
ATOM     12  C   UNL     1      35.255 -16.795 -23.184  0.00  0.00    +0.003 C 
ATOM     13  C   UNL     1      34.459 -14.929 -24.560  0.00  0.00    +0.053 A 
ATOM     14  C   UNL     1      34.903 -18.952 -24.410  0.00  0.00    +0.002 C 
ATOM     15  C   UNL     1      34.327 -18.373 -25.563  0.00  0.00    +0.021 C 
ATOM     16  C   UNL     1      34.702 -13.708 -23.773  0.00  0.00    +0.051 C 
ATOM     17  H   UNL     1      33.620 -14.047 -26.233  0.00  0.00    +0.189 HD
ENDBRANCH   2  10
BRANCH   3  18
ATOM     18  O   UNL     1      35.457 -21.989 -20.243  0.00  0.00    -0.476 OA
BRANCH  18  19
ATOM     19  C   UNL     1      35.229 -22.136 -18.841  0.00  0.00    +0.184 C 
BRANCH  19  20
ATOM     20  C   UNL     1      33.737 -22.357 -18.565  0.00  0.00    -0.017 C 
BRANCH  20  21
ATOM     21  N   UNL     1      33.038 -22.450 -19.850  0.00  0.00    +0.384 N 
ATOM     22  H   UNL     1      32.503 -21.597 -20.010  0.00  0.00    -0.089 HD
ATOM     23  H   UNL     1      32.407 -23.252 -19.837  0.00  0.00    -0.089 HD
ATOM     24  H   UNL     1      33.721 -22.569 -20.601  0.00  0.00    -0.089 HD
ENDBRANCH  20  21
BRANCH  20  25
ATOM     25  C   UNL     1      33.450 -23.646 -17.766  0.00  0.00    +0.008 C 
BRANCH  25  26
ATOM     26  C   UNL     1      32.526 -23.463 -16.587  0.00  0.00    -0.024 C 
ATOM     27  C   UNL     1      33.028 -23.602 -15.302  0.00  0.00    -0.004 C 
ATOM     28  C   UNL     1      31.192 -23.158 -16.809  0.00  0.00    -0.004 C 
ATOM     29  C   UNL     1      32.174 -23.433 -14.212  0.00  0.00    -0.000 C 
ATOM     30  C   UNL     1      30.339 -22.989 -15.718  0.00  0.00    -0.000 C 
ATOM     31  C   UNL     1      30.829 -23.126 -14.420  0.00  0.00    -0.000 C 
ENDBRANCH  25  26
ENDBRANCH  20  25
ENDBRANCH  19  20
ENDBRANCH  18  19
ENDBRANCH   3  18
TORSDOF 7
ENDMDL
MODEL 5
REMARK VINA RESULT:     -11.0      1.832      8.492
REMARK  Name = 11314340
REMARK  7 active torsions:
REMARK  status: ('A' for Active; 'I' for Inactive)
REMARK    1  A    between atoms: C_2  and  C_10
REMARK    2  A    between atoms: C_3  and  O_18
REMARK    3  A    between atoms: O_18  and  C_19
REMARK    4  A    between atoms: C_19  and  C_20
REMARK    5  A    between atoms: C_20  and  N_21
REMARK    6  A    between atoms: C_20  and  C_25
REMARK    7  A    between atoms: C_25  and  C_26
REMARK                            x       y       z     vdW  Elec       q    Type
REMARK                         _______ _______ _______ _____ _____    ______ ____
ROOT
ATOM      1  N   UNL     1      34.360 -17.463 -25.869  0.00  0.00    -0.239 NA
ATOM      2  C   UNL     1      35.188 -17.692 -23.616  0.00  0.00    +0.022 C 
ATOM      3  C   UNL     1      34.768 -15.507 -24.510  0.00  0.00    +0.158 C 
ATOM      4  C   UNL     1      35.185 -16.315 -23.458  0.00  0.00    +0.040 C 
ATOM      5  C   UNL     1      34.772 -18.217 -24.825  0.00  0.00    +0.099 C 
ATOM      6  C   UNL     1      34.369 -16.124 -25.684  0.00  0.00    +0.136 C 
ENDROOT
BRANCH   2  10
ATOM      7  N   UNL     1      35.537 -21.591 -19.337  0.00  0.00    -0.280 N 
ATOM      8  N   UNL     1      36.759 -21.044 -19.497  0.00  0.00    -0.173 NA
ATOM      9  C   UNL     1      35.234 -20.183 -20.945  0.00  0.00    +0.032 A 
ATOM     10  C   UNL     1      35.619 -18.563 -22.538  0.00  0.00    +0.002 C 
ATOM     11  C   UNL     1      36.606 -20.157 -20.497  0.00  0.00    +0.102 A 
ATOM     12  C   UNL     1      34.665 -19.419 -21.955  0.00  0.00    +0.003 C 
ATOM     13  C   UNL     1      34.581 -21.109 -20.182  0.00  0.00    +0.053 A 
ATOM     14  C   UNL     1      36.990 -18.500 -22.131  0.00  0.00    +0.002 C 
ATOM     15  C   UNL     1      37.538 -19.292 -21.097  0.00  0.00    +0.021 C 
ATOM     16  C   UNL     1      33.191 -21.595 -20.146  0.00  0.00    +0.051 C 
ATOM     17  H   UNL     1      35.351 -22.284 -18.663  0.00  0.00    +0.189 HD
ENDBRANCH   2  10
BRANCH   3  18
ATOM     18  O   UNL     1      34.751 -14.156 -24.388  0.00  0.00    -0.476 OA
BRANCH  18  19
ATOM     19  C   UNL     1      33.513 -13.547 -24.018  0.00  0.00    +0.184 C 
BRANCH  19  20
ATOM     20  C   UNL     1      33.765 -12.172 -23.387  0.00  0.00    -0.017 C 
BRANCH  20  21
ATOM     21  N   UNL     1      34.517 -11.355 -24.344  0.00  0.00    +0.384 N 
ATOM     22  H   UNL     1      34.539 -11.824 -25.249  0.00  0.00    -0.089 HD
ATOM     23  H   UNL     1      35.470 -11.225 -24.004  0.00  0.00    -0.089 HD
ATOM     24  H   UNL     1      34.064 -10.445 -24.442  0.00  0.00    -0.089 HD
ENDBRANCH  20  21
BRANCH  20  25
ATOM     25  C   UNL     1      32.466 -11.421 -23.026  0.00  0.00    +0.008 C 
BRANCH  25  26
ATOM     26  C   UNL     1      32.189 -11.317 -21.546  0.00  0.00    -0.024 C 
ATOM     27  C   UNL     1      32.195 -12.467 -20.771  0.00  0.00    -0.004 C 
ATOM     28  C   UNL     1      31.935 -10.074 -20.987  0.00  0.00    -0.004 C 
ATOM     29  C   UNL     1      31.940 -12.372 -19.403  0.00  0.00    -0.000 C 
ATOM     30  C   UNL     1      31.680  -9.980 -19.619  0.00  0.00    -0.000 C 
ATOM     31  C   UNL     1      31.681 -11.127 -18.827  0.00  0.00    -0.000 C 
ENDBRANCH  25  26
ENDBRANCH  20  25
ENDBRANCH  19  20
ENDBRANCH  18  19
ENDBRANCH   3  18
TORSDOF 7
ENDMDL
MODEL 6
REMARK VINA RESULT:     -10.8      4.604     11.053
REMARK  Name = 11314340
REMARK  7 active torsions:
REMARK  status: ('A' for Active; 'I' for Inactive)
REMARK    1  A    between atoms: C_2  and  C_10
REMARK    2  A    between atoms: C_3  and  O_18
REMARK    3  A    between atoms: O_18  and  C_19
REMARK    4  A    between atoms: C_19  and  C_20
REMARK    5  A    between atoms: C_20  and  N_21
REMARK    6  A    between atoms: C_20  and  C_25
REMARK    7  A    between atoms: C_25  and  C_26
REMARK                            x       y       z     vdW  Elec       q    Type
REMARK                         _______ _______ _______ _____ _____    ______ ____
ROOT
ATOM      1  N   UNL     1      36.827 -22.276 -17.124  0.00  0.00    -0.239 NA
ATOM      2  C   UNL     1      34.512 -22.951 -17.072  0.00  0.00    +0.022 C 
ATOM      3  C   UNL     1      35.435 -22.031 -19.085  0.00  0.00    +0.158 C 
ATOM      4  C   UNL     1      34.353 -22.564 -18.394  0.00  0.00    +0.040 C 
ATOM      5  C   UNL     1      35.752 -22.790 -16.484  0.00  0.00    +0.099 C 
ATOM      6  C   UNL     1      36.639 -21.908 -18.411  0.00  0.00    +0.136 C 
ENDROOT
BRANCH   2  10
ATOM      7  N   UNL     1      29.295 -24.537 -15.096  0.00  0.00    -0.280 N 
ATOM      8  N   UNL     1      30.224 -25.053 -14.267  0.00  0.00    -0.173 NA
ATOM      9  C   UNL     1      31.152 -23.861 -15.965  0.00  0.00    +0.032 A 
ATOM     10  C   UNL     1      33.402 -23.510 -16.323  0.00  0.00    +0.002 C 
ATOM     11  C   UNL     1      31.400 -24.649 -14.781  0.00  0.00    +0.102 A 
ATOM     12  C   UNL     1      32.096 -23.259 -16.787  0.00  0.00    +0.003 C 
ATOM     13  C   UNL     1      29.798 -23.811 -16.136  0.00  0.00    +0.053 A 
ATOM     14  C   UNL     1      33.700 -24.284 -15.157  0.00  0.00    +0.002 C 
ATOM     15  C   UNL     1      32.715 -24.883 -14.340  0.00  0.00    +0.021 C 
ATOM     16  C   UNL     1      28.926 -23.177 -17.139  0.00  0.00    +0.051 C 
ATOM     17  H   UNL     1      28.329 -24.675 -14.962  0.00  0.00    +0.189 HD
ENDBRANCH   2  10
BRANCH   3  18
ATOM     18  O   UNL     1      35.314 -21.643 -20.379  0.00  0.00    -0.476 OA
BRANCH  18  19
ATOM     19  C   UNL     1      34.507 -20.495 -20.647  0.00  0.00    +0.184 C 
BRANCH  19  20
ATOM     20  C   UNL     1      35.322 -19.435 -21.395  0.00  0.00    -0.017 C 
BRANCH  20  21
ATOM     21  N   UNL     1      36.712 -19.511 -20.936  0.00  0.00    +0.384 N 
ATOM     22  H   UNL     1      37.290 -19.928 -21.666  0.00  0.00    -0.089 HD
ATOM     23  H   UNL     1      36.761 -20.085 -20.094  0.00  0.00    -0.089 HD
ATOM     24  H   UNL     1      37.053 -18.572 -20.727  0.00  0.00    -0.089 HD
ENDBRANCH  20  21
BRANCH  20  25
ATOM     25  C   UNL     1      35.309 -19.626 -22.926  0.00  0.00    +0.008 C 
BRANCH  25  26
ATOM     26  C   UNL     1      35.111 -18.355 -23.717  0.00  0.00    -0.024 C 
ATOM     27  C   UNL     1      34.521 -18.420 -24.971  0.00  0.00    -0.004 C 
ATOM     28  C   UNL     1      35.522 -17.147 -23.177  0.00  0.00    -0.004 C 
ATOM     29  C   UNL     1      34.338 -17.247 -25.702  0.00  0.00    -0.000 C 
ATOM     30  C   UNL     1      35.339 -15.973 -23.910  0.00  0.00    -0.000 C 
ATOM     31  C   UNL     1      34.748 -16.023 -25.171  0.00  0.00    -0.000 C 
ENDBRANCH  25  26
ENDBRANCH  20  25
ENDBRANCH  19  20
ENDBRANCH  18  19
ENDBRANCH   3  18
TORSDOF 7
ENDMDL
MODEL 7
REMARK VINA RESULT:     -10.6      3.977      7.619
REMARK  Name = 11314340
REMARK  7 active torsions:
REMARK  status: ('A' for Active; 'I' for Inactive)
REMARK    1  A    between atoms: C_2  and  C_10
REMARK    2  A    between atoms: C_3  and  O_18
REMARK    3  A    between atoms: O_18  and  C_19
REMARK    4  A    between atoms: C_19  and  C_20
REMARK    5  A    between atoms: C_20  and  N_21
REMARK    6  A    between atoms: C_20  and  C_25
REMARK    7  A    between atoms: C_25  and  C_26
REMARK                            x       y       z     vdW  Elec       q    Type
REMARK                         _______ _______ _______ _____ _____    ______ ____
ROOT
ATOM      1  N   UNL     1      35.526  -9.041 -24.367  0.00  0.00    -0.239 NA
ATOM      2  C   UNL     1      34.238 -11.063 -24.628  0.00  0.00    +0.022 C 
ATOM      3  C   UNL     1      33.275  -9.181 -23.496  0.00  0.00    +0.158 C 
ATOM      4  C   UNL     1      33.168 -10.487 -23.962  0.00  0.00    +0.040 C 
ATOM      5  C   UNL     1      35.384 -10.312 -24.806  0.00  0.00    +0.099 C 
ATOM      6  C   UNL     1      34.465  -8.508 -23.721  0.00  0.00    +0.136 C 
ENDROOT
BRANCH   2  10
ATOM      7  N   UNL     1      34.452 -16.817 -25.325  0.00  0.00    -0.280 N 
ATOM      8  N   UNL     1      33.957 -16.282 -26.459  0.00  0.00    -0.173 NA
ATOM      9  C   UNL     1      34.439 -14.700 -24.901  0.00  0.00    +0.032 A 
ATOM     10  C   UNL     1      34.157 -12.424 -25.127  0.00  0.00    +0.002 C 
ATOM     11  C   UNL     1      33.936 -14.957 -26.229  0.00  0.00    +0.102 A 
ATOM     12  C   UNL     1      34.581 -13.466 -24.280  0.00  0.00    +0.003 C 
ATOM     13  C   UNL     1      34.759 -15.910 -24.353  0.00  0.00    +0.053 A 
ATOM     14  C   UNL     1      33.650 -12.626 -26.450  0.00  0.00    +0.002 C 
ATOM     15  C   UNL     1      33.519 -13.896 -27.054  0.00  0.00    +0.021 C 
ATOM     16  C   UNL     1      35.308 -16.319 -23.050  0.00  0.00    +0.051 C 
ATOM     17  H   UNL     1      34.580 -17.786 -25.207  0.00  0.00    +0.189 HD
ENDBRANCH   2  10
BRANCH   3  18
ATOM     18  O   UNL     1      32.247  -8.587 -22.841  0.00  0.00    -0.476 OA
BRANCH  18  19
ATOM     19  C   UNL     1      32.511  -8.076 -21.533  0.00  0.00    +0.184 C 
BRANCH  19  20
ATOM     20  C   UNL     1      32.369  -9.189 -20.488  0.00  0.00    -0.017 C 
BRANCH  20  21
ATOM     21  N   UNL     1      31.949  -8.583 -19.222  0.00  0.00    +0.384 N 
ATOM     22  H   UNL     1      30.932  -8.513 -19.198  0.00  0.00    -0.089 HD
ATOM     23  H   UNL     1      32.356  -7.651 -19.139  0.00  0.00    -0.089 HD
ATOM     24  H   UNL     1      32.269  -9.163 -18.445  0.00  0.00    -0.089 HD
ENDBRANCH  20  21
BRANCH  20  25
ATOM     25  C   UNL     1      31.328 -10.260 -20.879  0.00  0.00    +0.008 C 
BRANCH  25  26
ATOM     26  C   UNL     1      31.791 -11.684 -20.691  0.00  0.00    -0.024 C 
ATOM     27  C   UNL     1      32.113 -12.447 -21.804  0.00  0.00    -0.004 C 
ATOM     28  C   UNL     1      31.886 -12.206 -19.411  0.00  0.00    -0.004 C 
ATOM     29  C   UNL     1      32.540 -13.762 -21.632  0.00  0.00    -0.000 C 
ATOM     30  C   UNL     1      32.313 -13.523 -19.239  0.00  0.00    -0.000 C 
ATOM     31  C   UNL     1      32.640 -14.301 -20.348  0.00  0.00    -0.000 C 
ENDBRANCH  25  26
ENDBRANCH  20  25
ENDBRANCH  19  20
ENDBRANCH  18  19
ENDBRANCH   3  18
TORSDOF 7
ENDMDL
MODEL 8
REMARK VINA RESULT:     -10.6      2.027      9.266
REMARK  Name = 11314340
REMARK  7 active torsions:
REMARK  status: ('A' for Active; 'I' for Inactive)
REMARK    1  A    between atoms: C_2  and  C_10
REMARK    2  A    between atoms: C_3  and  O_18
REMARK    3  A    between atoms: O_18  and  C_19
REMARK    4  A    between atoms: C_19  and  C_20
REMARK    5  A    between atoms: C_20  and  N_21
REMARK    6  A    between atoms: C_20  and  C_25
REMARK    7  A    between atoms: C_25  and  C_26
REMARK                            x       y       z     vdW  Elec       q    Type
REMARK                         _______ _______ _______ _____ _____    ______ ____
ROOT
ATOM      1  N   UNL     1      34.045 -18.148 -25.867  0.00  0.00    -0.239 NA
ATOM      2  C   UNL     1      35.107 -18.125 -23.702  0.00  0.00    +0.022 C 
ATOM      3  C   UNL     1      34.780 -16.065 -24.885  0.00  0.00    +0.158 C 
ATOM      4  C   UNL     1      35.245 -16.747 -23.766  0.00  0.00    +0.040 C 
ATOM      5  C   UNL     1      34.508 -18.777 -24.763  0.00  0.00    +0.099 C 
ATOM      6  C   UNL     1      34.194 -16.805 -25.899  0.00  0.00    +0.136 C 
ENDROOT
BRANCH   2  10
ATOM      7  N   UNL     1      35.675 -21.624 -19.111  0.00  0.00    -0.280 N 
ATOM      8  N   UNL     1      36.850 -20.988 -19.293  0.00  0.00    -0.173 NA
ATOM      9  C   UNL     1      35.295 -20.380 -20.835  0.00  0.00    +0.032 A 
ATOM     10  C   UNL     1      35.582 -18.866 -22.548  0.00  0.00    +0.002 C 
ATOM     11  C   UNL     1      36.648 -20.200 -20.365  0.00  0.00    +0.102 A 
ATOM     12  C   UNL     1      34.689 -19.752 -21.915  0.00  0.00    +0.003 C 
ATOM     13  C   UNL     1      34.703 -21.295 -20.011  0.00  0.00    +0.053 A 
ATOM     14  C   UNL     1      36.932 -18.653 -22.122  0.00  0.00    +0.002 C 
ATOM     15  C   UNL     1      37.519 -19.309 -21.017  0.00  0.00    +0.021 C 
ATOM     16  C   UNL     1      33.360 -21.895 -19.961  0.00  0.00    +0.051 C 
ATOM     17  H   UNL     1      35.531 -22.274 -18.386  0.00  0.00    +0.189 HD
ENDBRANCH   2  10
BRANCH   3  18
ATOM     18  O   UNL     1      34.898 -14.717 -24.980  0.00  0.00    -0.476 OA
BRANCH  18  19
ATOM     19  C   UNL     1      33.695 -13.948 -24.914  0.00  0.00    +0.184 C 
BRANCH  19  20
ATOM     20  C   UNL     1      33.884 -12.745 -23.982  0.00  0.00    -0.017 C 
BRANCH  20  21
ATOM     21  N   UNL     1      34.791 -13.137 -22.899  0.00  0.00    +0.384 N 
ATOM     22  H   UNL     1      34.316 -13.790 -22.276  0.00  0.00    -0.089 HD
ATOM     23  H   UNL     1      35.072 -12.308 -22.374  0.00  0.00    -0.089 HD
ATOM     24  H   UNL     1      35.619 -13.585 -23.294  0.00  0.00    -0.089 HD
ENDBRANCH  20  21
BRANCH  20  25
ATOM     25  C   UNL     1      34.485 -11.514 -24.692  0.00  0.00    +0.008 C 
BRANCH  25  26
ATOM     26  C   UNL     1      34.098 -10.187 -24.086  0.00  0.00    -0.024 C 
ATOM     27  C   UNL     1      34.967  -9.111 -24.194  0.00  0.00    -0.004 C 
ATOM     28  C   UNL     1      32.882 -10.066 -23.432  0.00  0.00    -0.004 C 
ATOM     29  C   UNL     1      34.610  -7.885 -23.635  0.00  0.00    -0.000 C 
ATOM     30  C   UNL     1      32.526  -8.839 -22.872  0.00  0.00    -0.000 C 
ATOM     31  C   UNL     1      33.389  -7.749 -22.973  0.00  0.00    -0.000 C 
ENDBRANCH  25  26
ENDBRANCH  20  25
ENDBRANCH  19  20
ENDBRANCH  18  19
ENDBRANCH   3  18
TORSDOF 7
ENDMDL
MODEL 9
REMARK VINA RESULT:     -10.6      3.484     10.529
REMARK  Name = 11314340
REMARK  7 active torsions:
REMARK  status: ('A' for Active; 'I' for Inactive)
REMARK    1  A    between atoms: C_2  and  C_10
REMARK    2  A    between atoms: C_3  and  O_18
REMARK    3  A    between atoms: O_18  and  C_19
REMARK    4  A    between atoms: C_19  and  C_20
REMARK    5  A    between atoms: C_20  and  N_21
REMARK    6  A    between atoms: C_20  and  C_25
REMARK    7  A    between atoms: C_25  and  C_26
REMARK                            x       y       z     vdW  Elec       q    Type
REMARK                         _______ _______ _______ _____ _____    ______ ____
ROOT
ATOM      1  N   UNL     1      31.798 -12.086 -20.736  0.00  0.00    -0.239 NA
ATOM      2  C   UNL     1      32.891 -12.741 -22.784  0.00  0.00    +0.022 C 
ATOM      3  C   UNL     1      32.355 -10.433 -22.409  0.00  0.00    +0.158 C 
ATOM      4  C   UNL     1      32.899 -11.424 -23.219  0.00  0.00    +0.040 C 
ATOM      5  C   UNL     1      32.337 -13.023 -21.550  0.00  0.00    +0.099 C 
ATOM      6  C   UNL     1      31.821 -10.813 -21.189  0.00  0.00    +0.136 C 
ENDROOT
BRANCH   2  10
ATOM      7  N   UNL     1      35.598 -17.456 -24.802  0.00  0.00    -0.280 N 
ATOM      8  N   UNL     1      35.056 -16.810 -25.854  0.00  0.00    -0.173 NA
ATOM      9  C   UNL     1      34.643 -15.751 -23.886  0.00  0.00    +0.032 A 
ATOM     10  C   UNL     1      33.451 -13.798 -23.605  0.00  0.00    +0.002 C 
ATOM     11  C   UNL     1      34.449 -15.736 -25.317  0.00  0.00    +0.102 A 
ATOM     12  C   UNL     1      34.177 -14.821 -22.966  0.00  0.00    +0.003 C 
ATOM     13  C   UNL     1      35.380 -16.862 -23.593  0.00  0.00    +0.053 A 
ATOM     14  C   UNL     1      33.231 -13.739 -25.018  0.00  0.00    +0.002 C 
ATOM     15  C   UNL     1      33.719 -14.702 -25.929  0.00  0.00    +0.021 C 
ATOM     16  C   UNL     1      35.899 -17.433 -22.339  0.00  0.00    +0.051 C 
ATOM     17  H   UNL     1      36.111 -18.291 -24.899  0.00  0.00    +0.189 HD
ENDBRANCH   2  10
BRANCH   3  18
ATOM     18  O   UNL     1      32.348  -9.136 -22.804  0.00  0.00    -0.476 OA
BRANCH  18  19
ATOM     19  C   UNL     1      31.900  -8.165 -21.856  0.00  0.00    +0.184 C 
BRANCH  19  20
ATOM     20  C   UNL     1      33.001  -7.131 -21.595  0.00  0.00    -0.017 C 
BRANCH  20  21
ATOM     21  N   UNL     1      33.624  -7.435 -20.303  0.00  0.00    +0.384 N 
ATOM     22  H   UNL     1      32.927  -7.361 -19.563  0.00  0.00    -0.089 HD
ATOM     23  H   UNL     1      34.380  -6.773 -20.126  0.00  0.00    -0.089 HD
ATOM     24  H   UNL     1      34.001  -8.383 -20.322  0.00  0.00    -0.089 HD
ENDBRANCH  20  21
BRANCH  20  25
ATOM     25  C   UNL     1      34.105  -7.131 -22.674  0.00  0.00    +0.008 C 
BRANCH  25  26
ATOM     26  C   UNL     1      33.875  -6.162 -23.809  0.00  0.00    -0.024 C 
ATOM     27  C   UNL     1      34.743  -6.165 -24.891  0.00  0.00    -0.004 C 
ATOM     28  C   UNL     1      32.801  -5.287 -23.750  0.00  0.00    -0.004 C 
ATOM     29  C   UNL     1      34.531  -5.270 -25.939  0.00  0.00    -0.000 C 
ATOM     30  C   UNL     1      32.591  -4.393 -24.799  0.00  0.00    -0.000 C 
ATOM     31  C   UNL     1      33.455  -4.383 -25.893  0.00  0.00    -0.000 C 
ENDBRANCH  25  26
ENDBRANCH  20  25
ENDBRANCH  19  20
ENDBRANCH  18  19
ENDBRANCH   3  18
TORSDOF 7
ENDMDL
