MODEL 1
REMARK VINA RESULT:     -11.9      0.000      0.000
REMARK  Name = 56842109
REMARK  7 active torsions:
REMARK  status: ('A' for Active; 'I' for Inactive)
REMARK    1  A    between atoms: C_1  and  C_24
REMARK    2  A    between atoms: C_3  and  C_9
REMARK    3  A    between atoms: C_5  and  O_22
REMARK    4  A    between atoms: N_8  and  C_11
REMARK    5  A    between atoms: C_11  and  C_12
REMARK    6  A    between atoms: C_15  and  C_21
REMARK    7  A    between atoms: C_24  and  C_29
REMARK                            x       y       z     vdW  Elec       q    Type
REMARK                         _______ _______ _______ _____ _____    ______ ____
ROOT
ATOM      1  C   UNL     1      35.841 -23.779 -14.240  0.00  0.00    -0.018 C 
ATOM      2  C   UNL     1      35.180 -23.422 -15.416  0.00  0.00    +0.003 C 
ATOM      3  C   UNL     1      33.790 -23.519 -15.492  0.00  0.00    +0.087 C 
ATOM      4  C   UNL     1      35.112 -24.232 -13.141  0.00  0.00    -0.001 C 
ATOM      5  C   UNL     1      33.061 -23.973 -14.393  0.00  0.00    +0.143 C 
ATOM      6  C   UNL     1      33.722 -24.330 -13.217  0.00  0.00    +0.037 C 
ENDROOT
BRANCH   3   9
ATOM      7  O   UNL     1      31.919 -22.821 -16.720  0.00  0.00    -0.270 OA
ATOM      8  N   UNL     1      33.894 -23.134 -17.893  0.00  0.00    -0.297 N 
ATOM      9  C   UNL     1      33.120 -23.140 -16.728  0.00  0.00    +0.249 C 
ATOM     10  H   UNL     1      34.840 -23.399 -17.826  0.00  0.00    +0.150 HD
BRANCH   8  11
ATOM     11  C   UNL     1      33.380 -22.759 -19.190  0.00  0.00    +0.117 C 
BRANCH  11  12
ATOM     12  C   UNL     1      34.229 -21.712 -19.851  0.00  0.00    -0.003 C 
ATOM     13  C   UNL     1      35.614 -21.733 -19.687  0.00  0.00    -0.003 C 
ATOM     14  C   UNL     1      33.634 -20.718 -20.628  0.00  0.00    -0.003 C 
ATOM     15  C   UNL     1      35.809 -19.768 -21.078  0.00  0.00    +0.071 C 
ATOM     16  C   UNL     1      36.405 -20.762 -20.301  0.00  0.00    +0.004 C 
ATOM     17  C   UNL     1      34.424 -19.746 -21.241  0.00  0.00    +0.004 C 
BRANCH  15  21
ATOM     18  F   UNL     1      37.893 -18.627 -21.172  0.00  0.00    -0.166 F 
ATOM     19  F   UNL     1      36.875 -18.966 -23.064  0.00  0.00    -0.166 F 
ATOM     20  F   UNL     1      36.121 -17.475 -21.682  0.00  0.00    -0.166 F 
ATOM     21  C   UNL     1      36.654 -18.731 -21.736  0.00  0.00    +0.419 C 
ENDBRANCH  15  21
ENDBRANCH  11  12
ENDBRANCH   8  11
ENDBRANCH   3   9
BRANCH   5  22
ATOM     22  O   UNL     1      31.703 -24.072 -14.446  0.00  0.00    -0.471 OA
ATOM     23  C   UNL     1      31.143 -25.376 -14.302  0.00  0.00    +0.252 C 
ENDBRANCH   5  22
BRANCH   1  24
ATOM     24  C   UNL     1      37.343 -23.673 -14.158  0.00  0.00    +0.080 C 
BRANCH  24  29
ATOM     25  O   UNL     1      39.405 -24.837 -13.685  0.00  0.00    -0.428 OA
ATOM     26  O   UNL     1      36.921 -26.309 -15.649  0.00  0.00    -0.271 OA
ATOM     27  O   UNL     1      41.326 -25.574 -14.683  0.00  0.00    -0.226 OA
ATOM     28  N   UNL     1      39.231 -26.175 -15.449  0.00  0.00    -0.218 N 
ATOM     29  C   UNL     1      37.995 -25.015 -13.898  0.00  0.00    +0.250 C 
ATOM     30  C   UNL     1      37.939 -25.913 -15.102  0.00  0.00    +0.271 C 
ATOM     31  C   UNL     1      40.105 -25.542 -14.625  0.00  0.00    +0.408 C 
ATOM     32  H   UNL     1      39.497 -26.751 -16.202  0.00  0.00    +0.161 HD
ENDBRANCH  24  29
ENDBRANCH   1  24
TORSDOF 7
ENDMDL
MODEL 2
REMARK VINA RESULT:     -11.7      2.205      2.719
REMARK  Name = 56842109
REMARK  7 active torsions:
REMARK  status: ('A' for Active; 'I' for Inactive)
REMARK    1  A    between atoms: C_1  and  C_24
REMARK    2  A    between atoms: C_3  and  C_9
REMARK    3  A    between atoms: C_5  and  O_22
REMARK    4  A    between atoms: N_8  and  C_11
REMARK    5  A    between atoms: C_11  and  C_12
REMARK    6  A    between atoms: C_15  and  C_21
REMARK    7  A    between atoms: C_24  and  C_29
REMARK                            x       y       z     vdW  Elec       q    Type
REMARK                         _______ _______ _______ _____ _____    ______ ____
ROOT
ATOM      1  C   UNL     1      34.221 -24.176 -14.449  0.00  0.00    -0.018 C 
ATOM      2  C   UNL     1      34.314 -24.054 -15.835  0.00  0.00    +0.003 C 
ATOM      3  C   UNL     1      33.217 -23.604 -16.570  0.00  0.00    +0.087 C 
ATOM      4  C   UNL     1      33.033 -23.847 -13.798  0.00  0.00    -0.001 C 
ATOM      5  C   UNL     1      32.029 -23.275 -15.920  0.00  0.00    +0.143 C 
ATOM      6  C   UNL     1      31.936 -23.397 -14.533  0.00  0.00    +0.037 C 
ENDROOT
BRANCH   3   9
ATOM      7  O   UNL     1      33.849 -24.395 -18.685  0.00  0.00    -0.270 OA
ATOM      8  N   UNL     1      32.829 -22.315 -18.599  0.00  0.00    -0.297 N 
ATOM      9  C   UNL     1      33.336 -23.482 -18.017  0.00  0.00    +0.249 C 
ATOM     10  H   UNL     1      32.436 -21.632 -18.008  0.00  0.00    +0.150 HD
BRANCH   8  11
ATOM     11  C   UNL     1      32.852 -22.058 -20.021  0.00  0.00    +0.117 C 
BRANCH  11  12
ATOM     12  C   UNL     1      34.003 -21.178 -20.414  0.00  0.00    -0.003 C 
ATOM     13  C   UNL     1      33.796 -20.107 -21.284  0.00  0.00    -0.003 C 
ATOM     14  C   UNL     1      35.279 -21.430 -19.910  0.00  0.00    -0.003 C 
ATOM     15  C   UNL     1      36.139 -19.541 -21.146  0.00  0.00    +0.071 C 
ATOM     16  C   UNL     1      34.864 -19.289 -21.651  0.00  0.00    +0.004 C 
ATOM     17  C   UNL     1      36.347 -20.612 -20.276  0.00  0.00    +0.004 C 
BRANCH  15  21
ATOM     18  F   UNL     1      38.171 -18.477 -20.516  0.00  0.00    -0.166 F 
ATOM     19  F   UNL     1      38.017 -19.154 -22.577  0.00  0.00    -0.166 F 
ATOM     20  F   UNL     1      36.902 -17.412 -21.925  0.00  0.00    -0.166 F 
ATOM     21  C   UNL     1      37.281 -18.664 -21.535  0.00  0.00    +0.419 C 
ENDBRANCH  15  21
ENDBRANCH  11  12
ENDBRANCH   8  11
ENDBRANCH   3   9
BRANCH   5  22
ATOM     22  O   UNL     1      30.947 -22.830 -16.620  0.00  0.00    -0.471 OA
ATOM     23  C   UNL     1      29.719 -23.529 -16.428  0.00  0.00    +0.252 C 
ENDBRANCH   5  22
BRANCH   1  24
ATOM     24  C   UNL     1      35.408 -24.663 -13.654  0.00  0.00    +0.080 C 
BRANCH  24  29
ATOM     25  O   UNL     1      36.849 -22.951 -12.746  0.00  0.00    -0.428 OA
ATOM     26  O   UNL     1      35.455 -25.404 -10.688  0.00  0.00    -0.271 OA
ATOM     27  O   UNL     1      38.916 -22.645 -11.818  0.00  0.00    -0.226 OA
ATOM     28  N   UNL     1      37.388 -24.145 -10.952  0.00  0.00    -0.218 N 
ATOM     29  C   UNL     1      35.701 -23.771 -12.466  0.00  0.00    +0.250 C 
ATOM     30  C   UNL     1      36.125 -24.558 -11.259  0.00  0.00    +0.271 C 
ATOM     31  C   UNL     1      37.827 -23.202 -11.824  0.00  0.00    +0.408 C 
ATOM     32  H   UNL     1      37.915 -24.487 -10.194  0.00  0.00    +0.161 HD
ENDBRANCH  24  29
ENDBRANCH   1  24
TORSDOF 7
ENDMDL
MODEL 3
REMARK VINA RESULT:     -11.3      5.429      9.445
REMARK  Name = 56842109
REMARK  7 active torsions:
REMARK  status: ('A' for Active; 'I' for Inactive)
REMARK    1  A    between atoms: C_1  and  C_24
REMARK    2  A    between atoms: C_3  and  C_9
REMARK    3  A    between atoms: C_5  and  O_22
REMARK    4  A    between atoms: N_8  and  C_11
REMARK    5  A    between atoms: C_11  and  C_12
REMARK    6  A    between atoms: C_15  and  C_21
REMARK    7  A    between atoms: C_24  and  C_29
REMARK                            x       y       z     vdW  Elec       q    Type
REMARK                         _______ _______ _______ _____ _____    ______ ____
ROOT
ATOM      1  C   UNL     1      35.110 -20.076 -21.213  0.00  0.00    -0.018 C 
ATOM      2  C   UNL     1      34.413 -21.079 -20.539  0.00  0.00    +0.003 C 
ATOM      3  C   UNL     1      35.051 -21.828 -19.550  0.00  0.00    +0.087 C 
ATOM      4  C   UNL     1      36.444 -19.822 -20.898  0.00  0.00    -0.001 C 
ATOM      5  C   UNL     1      36.386 -21.575 -19.235  0.00  0.00    +0.143 C 
ATOM      6  C   UNL     1      37.083 -20.572 -19.909  0.00  0.00    +0.037 C 
ENDROOT
BRANCH   3   9
ATOM      7  O   UNL     1      33.888 -23.863 -19.477  0.00  0.00    -0.270 OA
ATOM      8  N   UNL     1      34.108 -22.701 -17.482  0.00  0.00    -0.297 N 
ATOM      9  C   UNL     1      34.304 -22.870 -18.857  0.00  0.00    +0.249 C 
ATOM     10  H   UNL     1      34.465 -21.888 -17.057  0.00  0.00    +0.150 HD
BRANCH   8  11
ATOM     11  C   UNL     1      33.408 -23.656 -16.654  0.00  0.00    +0.117 C 
BRANCH  11  12
ATOM     12  C   UNL     1      34.187 -24.007 -15.420  0.00  0.00    -0.003 C 
ATOM     13  C   UNL     1      35.560 -24.242 -15.506  0.00  0.00    -0.003 C 
ATOM     14  C   UNL     1      33.540 -24.098 -14.188  0.00  0.00    -0.003 C 
ATOM     15  C   UNL     1      35.637 -24.659 -13.128  0.00  0.00    +0.071 C 
ATOM     16  C   UNL     1      36.285 -24.569 -14.360  0.00  0.00    +0.004 C 
ATOM     17  C   UNL     1      34.265 -24.424 -13.042  0.00  0.00    +0.004 C 
BRANCH  15  21
ATOM     18  F   UNL     1      37.079 -26.190 -12.019  0.00  0.00    -0.166 F 
ATOM     19  F   UNL     1      37.366 -24.080 -11.578  0.00  0.00    -0.166 F 
ATOM     20  F   UNL     1      35.641 -25.127 -10.782  0.00  0.00    -0.166 F 
ATOM     21  C   UNL     1      36.413 -25.005 -11.902  0.00  0.00    +0.419 C 
ENDBRANCH  15  21
ENDBRANCH  11  12
ENDBRANCH   8  11
ENDBRANCH   3   9
BRANCH   5  22
ATOM     22  O   UNL     1      37.026 -22.294 -18.271  0.00  0.00    -0.471 OA
ATOM     23  C   UNL     1      37.540 -21.568 -17.156  0.00  0.00    +0.252 C 
ENDBRANCH   5  22
BRANCH   1  24
ATOM     24  C   UNL     1      34.419 -19.265 -22.281  0.00  0.00    +0.080 C 
BRANCH  24  29
ATOM     25  O   UNL     1      35.685 -17.264 -22.755  0.00  0.00    -0.428 OA
ATOM     26  O   UNL     1      34.426 -19.247 -25.338  0.00  0.00    -0.271 OA
ATOM     27  O   UNL     1      35.461 -15.151 -23.600  0.00  0.00    -0.226 OA
ATOM     28  N   UNL     1      34.834 -17.027 -24.793  0.00  0.00    -0.218 N 
ATOM     29  C   UNL     1      35.405 -18.596 -23.215  0.00  0.00    +0.250 C 
ATOM     30  C   UNL     1      34.826 -18.374 -24.584  0.00  0.00    +0.271 C 
ATOM     31  C   UNL     1      35.333 -16.361 -23.720  0.00  0.00    +0.408 C 
ATOM     32  H   UNL     1      34.518 -16.592 -25.618  0.00  0.00    +0.161 HD
ENDBRANCH  24  29
ENDBRANCH   1  24
TORSDOF 7
ENDMDL
MODEL 4
REMARK VINA RESULT:     -11.2      5.476      9.785
REMARK  Name = 56842109
REMARK  7 active torsions:
REMARK  status: ('A' for Active; 'I' for Inactive)
REMARK    1  A    between atoms: C_1  and  C_24
REMARK    2  A    between atoms: C_3  and  C_9
REMARK    3  A    between atoms: C_5  and  O_22
REMARK    4  A    between atoms: N_8  and  C_11
REMARK    5  A    between atoms: C_11  and  C_12
REMARK    6  A    between atoms: C_15  and  C_21
REMARK    7  A    between atoms: C_24  and  C_29
REMARK                            x       y       z     vdW  Elec       q    Type
REMARK                         _______ _______ _______ _____ _____    ______ ____
ROOT
ATOM      1  C   UNL     1      35.401 -19.164 -22.561  0.00  0.00    -0.018 C 
ATOM      2  C   UNL     1      34.478 -19.864 -21.784  0.00  0.00    +0.003 C 
ATOM      3  C   UNL     1      34.897 -20.523 -20.627  0.00  0.00    +0.087 C 
ATOM      4  C   UNL     1      36.742 -19.122 -22.181  0.00  0.00    -0.001 C 
ATOM      5  C   UNL     1      36.237 -20.481 -20.247  0.00  0.00    +0.143 C 
ATOM      6  C   UNL     1      37.161 -19.780 -21.024  0.00  0.00    +0.037 C 
ENDROOT
BRANCH   3   9
ATOM      7  O   UNL     1      32.714 -20.934 -19.876  0.00  0.00    -0.270 OA
ATOM      8  N   UNL     1      34.391 -22.303 -19.045  0.00  0.00    -0.297 N 
ATOM      9  C   UNL     1      33.916 -21.247 -19.829  0.00  0.00    +0.249 C 
ATOM     10  H   UNL     1      35.357 -22.494 -19.057  0.00  0.00    +0.150 HD
BRANCH   8  11
ATOM     11  C   UNL     1      33.541 -23.128 -18.219  0.00  0.00    +0.117 C 
BRANCH  11  12
ATOM     12  C   UNL     1      34.123 -23.345 -16.853  0.00  0.00    -0.003 C 
ATOM     13  C   UNL     1      33.325 -23.851 -15.827  0.00  0.00    -0.003 C 
ATOM     14  C   UNL     1      35.463 -23.042 -16.608  0.00  0.00    -0.003 C 
ATOM     15  C   UNL     1      35.204 -23.750 -14.313  0.00  0.00    +0.071 C 
ATOM     16  C   UNL     1      33.865 -24.053 -14.557  0.00  0.00    +0.004 C 
ATOM     17  C   UNL     1      36.003 -23.244 -15.339  0.00  0.00    +0.004 C 
BRANCH  15  21
ATOM     18  F   UNL     1      36.805 -23.107 -12.676  0.00  0.00    -0.166 F 
ATOM     19  F   UNL     1      34.880 -23.807 -11.943  0.00  0.00    -0.166 F 
ATOM     20  F   UNL     1      36.299 -25.220 -12.777  0.00  0.00    -0.166 F 
ATOM     21  C   UNL     1      35.783 -23.969 -12.957  0.00  0.00    +0.419 C 
ENDBRANCH  15  21
ENDBRANCH  11  12
ENDBRANCH   8  11
ENDBRANCH   3   9
BRANCH   5  22
ATOM     22  O   UNL     1      36.665 -21.115 -19.119  0.00  0.00    -0.471 OA
ATOM     23  C   UNL     1      37.583 -20.407 -18.288  0.00  0.00    +0.252 C 
ENDBRANCH   5  22
BRANCH   1  24
ATOM     24  C   UNL     1      34.947 -18.452 -23.811  0.00  0.00    +0.080 C 
BRANCH  24  29
ATOM     25  O   UNL     1      35.348 -16.298 -22.795  0.00  0.00    -0.428 OA
ATOM     26  O   UNL     1      34.956 -16.609 -26.250  0.00  0.00    -0.271 OA
ATOM     27  O   UNL     1      34.332 -14.296 -22.361  0.00  0.00    -0.226 OA
ATOM     28  N   UNL     1      34.478 -15.165 -24.496  0.00  0.00    -0.218 N 
ATOM     29  C   UNL     1      35.604 -17.096 -23.962  0.00  0.00    +0.250 C 
ATOM     30  C   UNL     1      34.988 -16.291 -25.072  0.00  0.00    +0.271 C 
ATOM     31  C   UNL     1      34.679 -15.160 -23.153  0.00  0.00    +0.408 C 
ATOM     32  H   UNL     1      34.022 -14.447 -24.991  0.00  0.00    +0.161 HD
ENDBRANCH  24  29
ENDBRANCH   1  24
TORSDOF 7
ENDMDL
MODEL 5
REMARK VINA RESULT:     -11.2      2.353      5.827
REMARK  Name = 56842109
REMARK  7 active torsions:
REMARK  status: ('A' for Active; 'I' for Inactive)
REMARK    1  A    between atoms: C_1  and  C_24
REMARK    2  A    between atoms: C_3  and  C_9
REMARK    3  A    between atoms: C_5  and  O_22
REMARK    4  A    between atoms: N_8  and  C_11
REMARK    5  A    between atoms: C_11  and  C_12
REMARK    6  A    between atoms: C_15  and  C_21
REMARK    7  A    between atoms: C_24  and  C_29
REMARK                            x       y       z     vdW  Elec       q    Type
REMARK                         _______ _______ _______ _____ _____    ______ ____
ROOT
ATOM      1  C   UNL     1      32.370 -23.272 -14.808  0.00  0.00    -0.018 C 
ATOM      2  C   UNL     1      33.496 -23.128 -15.619  0.00  0.00    +0.003 C 
ATOM      3  C   UNL     1      34.732 -23.612 -15.188  0.00  0.00    +0.087 C 
ATOM      4  C   UNL     1      32.479 -23.900 -13.568  0.00  0.00    -0.001 C 
ATOM      5  C   UNL     1      34.841 -24.240 -13.948  0.00  0.00    +0.143 C 
ATOM      6  C   UNL     1      33.715 -24.384 -13.137  0.00  0.00    +0.037 C 
ENDROOT
BRANCH   3   9
ATOM      7  O   UNL     1      36.803 -24.301 -16.044  0.00  0.00    -0.270 OA
ATOM      8  N   UNL     1      35.918 -22.329 -16.882  0.00  0.00    -0.297 N 
ATOM      9  C   UNL     1      35.895 -23.453 -16.050  0.00  0.00    +0.249 C 
ATOM     10  H   UNL     1      35.164 -21.697 -16.834  0.00  0.00    +0.150 HD
BRANCH   8  11
ATOM     11  C   UNL     1      36.990 -22.045 -17.809  0.00  0.00    +0.117 C 
BRANCH  11  12
ATOM     12  C   UNL     1      36.497 -21.345 -19.042  0.00  0.00    -0.003 C 
ATOM     13  C   UNL     1      35.195 -21.563 -19.493  0.00  0.00    -0.003 C 
ATOM     14  C   UNL     1      37.339 -20.477 -19.736  0.00  0.00    -0.003 C 
ATOM     15  C   UNL     1      35.578 -20.046 -21.332  0.00  0.00    +0.071 C 
ATOM     16  C   UNL     1      34.735 -20.914 -20.639  0.00  0.00    +0.004 C 
ATOM     17  C   UNL     1      36.880 -19.828 -20.882  0.00  0.00    +0.004 C 
BRANCH  15  21
ATOM     18  F   UNL     1      33.806 -19.694 -22.878  0.00  0.00    -0.166 F 
ATOM     19  F   UNL     1      35.081 -17.986 -22.445  0.00  0.00    -0.166 F 
ATOM     20  F   UNL     1      35.829 -19.611 -23.671  0.00  0.00    -0.166 F 
ATOM     21  C   UNL     1      35.086 -19.348 -22.556  0.00  0.00    +0.419 C 
ENDBRANCH  15  21
ENDBRANCH  11  12
ENDBRANCH   8  11
ENDBRANCH   3   9
BRANCH   5  22
ATOM     22  O   UNL     1      36.039 -24.722 -13.510  0.00  0.00    -0.471 OA
ATOM     23  C   UNL     1      36.133 -25.063 -12.129  0.00  0.00    +0.252 C 
ENDBRANCH   5  22
BRANCH   1  24
ATOM     24  C   UNL     1      31.034 -22.750 -15.275  0.00  0.00    +0.080 C 
BRANCH  24  29
ATOM     25  O   UNL     1      29.608 -22.650 -17.222  0.00  0.00    -0.428 OA
ATOM     26  O   UNL     1      30.104 -25.653 -15.511  0.00  0.00    -0.271 OA
ATOM     27  O   UNL     1      27.416 -22.799 -17.856  0.00  0.00    -0.226 OA
ATOM     28  N   UNL     1      28.472 -24.477 -16.669  0.00  0.00    -0.218 N 
ATOM     29  C   UNL     1      30.535 -23.481 -16.504  0.00  0.00    +0.250 C 
ATOM     30  C   UNL     1      29.714 -24.688 -16.149  0.00  0.00    +0.271 C 
ATOM     31  C   UNL     1      28.395 -23.276 -17.299  0.00  0.00    +0.408 C 
ATOM     32  H   UNL     1      27.724 -25.114 -16.597  0.00  0.00    +0.161 HD
ENDBRANCH  24  29
ENDBRANCH   1  24
TORSDOF 7
ENDMDL
MODEL 6
REMARK VINA RESULT:     -11.1      6.222     10.856
REMARK  Name = 56842109
REMARK  7 active torsions:
REMARK  status: ('A' for Active; 'I' for Inactive)
REMARK    1  A    between atoms: C_1  and  C_24
REMARK    2  A    between atoms: C_3  and  C_9
REMARK    3  A    between atoms: C_5  and  O_22
REMARK    4  A    between atoms: N_8  and  C_11
REMARK    5  A    between atoms: C_11  and  C_12
REMARK    6  A    between atoms: C_15  and  C_21
REMARK    7  A    between atoms: C_24  and  C_29
REMARK                            x       y       z     vdW  Elec       q    Type
REMARK                         _______ _______ _______ _____ _____    ______ ____
ROOT
ATOM      1  C   UNL     1      35.016 -15.731 -22.456  0.00  0.00    -0.018 C 
ATOM      2  C   UNL     1      35.558 -16.726 -21.642  0.00  0.00    +0.003 C 
ATOM      3  C   UNL     1      35.899 -17.964 -22.187  0.00  0.00    +0.087 C 
ATOM      4  C   UNL     1      34.815 -15.975 -23.814  0.00  0.00    -0.001 C 
ATOM      5  C   UNL     1      35.698 -18.208 -23.545  0.00  0.00    +0.143 C 
ATOM      6  C   UNL     1      35.156 -17.213 -24.359  0.00  0.00    +0.037 C 
ENDROOT
BRANCH   3   9
ATOM      7  O   UNL     1      37.527 -18.777 -20.709  0.00  0.00    -0.270 OA
ATOM      8  N   UNL     1      35.749 -20.184 -21.198  0.00  0.00    -0.297 N 
ATOM      9  C   UNL     1      36.465 -18.988 -21.319  0.00  0.00    +0.249 C 
ATOM     10  H   UNL     1      34.915 -20.282 -21.712  0.00  0.00    +0.150 HD
BRANCH   8  11
ATOM     11  C   UNL     1      36.169 -21.283 -20.359  0.00  0.00    +0.117 C 
BRANCH  11  12
ATOM     12  C   UNL     1      35.071 -21.745 -19.447  0.00  0.00    -0.003 C 
ATOM     13  C   UNL     1      35.380 -22.469 -18.295  0.00  0.00    -0.003 C 
ATOM     14  C   UNL     1      33.741 -21.452 -19.749  0.00  0.00    -0.003 C 
ATOM     15  C   UNL     1      33.031 -22.605 -17.749  0.00  0.00    +0.071 C 
ATOM     16  C   UNL     1      34.360 -22.899 -17.445  0.00  0.00    +0.004 C 
ATOM     17  C   UNL     1      32.722 -21.882 -18.901  0.00  0.00    +0.004 C 
BRANCH  15  21
ATOM     18  F   UNL     1      32.024 -22.504 -15.597  0.00  0.00    -0.166 F 
ATOM     19  F   UNL     1      30.687 -22.760 -17.294  0.00  0.00    -0.166 F 
ATOM     20  F   UNL     1      31.928 -24.413 -16.636  0.00  0.00    -0.166 F 
ATOM     21  C   UNL     1      31.941 -23.062 -16.840  0.00  0.00    +0.419 C 
ENDBRANCH  15  21
ENDBRANCH  11  12
ENDBRANCH   8  11
ENDBRANCH   3   9
BRANCH   5  22
ATOM     22  O   UNL     1      36.028 -19.410 -24.096  0.00  0.00    -0.471 OA
ATOM     23  C   UNL     1      35.042 -20.040 -24.911  0.00  0.00    +0.252 C 
ENDBRANCH   5  22
BRANCH   1  24
ATOM     24  C   UNL     1      34.648 -14.392 -21.867  0.00  0.00    +0.080 C 
BRANCH  24  29
ATOM     25  O   UNL     1      33.004 -12.846 -22.726  0.00  0.00    -0.428 OA
ATOM     26  O   UNL     1      32.431 -14.620 -19.774  0.00  0.00    -0.271 OA
ATOM     27  O   UNL     1      32.031 -10.824 -22.284  0.00  0.00    -0.226 OA
ATOM     28  N   UNL     1      32.027 -12.554 -20.753  0.00  0.00    -0.218 N 
ATOM     29  C   UNL     1      33.173 -14.088 -22.022  0.00  0.00    +0.250 C 
ATOM     30  C   UNL     1      32.506 -13.829 -20.701  0.00  0.00    +0.271 C 
ATOM     31  C   UNL     1      32.319 -11.962 -21.939  0.00  0.00    +0.408 C 
ATOM     32  H   UNL     1      31.531 -12.117 -20.023  0.00  0.00    +0.161 HD
ENDBRANCH  24  29
ENDBRANCH   1  24
TORSDOF 7
ENDMDL
MODEL 7
REMARK VINA RESULT:     -11.1     11.403     14.864
REMARK  Name = 56842109
REMARK  7 active torsions:
REMARK  status: ('A' for Active; 'I' for Inactive)
REMARK    1  A    between atoms: C_1  and  C_24
REMARK    2  A    between atoms: C_3  and  C_9
REMARK    3  A    between atoms: C_5  and  O_22
REMARK    4  A    between atoms: N_8  and  C_11
REMARK    5  A    between atoms: C_11  and  C_12
REMARK    6  A    between atoms: C_15  and  C_21
REMARK    7  A    between atoms: C_24  and  C_29
REMARK                            x       y       z     vdW  Elec       q    Type
REMARK                         _______ _______ _______ _____ _____    ______ ____
ROOT
ATOM      1  C   UNL     1      33.388 -12.888 -23.180  0.00  0.00    -0.018 C 
ATOM      2  C   UNL     1      33.108 -11.523 -23.258  0.00  0.00    +0.003 C 
ATOM      3  C   UNL     1      32.354 -10.908 -22.258  0.00  0.00    +0.087 C 
ATOM      4  C   UNL     1      32.915 -13.636 -22.103  0.00  0.00    -0.001 C 
ATOM      5  C   UNL     1      31.882 -11.656 -21.181  0.00  0.00    +0.143 C 
ATOM      6  C   UNL     1      32.162 -13.020 -21.103  0.00  0.00    +0.037 C 
ENDROOT
BRANCH   3   9
ATOM      7  O   UNL     1      31.246  -9.060 -23.182  0.00  0.00    -0.270 OA
ATOM      8  N   UNL     1      32.761  -8.638 -21.478  0.00  0.00    -0.297 N 
ATOM      9  C   UNL     1      32.075  -9.482 -22.358  0.00  0.00    +0.249 C 
ATOM     10  H   UNL     1      33.404  -9.042 -20.852  0.00  0.00    +0.150 HD
BRANCH   8  11
ATOM     11  C   UNL     1      32.575  -7.205 -21.439  0.00  0.00    +0.117 C 
BRANCH  11  12
ATOM     12  C   UNL     1      33.056  -6.542 -22.697  0.00  0.00    -0.003 C 
ATOM     13  C   UNL     1      32.286  -5.547 -23.299  0.00  0.00    -0.003 C 
ATOM     14  C   UNL     1      34.273  -6.921 -23.265  0.00  0.00    -0.003 C 
ATOM     15  C   UNL     1      33.949  -5.308 -25.034  0.00  0.00    +0.071 C 
ATOM     16  C   UNL     1      32.732  -4.930 -24.468  0.00  0.00    +0.004 C 
ATOM     17  C   UNL     1      34.719  -6.304 -24.433  0.00  0.00    +0.004 C 
BRANCH  15  21
ATOM     18  F   UNL     1      33.838  -5.154 -27.404  0.00  0.00    -0.166 F 
ATOM     19  F   UNL     1      34.185  -3.302 -26.317  0.00  0.00    -0.166 F 
ATOM     20  F   UNL     1      35.772  -4.771 -26.487  0.00  0.00    -0.166 F 
ATOM     21  C   UNL     1      34.427  -4.647 -26.282  0.00  0.00    +0.419 C 
ENDBRANCH  15  21
ENDBRANCH  11  12
ENDBRANCH   8  11
ENDBRANCH   3   9
BRANCH   5  22
ATOM     22  O   UNL     1      31.147 -11.072 -20.192  0.00  0.00    -0.471 OA
ATOM     23  C   UNL     1      31.628 -11.216 -18.857  0.00  0.00    +0.252 C 
ENDBRANCH   5  22
BRANCH   1  24
ATOM     24  C   UNL     1      34.203 -13.553 -24.261  0.00  0.00    +0.080 C 
BRANCH  24  29
ATOM     25  O   UNL     1      34.545 -15.857 -23.624  0.00  0.00    -0.428 OA
ATOM     26  O   UNL     1      33.733 -15.003 -26.911  0.00  0.00    -0.271 OA
ATOM     27  O   UNL     1      35.986 -17.608 -23.910  0.00  0.00    -0.226 OA
ATOM     28  N   UNL     1      35.004 -16.518 -25.694  0.00  0.00    -0.218 N 
ATOM     29  C   UNL     1      33.786 -14.991 -24.485  0.00  0.00    +0.250 C 
ATOM     30  C   UNL     1      34.142 -15.475 -25.862  0.00  0.00    +0.271 C 
ATOM     31  C   UNL     1      35.253 -16.750 -24.380  0.00  0.00    +0.408 C 
ATOM     32  H   UNL     1      35.395 -17.039 -26.433  0.00  0.00    +0.161 HD
ENDBRANCH  24  29
ENDBRANCH   1  24
TORSDOF 7
ENDMDL
MODEL 8
REMARK VINA RESULT:     -11.0      7.455     10.865
REMARK  Name = 56842109
REMARK  7 active torsions:
REMARK  status: ('A' for Active; 'I' for Inactive)
REMARK    1  A    between atoms: C_1  and  C_24
REMARK    2  A    between atoms: C_3  and  C_9
REMARK    3  A    between atoms: C_5  and  O_22
REMARK    4  A    between atoms: N_8  and  C_11
REMARK    5  A    between atoms: C_11  and  C_12
REMARK    6  A    between atoms: C_15  and  C_21
REMARK    7  A    between atoms: C_24  and  C_29
REMARK                            x       y       z     vdW  Elec       q    Type
REMARK                         _______ _______ _______ _____ _____    ______ ____
ROOT
ATOM      1  C   UNL     1      35.517 -17.666 -22.849  0.00  0.00    -0.018 C 
ATOM      2  C   UNL     1      35.118 -16.726 -21.899  0.00  0.00    +0.003 C 
ATOM      3  C   UNL     1      34.720 -15.451 -22.303  0.00  0.00    +0.087 C 
ATOM      4  C   UNL     1      35.517 -17.332 -24.203  0.00  0.00    -0.001 C 
ATOM      5  C   UNL     1      34.720 -15.117 -23.657  0.00  0.00    +0.143 C 
ATOM      6  C   UNL     1      35.119 -16.057 -24.607  0.00  0.00    +0.037 C 
ENDROOT
BRANCH   3   9
ATOM      7  O   UNL     1      35.152 -13.902 -20.598  0.00  0.00    -0.270 OA
ATOM      8  N   UNL     1      32.933 -14.242 -21.176  0.00  0.00    -0.297 N 
ATOM      9  C   UNL     1      34.305 -14.485 -21.295  0.00  0.00    +0.249 C 
ATOM     10  H   UNL     1      32.319 -14.742 -21.761  0.00  0.00    +0.150 HD
BRANCH   8  11
ATOM     11  C   UNL     1      32.369 -13.297 -20.240  0.00  0.00    +0.117 C 
BRANCH  11  12
ATOM     12  C   UNL     1      32.247 -11.924 -20.832  0.00  0.00    -0.003 C 
ATOM     13  C   UNL     1      32.075 -10.818 -19.999  0.00  0.00    -0.003 C 
ATOM     14  C   UNL     1      32.307 -11.751 -22.215  0.00  0.00    -0.003 C 
ATOM     15  C   UNL     1      32.022  -9.369 -21.931  0.00  0.00    +0.071 C 
ATOM     16  C   UNL     1      31.963  -9.540 -20.548  0.00  0.00    +0.004 C 
ATOM     17  C   UNL     1      32.194 -10.475 -22.764  0.00  0.00    +0.004 C 
BRANCH  15  21
ATOM     18  F   UNL     1      33.012  -7.641 -23.231  0.00  0.00    -0.166 F 
ATOM     19  F   UNL     1      30.854  -7.867 -23.381  0.00  0.00    -0.166 F 
ATOM     20  F   UNL     1      31.730  -7.020 -21.587  0.00  0.00    -0.166 F 
ATOM     21  C   UNL     1      31.905  -8.004 -22.518  0.00  0.00    +0.419 C 
ENDBRANCH  15  21
ENDBRANCH  11  12
ENDBRANCH   8  11
ENDBRANCH   3   9
BRANCH   5  22
ATOM     22  O   UNL     1      34.332 -13.878 -24.072  0.00  0.00    -0.471 OA
ATOM     23  C   UNL     1      33.664 -13.797 -25.330  0.00  0.00    +0.252 C 
ENDBRANCH   5  22
BRANCH   1  24
ATOM     24  C   UNL     1      35.947 -19.044 -22.412  0.00  0.00    +0.080 C 
BRANCH  24  29
ATOM     25  O   UNL     1      36.643 -19.936 -20.278  0.00  0.00    -0.428 OA
ATOM     26  O   UNL     1      33.357 -20.312 -21.396  0.00  0.00    -0.271 OA
ATOM     27  O   UNL     1      37.024 -21.911 -19.191  0.00  0.00    -0.226 OA
ATOM     28  N   UNL     1      35.001 -21.429 -20.196  0.00  0.00    -0.218 N 
ATOM     29  C   UNL     1      35.542 -19.339 -20.983  0.00  0.00    +0.250 C 
ATOM     30  C   UNL     1      34.472 -20.391 -20.904  0.00  0.00    +0.271 C 
ATOM     31  C   UNL     1      36.282 -21.175 -19.826  0.00  0.00    +0.408 C 
ATOM     32  H   UNL     1      34.515 -22.258 -19.980  0.00  0.00    +0.161 HD
ENDBRANCH  24  29
ENDBRANCH   1  24
TORSDOF 7
ENDMDL
MODEL 9
REMARK VINA RESULT:     -11.0      9.987     14.483
REMARK  Name = 56842109
REMARK  7 active torsions:
REMARK  status: ('A' for Active; 'I' for Inactive)
REMARK    1  A    between atoms: C_1  and  C_24
REMARK    2  A    between atoms: C_3  and  C_9
REMARK    3  A    between atoms: C_5  and  O_22
REMARK    4  A    between atoms: N_8  and  C_11
REMARK    5  A    between atoms: C_11  and  C_12
REMARK    6  A    between atoms: C_15  and  C_21
REMARK    7  A    between atoms: C_24  and  C_29
REMARK                            x       y       z     vdW  Elec       q    Type
REMARK                         _______ _______ _______ _____ _____    ______ ____
ROOT
ATOM      1  C   UNL     1      32.633  -9.753 -22.827  0.00  0.00    -0.018 C 
ATOM      2  C   UNL     1      33.254 -10.702 -23.639  0.00  0.00    +0.003 C 
ATOM      3  C   UNL     1      33.154 -12.059 -23.328  0.00  0.00    +0.087 C 
ATOM      4  C   UNL     1      31.912 -10.161 -21.705  0.00  0.00    -0.001 C 
ATOM      5  C   UNL     1      32.433 -12.466 -22.207  0.00  0.00    +0.143 C 
ATOM      6  C   UNL     1      31.812 -11.517 -21.394  0.00  0.00    +0.037 C 
ENDROOT
BRANCH   3   9
ATOM      7  O   UNL     1      33.777 -12.900 -25.426  0.00  0.00    -0.270 OA
ATOM      8  N   UNL     1      34.478 -14.089 -23.562  0.00  0.00    -0.297 N 
ATOM      9  C   UNL     1      33.808 -13.033 -24.191  0.00  0.00    +0.249 C 
ATOM     10  H   UNL     1      34.460 -14.131 -22.579  0.00  0.00    +0.150 HD
BRANCH   8  11
ATOM     11  C   UNL     1      35.192 -15.119 -24.279  0.00  0.00    +0.117 C 
BRANCH  11  12
ATOM     12  C   UNL     1      35.294 -16.389 -23.486  0.00  0.00    -0.003 C 
ATOM     13  C   UNL     1      35.331 -17.620 -24.141  0.00  0.00    -0.003 C 
ATOM     14  C   UNL     1      35.351 -16.339 -22.093  0.00  0.00    -0.003 C 
ATOM     15  C   UNL     1      35.483 -18.750 -22.012  0.00  0.00    +0.071 C 
ATOM     16  C   UNL     1      35.426 -18.801 -23.405  0.00  0.00    +0.004 C 
ATOM     17  C   UNL     1      35.446 -17.519 -21.356  0.00  0.00    +0.004 C 
BRANCH  15  21
ATOM     18  F   UNL     1      36.783 -20.129 -20.575  0.00  0.00    -0.166 F 
ATOM     19  F   UNL     1      34.632 -20.133 -20.255  0.00  0.00    -0.166 F 
ATOM     20  F   UNL     1      35.470 -21.142 -21.982  0.00  0.00    -0.166 F 
ATOM     21  C   UNL     1      35.588 -20.012 -21.224  0.00  0.00    +0.419 C 
ENDBRANCH  15  21
ENDBRANCH  11  12
ENDBRANCH   8  11
ENDBRANCH   3   9
BRANCH   5  22
ATOM     22  O   UNL     1      32.321 -13.787 -21.889  0.00  0.00    -0.471 OA
ATOM     23  C   UNL     1      32.631 -14.157 -20.547  0.00  0.00    +0.252 C 
ENDBRANCH   5  22
BRANCH   1  24
ATOM     24  C   UNL     1      32.740  -8.287 -23.164  0.00  0.00    +0.080 C 
BRANCH  24  29
ATOM     25  O   UNL     1      31.056  -6.562 -23.316  0.00  0.00    -0.428 OA
ATOM     26  O   UNL     1      33.077  -6.855 -20.483  0.00  0.00    -0.271 OA
ATOM     27  O   UNL     1      30.813  -4.298 -23.517  0.00  0.00    -0.226 OA
ATOM     28  N   UNL     1      32.042  -5.258 -21.812  0.00  0.00    -0.218 N 
ATOM     29  C   UNL     1      31.726  -7.454 -22.408  0.00  0.00    +0.250 C 
ATOM     30  C   UNL     1      32.378  -6.521 -21.427  0.00  0.00    +0.271 C 
ATOM     31  C   UNL     1      31.267  -5.268 -22.927  0.00  0.00    +0.408 C 
ATOM     32  H   UNL     1      32.324  -4.440 -21.341  0.00  0.00    +0.161 HD
ENDBRANCH  24  29
ENDBRANCH   1  24
TORSDOF 7
ENDMDL
