MODEL 1
REMARK VINA RESULT:     -11.0      0.000      0.000
REMARK  Name = 21874557
REMARK  4 active torsions:
REMARK  status: ('A' for Active; 'I' for Inactive)
REMARK    1  A    between atoms: N_1  and  C_18
REMARK    2  A    between atoms: C_9  and  C_14
REMARK    3  A    between atoms: C_18  and  C_19
REMARK    4  A    between atoms: C_23  and  N_26
REMARK                            x       y       z     vdW  Elec       q    Type
REMARK                         _______ _______ _______ _____ _____    ______ ____
ROOT
ATOM      1  N   UNL     1      35.438 -16.602 -22.422  0.00  0.00    -0.170 N 
ATOM      2  N   UNL     1      35.274 -16.240 -21.136  0.00  0.00    -0.042 NA
ATOM      3  N   UNL     1      34.500 -15.156 -21.118  0.00  0.00    -0.137 NA
ATOM      4  N   UNL     1      34.703 -15.797 -24.597  0.00  0.00    -0.310 NA
ATOM      5  N   UNL     1      33.302 -13.811 -24.344  0.00  0.00    -0.324 NA
ATOM      6  N   UNL     1      33.787 -14.707 -26.456  0.00  0.00    -0.283 N 
ATOM      7  C   UNL     1      34.775 -15.760 -23.260  0.00  0.00    +0.238 C 
ATOM      8  C   UNL     1      34.183 -14.845 -22.411  0.00  0.00    +0.181 C 
ATOM      9  C   UNL     1      33.422 -13.840 -22.995  0.00  0.00    +0.202 C 
ATOM     10  C   UNL     1      33.940 -14.777 -25.052  0.00  0.00    +0.198 C 
ATOM     11  H   UNL     1      34.223 -15.375 -27.032  0.00  0.00    +0.156 HD
ATOM     12  H   UNL     1      33.245 -13.990 -26.856  0.00  0.00    +0.156 HD
ENDROOT
BRANCH   9  14
ATOM     13  O   UNL     1      32.714 -11.602 -22.785  0.00  0.00    -0.448 OA
ATOM     14  C   UNL     1      32.763 -12.837 -22.219  0.00  0.00    +0.178 C 
ATOM     15  C   UNL     1      32.145 -12.830 -20.991  0.00  0.00    +0.043 C 
ATOM     16  C   UNL     1      31.688 -11.506 -20.788  0.00  0.00    +0.044 C 
ATOM     17  C   UNL     1      32.058 -10.798 -21.908  0.00  0.00    +0.180 C 
ENDBRANCH   9  14
BRANCH   1  18
ATOM     18  C   UNL     1      36.250 -17.774 -22.769  0.00  0.00    +0.145 C 
BRANCH  18  19
ATOM     19  C   UNL     1      36.023 -18.906 -21.826  0.00  0.00    -0.001 C 
ATOM     20  C   UNL     1      34.734 -19.399 -21.624  0.00  0.00    -0.006 C 
ATOM     21  C   UNL     1      34.523 -20.460 -20.742  0.00  0.00    -0.009 C 
ATOM     22  C   UNL     1      37.101 -19.473 -21.145  0.00  0.00    -0.001 C 
ATOM     23  C   UNL     1      35.601 -21.026 -20.062  0.00  0.00    +0.037 C 
ATOM     24  C   UNL     1      36.890 -20.534 -20.263  0.00  0.00    +0.013 C 
ATOM     25  C   UNL     1      33.132 -20.968 -20.545  0.00  0.00    +0.032 C 
BRANCH  23  26
ATOM     26  N   UNL     1      35.407 -22.100 -19.166  0.00  0.00    -0.357 N 
ATOM     27  H   UNL     1      35.134 -22.983 -19.507  0.00  0.00    +0.142 HD
ATOM     28  H   UNL     1      35.544 -21.967 -18.201  0.00  0.00    +0.142 HD
ENDBRANCH  23  26
ENDBRANCH  18  19
ENDBRANCH   1  18
TORSDOF 4
ENDMDL
MODEL 2
REMARK VINA RESULT:      -9.9      2.253      3.582
REMARK  Name = 21874557
REMARK  4 active torsions:
REMARK  status: ('A' for Active; 'I' for Inactive)
REMARK    1  A    between atoms: N_1  and  C_18
REMARK    2  A    between atoms: C_9  and  C_14
REMARK    3  A    between atoms: C_18  and  C_19
REMARK    4  A    between atoms: C_23  and  N_26
REMARK                            x       y       z     vdW  Elec       q    Type
REMARK                         _______ _______ _______ _____ _____    ______ ____
ROOT
ATOM      1  N   UNL     1      36.097 -18.125 -22.872  0.00  0.00    -0.170 N 
ATOM      2  N   UNL     1      36.050 -18.430 -24.183  0.00  0.00    -0.042 NA
ATOM      3  N   UNL     1      35.445 -17.422 -24.809  0.00  0.00    -0.137 NA
ATOM      4  N   UNL     1      35.383 -16.279 -21.456  0.00  0.00    -0.310 NA
ATOM      5  N   UNL     1      34.302 -14.544 -22.794  0.00  0.00    -0.324 NA
ATOM      6  N   UNL     1      34.548 -14.326 -20.473  0.00  0.00    -0.283 N 
ATOM      7  C   UNL     1      35.524 -16.915 -22.627  0.00  0.00    +0.238 C 
ATOM      8  C   UNL     1      35.114 -16.483 -23.873  0.00  0.00    +0.181 C 
ATOM      9  C   UNL     1      34.481 -15.248 -23.938  0.00  0.00    +0.202 C 
ATOM     10  C   UNL     1      34.757 -15.095 -21.641  0.00  0.00    +0.198 C 
ATOM     11  H   UNL     1      34.852 -14.663 -19.600  0.00  0.00    +0.156 HD
ATOM     12  H   UNL     1      34.098 -13.452 -20.533  0.00  0.00    +0.156 HD
ENDROOT
BRANCH   9  14
ATOM     13  O   UNL     1      34.014 -13.340 -25.240  0.00  0.00    -0.448 OA
ATOM     14  C   UNL     1      34.012 -14.698 -25.171  0.00  0.00    +0.178 C 
ATOM     15  C   UNL     1      33.545 -15.240 -26.344  0.00  0.00    +0.043 C 
ATOM     16  C   UNL     1      33.238 -14.147 -27.189  0.00  0.00    +0.044 C 
ATOM     17  C   UNL     1      33.542 -13.013 -26.471  0.00  0.00    +0.180 C 
ENDBRANCH   9  14
BRANCH   1  18
ATOM     18  C   UNL     1      36.711 -19.049 -21.913  0.00  0.00    +0.145 C 
BRANCH  18  19
ATOM     19  C   UNL     1      35.692 -19.872 -21.202  0.00  0.00    -0.001 C 
ATOM     20  C   UNL     1      36.083 -20.745 -20.187  0.00  0.00    -0.006 C 
ATOM     21  C   UNL     1      35.128 -21.515 -19.522  0.00  0.00    -0.009 C 
ATOM     22  C   UNL     1      34.345 -19.769 -21.553  0.00  0.00    -0.001 C 
ATOM     23  C   UNL     1      33.782 -21.411 -19.872  0.00  0.00    +0.037 C 
ATOM     24  C   UNL     1      33.390 -20.539 -20.888  0.00  0.00    +0.013 C 
ATOM     25  C   UNL     1      35.575 -22.441 -18.439  0.00  0.00    +0.032 C 
BRANCH  23  26
ATOM     26  N   UNL     1      32.802 -22.181 -19.211  0.00  0.00    -0.357 N 
ATOM     27  H   UNL     1      32.584 -23.086 -19.535  0.00  0.00    +0.142 HD
ATOM     28  H   UNL     1      32.335 -21.816 -18.425  0.00  0.00    +0.142 HD
ENDBRANCH  23  26
ENDBRANCH  18  19
ENDBRANCH   1  18
TORSDOF 4
ENDMDL
MODEL 3
REMARK VINA RESULT:      -9.6      5.254      9.904
REMARK  Name = 21874557
REMARK  4 active torsions:
REMARK  status: ('A' for Active; 'I' for Inactive)
REMARK    1  A    between atoms: N_1  and  C_18
REMARK    2  A    between atoms: C_9  and  C_14
REMARK    3  A    between atoms: C_18  and  C_19
REMARK    4  A    between atoms: C_23  and  N_26
REMARK                            x       y       z     vdW  Elec       q    Type
REMARK                         _______ _______ _______ _____ _____    ______ ____
ROOT
ATOM      1  N   UNL     1      34.591 -22.501 -18.493  0.00  0.00    -0.170 N 
ATOM      2  N   UNL     1      33.453 -22.507 -19.212  0.00  0.00    -0.042 NA
ATOM      3  N   UNL     1      32.469 -22.902 -18.406  0.00  0.00    -0.137 NA
ATOM      4  N   UNL     1      35.243 -23.010 -16.204  0.00  0.00    -0.310 NA
ATOM      5  N   UNL     1      33.300 -23.712 -14.898  0.00  0.00    -0.324 NA
ATOM      6  N   UNL     1      35.438 -23.592 -13.945  0.00  0.00    -0.283 N 
ATOM      7  C   UNL     1      34.364 -22.892 -17.209  0.00  0.00    +0.238 C 
ATOM      8  C   UNL     1      33.006 -23.143 -17.173  0.00  0.00    +0.181 C 
ATOM      9  C   UNL     1      32.473 -23.569 -15.963  0.00  0.00    +0.202 C 
ATOM     10  C   UNL     1      34.614 -23.428 -15.082  0.00  0.00    +0.198 C 
ATOM     11  H   UNL     1      36.402 -23.405 -14.005  0.00  0.00    +0.156 HD
ATOM     12  H   UNL     1      35.047 -23.894 -13.093  0.00  0.00    +0.156 HD
ENDROOT
BRANCH   9  14
ATOM     13  O   UNL     1      30.801 -25.065 -15.241  0.00  0.00    -0.448 OA
ATOM     14  C   UNL     1      31.083 -23.860 -15.805  0.00  0.00    +0.178 C 
ATOM     15  C   UNL     1      29.924 -23.182 -16.101  0.00  0.00    +0.043 C 
ATOM     16  C   UNL     1      28.861 -24.023 -15.693  0.00  0.00    +0.044 C 
ATOM     17  C   UNL     1      29.447 -25.156 -15.176  0.00  0.00    +0.180 C 
ENDBRANCH   9  14
BRANCH   1  18
ATOM     18  C   UNL     1      35.862 -22.106 -19.110  0.00  0.00    +0.145 C 
BRANCH  18  19
ATOM     19  C   UNL     1      35.676 -21.035 -20.130  0.00  0.00    -0.001 C 
ATOM     20  C   UNL     1      36.782 -20.353 -20.636  0.00  0.00    -0.006 C 
ATOM     21  C   UNL     1      36.607 -19.351 -21.591  0.00  0.00    -0.009 C 
ATOM     22  C   UNL     1      34.394 -20.715 -20.578  0.00  0.00    -0.001 C 
ATOM     23  C   UNL     1      35.325 -19.032 -22.039  0.00  0.00    +0.037 C 
ATOM     24  C   UNL     1      34.218 -19.713 -21.533  0.00  0.00    +0.013 C 
ATOM     25  C   UNL     1      37.809 -18.637 -22.116  0.00  0.00    +0.032 C 
BRANCH  23  26
ATOM     26  N   UNL     1      35.129 -18.021 -23.005  0.00  0.00    -0.357 N 
ATOM     27  H   UNL     1      34.655 -17.193 -22.762  0.00  0.00    +0.142 HD
ATOM     28  H   UNL     1      35.465 -18.144 -23.922  0.00  0.00    +0.142 HD
ENDBRANCH  23  26
ENDBRANCH  18  19
ENDBRANCH   1  18
TORSDOF 4
ENDMDL
MODEL 4
REMARK VINA RESULT:      -9.6      5.399      9.931
REMARK  Name = 21874557
REMARK  4 active torsions:
REMARK  status: ('A' for Active; 'I' for Inactive)
REMARK    1  A    between atoms: N_1  and  C_18
REMARK    2  A    between atoms: C_9  and  C_14
REMARK    3  A    between atoms: C_18  and  C_19
REMARK    4  A    between atoms: C_23  and  N_26
REMARK                            x       y       z     vdW  Elec       q    Type
REMARK                         _______ _______ _______ _____ _____    ______ ____
ROOT
ATOM      1  N   UNL     1      34.248 -22.030 -19.063  0.00  0.00    -0.170 N 
ATOM      2  N   UNL     1      35.567 -22.225 -18.876  0.00  0.00    -0.042 NA
ATOM      3  N   UNL     1      35.717 -22.904 -17.740  0.00  0.00    -0.137 NA
ATOM      4  N   UNL     1      32.191 -22.590 -17.891  0.00  0.00    -0.310 NA
ATOM      5  N   UNL     1      32.684 -23.830 -15.843  0.00  0.00    -0.324 NA
ATOM      6  N   UNL     1      30.482 -23.321 -16.467  0.00  0.00    -0.283 N 
ATOM      7  C   UNL     1      33.521 -22.580 -18.053  0.00  0.00    +0.238 C 
ATOM      8  C   UNL     1      34.474 -23.132 -17.220  0.00  0.00    +0.181 C 
ATOM      9  C   UNL     1      34.018 -23.777 -16.076  0.00  0.00    +0.202 C 
ATOM     10  C   UNL     1      31.865 -23.242 -16.752  0.00  0.00    +0.198 C 
ATOM     11  H   UNL     1      29.829 -22.917 -17.082  0.00  0.00    +0.156 HD
ATOM     12  H   UNL     1      30.173 -23.781 -15.654  0.00  0.00    +0.156 HD
ENDROOT
BRANCH   9  14
ATOM     13  O   UNL     1      35.687 -25.383 -15.639  0.00  0.00    -0.448 OA
ATOM     14  C   UNL     1      34.910 -24.385 -15.140  0.00  0.00    +0.178 C 
ATOM     15  C   UNL     1      35.174 -24.189 -13.805  0.00  0.00    +0.043 C 
ATOM     16  C   UNL     1      36.177 -25.127 -13.461  0.00  0.00    +0.044 C 
ATOM     17  C   UNL     1      36.455 -25.828 -14.611  0.00  0.00    +0.180 C 
ENDBRANCH   9  14
BRANCH   1  18
ATOM     18  C   UNL     1      33.761 -21.305 -20.241  0.00  0.00    +0.145 C 
BRANCH  18  19
ATOM     19  C   UNL     1      34.843 -20.512 -20.893  0.00  0.00    -0.001 C 
ATOM     20  C   UNL     1      34.579 -19.802 -22.065  0.00  0.00    -0.006 C 
ATOM     21  C   UNL     1      35.592 -19.060 -22.673  0.00  0.00    -0.009 C 
ATOM     22  C   UNL     1      36.119 -20.479 -20.329  0.00  0.00    -0.001 C 
ATOM     23  C   UNL     1      36.868 -19.027 -22.109  0.00  0.00    +0.037 C 
ATOM     24  C   UNL     1      37.132 -19.737 -20.938  0.00  0.00    +0.013 C 
ATOM     25  C   UNL     1      35.282 -18.310 -23.927  0.00  0.00    +0.032 C 
BRANCH  23  26
ATOM     26  N   UNL     1      37.904 -18.281 -22.711  0.00  0.00    -0.357 N 
ATOM     27  H   UNL     1      38.585 -17.843 -22.150  0.00  0.00    +0.142 HD
ATOM     28  H   UNL     1      37.948 -18.199 -23.691  0.00  0.00    +0.142 HD
ENDBRANCH  23  26
ENDBRANCH  18  19
ENDBRANCH   1  18
TORSDOF 4
ENDMDL
MODEL 5
REMARK VINA RESULT:      -9.6      6.018     11.203
REMARK  Name = 21874557
REMARK  4 active torsions:
REMARK  status: ('A' for Active; 'I' for Inactive)
REMARK    1  A    between atoms: N_1  and  C_18
REMARK    2  A    between atoms: C_9  and  C_14
REMARK    3  A    between atoms: C_18  and  C_19
REMARK    4  A    between atoms: C_23  and  N_26
REMARK                            x       y       z     vdW  Elec       q    Type
REMARK                         _______ _______ _______ _____ _____    ______ ____
ROOT
ATOM      1  N   UNL     1      34.104 -23.301 -17.183  0.00  0.00    -0.170 N 
ATOM      2  N   UNL     1      35.436 -23.151 -17.309  0.00  0.00    -0.042 NA
ATOM      3  N   UNL     1      35.988 -23.442 -16.133  0.00  0.00    -0.137 NA
ATOM      4  N   UNL     1      32.553 -23.941 -15.421  0.00  0.00    -0.310 NA
ATOM      5  N   UNL     1      33.762 -24.433 -13.355  0.00  0.00    -0.324 NA
ATOM      6  N   UNL     1      31.427 -24.598 -13.477  0.00  0.00    -0.283 N 
ATOM      7  C   UNL     1      33.770 -23.692 -15.924  0.00  0.00    +0.238 C 
ATOM      8  C   UNL     1      34.984 -23.777 -15.269  0.00  0.00    +0.181 C 
ATOM      9  C   UNL     1      34.958 -24.164 -13.935  0.00  0.00    +0.202 C 
ATOM     10  C   UNL     1      32.650 -24.307 -14.123  0.00  0.00    +0.198 C 
ATOM     11  H   UNL     1      30.580 -24.527 -13.972  0.00  0.00    +0.156 HD
ATOM     12  H   UNL     1      31.423 -24.871 -12.531  0.00  0.00    +0.156 HD
ENDROOT
BRANCH   9  14
ATOM     13  O   UNL     1      36.673 -23.114 -12.707  0.00  0.00    -0.448 OA
ATOM     14  C   UNL     1      36.149 -24.286 -13.155  0.00  0.00    +0.178 C 
ATOM     15  C   UNL     1      36.914 -25.349 -12.738  0.00  0.00    +0.043 C 
ATOM     16  C   UNL     1      37.978 -24.796 -11.985  0.00  0.00    +0.044 C 
ATOM     17  C   UNL     1      37.786 -23.434 -11.996  0.00  0.00    +0.180 C 
ENDBRANCH   9  14
BRANCH   1  18
ATOM     18  C   UNL     1      33.214 -23.049 -18.321  0.00  0.00    +0.145 C 
BRANCH  18  19
ATOM     19  C   UNL     1      33.774 -22.026 -19.250  0.00  0.00    -0.001 C 
ATOM     20  C   UNL     1      35.154 -21.845 -19.339  0.00  0.00    -0.006 C 
ATOM     21  C   UNL     1      35.677 -20.887 -20.209  0.00  0.00    -0.009 C 
ATOM     22  C   UNL     1      32.916 -21.250 -20.031  0.00  0.00    -0.001 C 
ATOM     23  C   UNL     1      34.819 -20.112 -20.990  0.00  0.00    +0.037 C 
ATOM     24  C   UNL     1      33.439 -20.293 -20.901  0.00  0.00    +0.013 C 
ATOM     25  C   UNL     1      37.159 -20.714 -20.284  0.00  0.00    +0.032 C 
BRANCH  23  26
ATOM     26  N   UNL     1      35.330 -19.139 -21.876  0.00  0.00    -0.357 N 
ATOM     27  H   UNL     1      35.464 -18.214 -21.567  0.00  0.00    +0.142 HD
ATOM     28  H   UNL     1      35.553 -19.385 -22.802  0.00  0.00    +0.142 HD
ENDBRANCH  23  26
ENDBRANCH  18  19
ENDBRANCH   1  18
TORSDOF 4
ENDMDL
MODEL 6
REMARK VINA RESULT:      -9.5      5.693     10.620
REMARK  Name = 21874557
REMARK  4 active torsions:
REMARK  status: ('A' for Active; 'I' for Inactive)
REMARK    1  A    between atoms: N_1  and  C_18
REMARK    2  A    between atoms: C_9  and  C_14
REMARK    3  A    between atoms: C_18  and  C_19
REMARK    4  A    between atoms: C_23  and  N_26
REMARK                            x       y       z     vdW  Elec       q    Type
REMARK                         _______ _______ _______ _____ _____    ______ ____
ROOT
ATOM      1  N   UNL     1      34.385 -22.759 -17.987  0.00  0.00    -0.170 N 
ATOM      2  N   UNL     1      35.705 -22.806 -17.725  0.00  0.00    -0.042 NA
ATOM      3  N   UNL     1      35.856 -23.309 -16.501  0.00  0.00    -0.137 NA
ATOM      4  N   UNL     1      32.327 -23.341 -16.826  0.00  0.00    -0.310 NA
ATOM      5  N   UNL     1      32.822 -24.241 -14.609  0.00  0.00    -0.324 NA
ATOM      6  N   UNL     1      30.619 -24.025 -15.379  0.00  0.00    -0.283 N 
ATOM      7  C   UNL     1      33.658 -23.231 -16.938  0.00  0.00    +0.238 C 
ATOM      8  C   UNL     1      34.612 -23.576 -16.001  0.00  0.00    +0.181 C 
ATOM      9  C   UNL     1      34.157 -24.099 -14.797  0.00  0.00    +0.202 C 
ATOM     10  C   UNL     1      32.002 -23.859 -15.620  0.00  0.00    +0.198 C 
ATOM     11  H   UNL     1      29.965 -23.768 -16.068  0.00  0.00    +0.156 HD
ATOM     12  H   UNL     1      30.310 -24.397 -14.521  0.00  0.00    +0.156 HD
ENDROOT
BRANCH   9  14
ATOM     13  O   UNL     1      34.624 -24.218 -12.490  0.00  0.00    -0.448 OA
ATOM     14  C   UNL     1      35.050 -24.491 -13.752  0.00  0.00    +0.178 C 
ATOM     15  C   UNL     1      36.281 -25.102 -13.726  0.00  0.00    +0.043 C 
ATOM     16  C   UNL     1      36.637 -25.211 -12.360  0.00  0.00    +0.044 C 
ATOM     17  C   UNL     1      35.596 -24.659 -11.649  0.00  0.00    +0.180 C 
ENDBRANCH   9  14
BRANCH   1  18
ATOM     18  C   UNL     1      33.897 -22.247 -19.272  0.00  0.00    +0.145 C 
BRANCH  18  19
ATOM     19  C   UNL     1      34.891 -21.351 -19.928  0.00  0.00    -0.001 C 
ATOM     20  C   UNL     1      34.499 -20.523 -20.980  0.00  0.00    -0.006 C 
ATOM     21  C   UNL     1      35.430 -19.685 -21.593  0.00  0.00    -0.009 C 
ATOM     22  C   UNL     1      36.216 -21.342 -19.490  0.00  0.00    -0.001 C 
ATOM     23  C   UNL     1      36.755 -19.675 -21.154  0.00  0.00    +0.037 C 
ATOM     24  C   UNL     1      37.148 -20.503 -20.103  0.00  0.00    +0.013 C 
ATOM     25  C   UNL     1      34.982 -18.808 -22.716  0.00  0.00    +0.032 C 
BRANCH  23  26
ATOM     26  N   UNL     1      37.711 -18.833 -21.762  0.00  0.00    -0.357 N 
ATOM     27  H   UNL     1      37.492 -17.890 -21.943  0.00  0.00    +0.142 HD
ATOM     28  H   UNL     1      38.596 -19.188 -22.005  0.00  0.00    +0.142 HD
ENDBRANCH  23  26
ENDBRANCH  18  19
ENDBRANCH   1  18
TORSDOF 4
ENDMDL
MODEL 7
REMARK VINA RESULT:      -9.4      3.449      7.905
REMARK  Name = 21874557
REMARK  4 active torsions:
REMARK  status: ('A' for Active; 'I' for Inactive)
REMARK    1  A    between atoms: N_1  and  C_18
REMARK    2  A    between atoms: C_9  and  C_14
REMARK    3  A    between atoms: C_18  and  C_19
REMARK    4  A    between atoms: C_23  and  N_26
REMARK                            x       y       z     vdW  Elec       q    Type
REMARK                         _______ _______ _______ _____ _____    ______ ____
ROOT
ATOM      1  N   UNL     1      36.474 -19.015 -21.986  0.00  0.00    -0.170 N 
ATOM      2  N   UNL     1      37.683 -18.930 -21.399  0.00  0.00    -0.042 NA
ATOM      3  N   UNL     1      37.658 -19.697 -20.311  0.00  0.00    -0.137 NA
ATOM      4  N   UNL     1      34.375 -20.169 -21.557  0.00  0.00    -0.310 NA
ATOM      5  N   UNL     1      34.539 -21.515 -19.524  0.00  0.00    -0.324 NA
ATOM      6  N   UNL     1      32.566 -21.440 -20.788  0.00  0.00    -0.283 N 
ATOM      7  C   UNL     1      35.645 -19.838 -21.288  0.00  0.00    +0.238 C 
ATOM      8  C   UNL     1      36.417 -20.263 -20.224  0.00  0.00    +0.181 C 
ATOM      9  C   UNL     1      35.823 -21.134 -19.319  0.00  0.00    +0.202 C 
ATOM     10  C   UNL     1      33.903 -21.016 -20.614  0.00  0.00    +0.198 C 
ATOM     11  H   UNL     1      32.043 -21.118 -21.557  0.00  0.00    +0.156 HD
ATOM     12  H   UNL     1      32.157 -22.058 -20.139  0.00  0.00    +0.156 HD
ENDROOT
BRANCH   9  14
ATOM     13  O   UNL     1      35.944 -22.709 -17.570  0.00  0.00    -0.448 OA
ATOM     14  C   UNL     1      36.522 -21.640 -18.180  0.00  0.00    +0.178 C 
ATOM     15  C   UNL     1      37.683 -21.285 -17.534  0.00  0.00    +0.043 C 
ATOM     16  C   UNL     1      37.829 -22.193 -16.458  0.00  0.00    +0.044 C 
ATOM     17  C   UNL     1      36.746 -23.040 -16.524  0.00  0.00    +0.180 C 
ENDBRANCH   9  14
BRANCH   1  18
ATOM     18  C   UNL     1      36.189 -18.274 -23.219  0.00  0.00    +0.145 C 
BRANCH  18  19
ATOM     19  C   UNL     1      35.515 -16.974 -22.944  0.00  0.00    -0.001 C 
ATOM     20  C   UNL     1      35.057 -16.187 -24.001  0.00  0.00    -0.006 C 
ATOM     21  C   UNL     1      34.425 -14.970 -23.742  0.00  0.00    -0.009 C 
ATOM     22  C   UNL     1      35.342 -16.543 -21.628  0.00  0.00    -0.001 C 
ATOM     23  C   UNL     1      34.252 -14.540 -22.426  0.00  0.00    +0.037 C 
ATOM     24  C   UNL     1      34.710 -15.326 -21.369  0.00  0.00    +0.013 C 
ATOM     25  C   UNL     1      33.945 -14.148 -24.893  0.00  0.00    +0.032 C 
BRANCH  23  26
ATOM     26  N   UNL     1      33.615 -13.312 -22.146  0.00  0.00    -0.357 N 
ATOM     27  H   UNL     1      33.051 -12.883 -22.829  0.00  0.00    +0.142 HD
ATOM     28  H   UNL     1      33.735 -12.884 -21.267  0.00  0.00    +0.142 HD
ENDBRANCH  23  26
ENDBRANCH  18  19
ENDBRANCH   1  18
TORSDOF 4
ENDMDL
MODEL 8
REMARK VINA RESULT:      -9.4      4.827      9.161
REMARK  Name = 21874557
REMARK  4 active torsions:
REMARK  status: ('A' for Active; 'I' for Inactive)
REMARK    1  A    between atoms: N_1  and  C_18
REMARK    2  A    between atoms: C_9  and  C_14
REMARK    3  A    between atoms: C_18  and  C_19
REMARK    4  A    between atoms: C_23  and  N_26
REMARK                            x       y       z     vdW  Elec       q    Type
REMARK                         _______ _______ _______ _____ _____    ______ ____
ROOT
ATOM      1  N   UNL     1      34.985 -22.206 -19.129  0.00  0.00    -0.170 N 
ATOM      2  N   UNL     1      33.863 -22.027 -19.851  0.00  0.00    -0.042 NA
ATOM      3  N   UNL     1      32.830 -22.376 -19.086  0.00  0.00    -0.137 NA
ATOM      4  N   UNL     1      35.545 -22.972 -16.888  0.00  0.00    -0.310 NA
ATOM      5  N   UNL     1      33.519 -23.561 -15.655  0.00  0.00    -0.324 NA
ATOM      6  N   UNL     1      35.644 -23.758 -14.685  0.00  0.00    -0.283 N 
ATOM      7  C   UNL     1      34.699 -22.675 -17.884  0.00  0.00    +0.238 C 
ATOM      8  C   UNL     1      33.321 -22.776 -17.875  0.00  0.00    +0.181 C 
ATOM      9  C   UNL     1      32.727 -23.239 -16.707  0.00  0.00    +0.202 C 
ATOM     10  C   UNL     1      34.858 -23.410 -15.808  0.00  0.00    +0.198 C 
ATOM     11  H   UNL     1      36.624 -23.674 -14.724  0.00  0.00    +0.156 HD
ATOM     12  H   UNL     1      35.210 -24.085 -13.863  0.00  0.00    +0.156 HD
ENDROOT
BRANCH   9  14
ATOM     13  O   UNL     1      30.570 -22.420 -17.182  0.00  0.00    -0.448 OA
ATOM     14  C   UNL     1      31.312 -23.387 -16.581  0.00  0.00    +0.178 C 
ATOM     15  C   UNL     1      30.498 -24.312 -15.972  0.00  0.00    +0.043 C 
ATOM     16  C   UNL     1      29.169 -23.887 -16.213  0.00  0.00    +0.044 C 
ATOM     17  C   UNL     1      29.267 -22.731 -16.954  0.00  0.00    +0.180 C 
ENDBRANCH   9  14
BRANCH   1  18
ATOM     18  C   UNL     1      36.299 -21.905 -19.705  0.00  0.00    +0.145 C 
BRANCH  18  19
ATOM     19  C   UNL     1      36.253 -20.717 -20.604  0.00  0.00    -0.001 C 
ATOM     20  C   UNL     1      35.311 -20.655 -21.631  0.00  0.00    -0.006 C 
ATOM     21  C   UNL     1      35.269 -19.542 -22.472  0.00  0.00    -0.009 C 
ATOM     22  C   UNL     1      37.154 -19.667 -20.419  0.00  0.00    -0.001 C 
ATOM     23  C   UNL     1      36.169 -18.492 -22.286  0.00  0.00    +0.037 C 
ATOM     24  C   UNL     1      37.111 -18.554 -21.260  0.00  0.00    +0.013 C 
ATOM     25  C   UNL     1      34.249 -19.502 -23.564  0.00  0.00    +0.032 C 
BRANCH  23  26
ATOM     26  N   UNL     1      36.140 -17.359 -23.127  0.00  0.00    -0.357 N 
ATOM     27  H   UNL     1      36.339 -17.453 -24.087  0.00  0.00    +0.142 HD
ATOM     28  H   UNL     1      35.922 -16.474 -22.755  0.00  0.00    +0.142 HD
ENDBRANCH  23  26
ENDBRANCH  18  19
ENDBRANCH   1  18
TORSDOF 4
ENDMDL
MODEL 9
REMARK VINA RESULT:      -9.3      6.590      9.769
REMARK  Name = 21874557
REMARK  4 active torsions:
REMARK  status: ('A' for Active; 'I' for Inactive)
REMARK    1  A    between atoms: N_1  and  C_18
REMARK    2  A    between atoms: C_9  and  C_14
REMARK    3  A    between atoms: C_18  and  C_19
REMARK    4  A    between atoms: C_23  and  N_26
REMARK                            x       y       z     vdW  Elec       q    Type
REMARK                         _______ _______ _______ _____ _____    ______ ____
ROOT
ATOM      1  N   UNL     1      34.710 -23.962 -16.072  0.00  0.00    -0.170 N 
ATOM      2  N   UNL     1      35.850 -23.598 -16.690  0.00  0.00    -0.042 NA
ATOM      3  N   UNL     1      35.519 -22.835 -17.730  0.00  0.00    -0.137 NA
ATOM      4  N   UNL     1      32.327 -23.580 -16.382  0.00  0.00    -0.310 NA
ATOM      5  N   UNL     1      31.936 -22.163 -18.334  0.00  0.00    -0.324 NA
ATOM      6  N   UNL     1      30.162 -22.972 -17.032  0.00  0.00    -0.283 N 
ATOM      7  C   UNL     1      33.622 -23.441 -16.700  0.00  0.00    +0.238 C 
ATOM      8  C   UNL     1      34.156 -22.726 -17.754  0.00  0.00    +0.181 C 
ATOM      9  C   UNL     1      33.263 -22.069 -18.592  0.00  0.00    +0.202 C 
ATOM     10  C   UNL     1      31.555 -22.902 -17.262  0.00  0.00    +0.198 C 
ATOM     11  H   UNL     1      29.814 -23.491 -16.272  0.00  0.00    +0.156 HD
ATOM     12  H   UNL     1      29.540 -22.502 -17.634  0.00  0.00    +0.156 HD
ENDROOT
BRANCH   9  14
ATOM     13  O   UNL     1      35.045 -21.242 -19.893  0.00  0.00    -0.448 OA
ATOM     14  C   UNL     1      33.699 -21.300 -19.714  0.00  0.00    +0.178 C 
ATOM     15  C   UNL     1      33.051 -20.579 -20.690  0.00  0.00    +0.043 C 
ATOM     16  C   UNL     1      34.063 -20.044 -21.522  0.00  0.00    +0.044 C 
ATOM     17  C   UNL     1      35.258 -20.476 -20.995  0.00  0.00    +0.180 C 
ENDBRANCH   9  14
BRANCH   1  18
ATOM     18  C   UNL     1      34.748 -24.814 -14.879  0.00  0.00    +0.145 C 
BRANCH  18  19
ATOM     19  C   UNL     1      36.139 -25.222 -14.530  0.00  0.00    -0.001 C 
ATOM     20  C   UNL     1      36.836 -24.543 -13.530  0.00  0.00    -0.006 C 
ATOM     21  C   UNL     1      38.137 -24.926 -13.204  0.00  0.00    -0.009 C 
ATOM     22  C   UNL     1      36.744 -26.282 -15.205  0.00  0.00    -0.001 C 
ATOM     23  C   UNL     1      38.742 -25.987 -13.879  0.00  0.00    +0.037 C 
ATOM     24  C   UNL     1      38.046 -26.665 -14.879  0.00  0.00    +0.013 C 
ATOM     25  C   UNL     1      38.860 -24.182 -12.128  0.00  0.00    +0.032 C 
BRANCH  23  26
ATOM     26  N   UNL     1      40.057 -26.388 -13.562  0.00  0.00    -0.357 N 
ATOM     27  H   UNL     1      40.596 -26.877 -14.226  0.00  0.00    +0.142 HD
ATOM     28  H   UNL     1      40.437 -26.180 -12.678  0.00  0.00    +0.142 HD
ENDBRANCH  23  26
ENDBRANCH  18  19
ENDBRANCH   1  18
TORSDOF 4
ENDMDL
