MODEL 1
REMARK VINA RESULT:     -11.7      0.000      0.000
REMARK  Name = 6914657
REMARK  8 active torsions:
REMARK  status: ('A' for Active; 'I' for Inactive)
REMARK    1  A    between atoms: C_1  and  C_4
REMARK    2  A    between atoms: C_1  and  C_16
REMARK    3  A    between atoms: C_9  and  C_10
REMARK    4  A    between atoms: C_16  and  C_17
REMARK    5  A    between atoms: C_17  and  C_18
REMARK    6  A    between atoms: C_18  and  N_20
REMARK    7  A    between atoms: C_21  and  C_23
REMARK    8  A    between atoms: C_24  and  C_26
REMARK                            x       y       z     vdW  Elec       q    Type
REMARK                         _______ _______ _______ _____ _____    ______ ____
ROOT
ATOM      1  C   UNL     1      32.478 -13.401 -21.355  0.00  0.00    +0.000 C 
ENDROOT
BRANCH   1   4
ATOM      2  O   UNL     1      33.186  -7.395 -19.872  0.00  0.00    -0.270 OA
ATOM      3  N   UNL     1      32.145  -9.130 -21.045  0.00  0.00    -0.276 N 
ATOM      4  C   UNL     1      31.868 -12.007 -21.229  0.00  0.00    +0.003 C 
ATOM      5  C   UNL     1      32.213 -11.145 -22.455  0.00  0.00    +0.022 C 
ATOM      6  C   UNL     1      32.343 -11.317 -19.940  0.00  0.00    +0.022 C 
ATOM      7  C   UNL     1      31.671  -9.726 -22.300  0.00  0.00    +0.094 C 
ATOM      8  C   UNL     1      31.806  -9.890 -19.843  0.00  0.00    +0.094 C 
ATOM      9  C   UNL     1      32.826  -7.916 -20.927  0.00  0.00    +0.249 C 
BRANCH   9  10
ATOM     10  C   UNL     1      33.161  -7.186 -22.156  0.00  0.00    +0.054 C 
ATOM     11  C   UNL     1      34.336  -7.485 -22.846  0.00  0.00    +0.005 C 
ATOM     12  C   UNL     1      32.305  -6.195 -22.634  0.00  0.00    +0.005 C 
ATOM     13  C   UNL     1      34.654  -6.792 -24.013  0.00  0.00    +0.000 C 
ATOM     14  C   UNL     1      32.623  -5.502 -23.803  0.00  0.00    +0.000 C 
ATOM     15  C   UNL     1      33.798  -5.800 -24.492  0.00  0.00    +0.000 C 
ENDBRANCH   9  10
ENDBRANCH   1   4
BRANCH   1  16
ATOM     16  C   UNL     1      33.182 -13.576 -22.698  0.00  0.00    +0.002 C 
BRANCH  16  17
ATOM     17  C   UNL     1      34.646 -13.973 -22.504  0.00  0.00    +0.021 C 
BRANCH  17  18
ATOM     18  C   UNL     1      35.015 -15.173 -23.367  0.00  0.00    +0.090 C 
BRANCH  18  20
ATOM     19  O   UNL     1      35.672 -17.832 -24.311  0.00  0.00    -0.270 OA
ATOM     20  N   UNL     1      35.180 -16.362 -22.577  0.00  0.00    -0.301 N 
ATOM     21  C   UNL     1      35.498 -17.601 -23.119  0.00  0.00    +0.246 C 
ATOM     22  H   UNL     1      35.063 -16.294 -21.602  0.00  0.00    +0.150 HD
BRANCH  21  23
ATOM     23  C   UNL     1      35.610 -18.658 -22.073  0.00  0.00    +0.058 C 
ATOM     24  C   UNL     1      34.551 -19.428 -21.783  0.00  0.00    +0.006 C 
BRANCH  24  26
ATOM     25  N   UNL     1      33.293 -22.076 -19.438  0.00  0.00    -0.242 NA
ATOM     26  C   UNL     1      34.550 -20.505 -20.779  0.00  0.00    +0.019 C 
ATOM     27  C   UNL     1      35.737 -20.972 -20.225  0.00  0.00    +0.003 C 
ATOM     28  C   UNL     1      33.365 -21.086 -20.355  0.00  0.00    +0.099 C 
ATOM     29  C   UNL     1      35.704 -21.989 -19.278  0.00  0.00    +0.021 C 
ATOM     30  C   UNL     1      34.468 -22.503 -18.922  0.00  0.00    +0.099 C 
ENDBRANCH  24  26
ENDBRANCH  21  23
ENDBRANCH  18  20
ENDBRANCH  17  18
ENDBRANCH  16  17
ENDBRANCH   1  16
TORSDOF 8
ENDMDL
MODEL 2
REMARK VINA RESULT:     -10.9      5.787     13.545
REMARK  Name = 6914657
REMARK  8 active torsions:
REMARK  status: ('A' for Active; 'I' for Inactive)
REMARK    1  A    between atoms: C_1  and  C_4
REMARK    2  A    between atoms: C_1  and  C_16
REMARK    3  A    between atoms: C_9  and  C_10
REMARK    4  A    between atoms: C_16  and  C_17
REMARK    5  A    between atoms: C_17  and  C_18
REMARK    6  A    between atoms: C_18  and  N_20
REMARK    7  A    between atoms: C_21  and  C_23
REMARK    8  A    between atoms: C_24  and  C_26
REMARK                            x       y       z     vdW  Elec       q    Type
REMARK                         _______ _______ _______ _____ _____    ______ ____
ROOT
ATOM      1  C   UNL     1      33.736 -23.098 -19.028  0.00  0.00    +0.000 C 
ENDROOT
BRANCH   1   4
ATOM      2  O   UNL     1      33.305 -24.939 -13.096  0.00  0.00    -0.270 OA
ATOM      3  N   UNL     1      34.032 -23.464 -14.759  0.00  0.00    -0.276 N 
ATOM      4  C   UNL     1      33.733 -22.733 -17.546  0.00  0.00    +0.003 C 
ATOM      5  C   UNL     1      35.113 -22.987 -16.917  0.00  0.00    +0.022 C 
ATOM      6  C   UNL     1      32.649 -23.521 -16.791  0.00  0.00    +0.022 C 
ATOM      7  C   UNL     1      35.096 -22.698 -15.418  0.00  0.00    +0.094 C 
ATOM      8  C   UNL     1      32.691 -23.228 -15.293  0.00  0.00    +0.094 C 
ATOM      9  C   UNL     1      34.202 -24.329 -13.675  0.00  0.00    +0.249 C 
BRANCH   9  10
ATOM     10  C   UNL     1      35.564 -24.552 -13.174  0.00  0.00    +0.054 C 
ATOM     11  C   UNL     1      36.410 -25.447 -13.829  0.00  0.00    +0.005 C 
ATOM     12  C   UNL     1      36.012 -23.870 -12.043  0.00  0.00    +0.005 C 
ATOM     13  C   UNL     1      37.704 -25.659 -13.354  0.00  0.00    +0.000 C 
ATOM     14  C   UNL     1      37.306 -24.082 -11.568  0.00  0.00    +0.000 C 
ATOM     15  C   UNL     1      38.152 -24.977 -12.223  0.00  0.00    +0.000 C 
ENDBRANCH   9  10
ENDBRANCH   1   4
BRANCH   1  16
ATOM     16  C   UNL     1      34.232 -21.934 -19.882  0.00  0.00    +0.002 C 
BRANCH  16  17
ATOM     17  C   UNL     1      35.711 -22.099 -20.231  0.00  0.00    +0.021 C 
BRANCH  17  18
ATOM     18  C   UNL     1      36.480 -20.801 -20.014  0.00  0.00    +0.090 C 
BRANCH  18  20
ATOM     19  O   UNL     1      37.910 -18.940 -21.713  0.00  0.00    -0.270 OA
ATOM     20  N   UNL     1      35.925 -19.722 -20.787  0.00  0.00    -0.301 N 
ATOM     21  C   UNL     1      36.692 -18.876 -21.578  0.00  0.00    +0.246 C 
ATOM     22  H   UNL     1      34.952 -19.578 -20.754  0.00  0.00    +0.150 HD
BRANCH  21  23
ATOM     23  C   UNL     1      35.862 -17.849 -22.269  0.00  0.00    +0.058 C 
ATOM     24  C   UNL     1      35.892 -17.752 -23.605  0.00  0.00    +0.006 C 
BRANCH  24  26
ATOM     25  N   UNL     1      33.863 -16.285 -26.404  0.00  0.00    -0.242 NA
ATOM     26  C   UNL     1      35.109 -16.784 -24.392  0.00  0.00    +0.019 C 
ATOM     27  C   UNL     1      34.867 -15.500 -23.916  0.00  0.00    +0.003 C 
ATOM     28  C   UNL     1      34.589 -17.124 -25.631  0.00  0.00    +0.099 C 
ATOM     29  C   UNL     1      34.125 -14.609 -24.682  0.00  0.00    +0.021 C 
ATOM     30  C   UNL     1      33.650 -15.045 -25.908  0.00  0.00    +0.099 C 
ENDBRANCH  24  26
ENDBRANCH  21  23
ENDBRANCH  18  20
ENDBRANCH  17  18
ENDBRANCH  16  17
ENDBRANCH   1  16
TORSDOF 8
ENDMDL
MODEL 3
REMARK VINA RESULT:     -10.9      3.804      7.240
REMARK  Name = 6914657
REMARK  8 active torsions:
REMARK  status: ('A' for Active; 'I' for Inactive)
REMARK    1  A    between atoms: C_1  and  C_4
REMARK    2  A    between atoms: C_1  and  C_16
REMARK    3  A    between atoms: C_9  and  C_10
REMARK    4  A    between atoms: C_16  and  C_17
REMARK    5  A    between atoms: C_17  and  C_18
REMARK    6  A    between atoms: C_18  and  N_20
REMARK    7  A    between atoms: C_21  and  C_23
REMARK    8  A    between atoms: C_24  and  C_26
REMARK                            x       y       z     vdW  Elec       q    Type
REMARK                         _______ _______ _______ _____ _____    ______ ____
ROOT
ATOM      1  C   UNL     1      35.032 -19.541 -22.782  0.00  0.00    +0.000 C 
ENDROOT
BRANCH   1   4
ATOM      2  O   UNL     1      33.122 -14.970 -26.553  0.00  0.00    -0.270 OA
ATOM      3  N   UNL     1      34.652 -15.922 -25.063  0.00  0.00    -0.276 N 
ATOM      4  C   UNL     1      35.384 -18.362 -23.686  0.00  0.00    +0.003 C 
ATOM      5  C   UNL     1      35.214 -17.029 -22.939  0.00  0.00    +0.022 C 
ATOM      6  C   UNL     1      34.523 -18.375 -24.960  0.00  0.00    +0.022 C 
ATOM      7  C   UNL     1      35.490 -15.843 -23.860  0.00  0.00    +0.094 C 
ATOM      8  C   UNL     1      34.807 -17.155 -25.834  0.00  0.00    +0.094 C 
ATOM      9  C   UNL     1      33.792 -14.922 -25.523  0.00  0.00    +0.249 C 
BRANCH   9  10
ATOM     10  C   UNL     1      33.652 -13.703 -24.717  0.00  0.00    +0.054 C 
ATOM     11  C   UNL     1      34.185 -12.498 -25.176  0.00  0.00    +0.005 C 
ATOM     12  C   UNL     1      32.987 -13.750 -23.492  0.00  0.00    +0.005 C 
ATOM     13  C   UNL     1      34.052 -11.340 -24.410  0.00  0.00    +0.000 C 
ATOM     14  C   UNL     1      32.854 -12.591 -22.725  0.00  0.00    +0.000 C 
ATOM     15  C   UNL     1      33.387 -11.387 -23.185  0.00  0.00    +0.000 C 
ENDBRANCH   9  10
ENDBRANCH   1   4
BRANCH   1  16
ATOM     16  C   UNL     1      35.754 -19.443 -21.440  0.00  0.00    +0.002 C 
BRANCH  16  17
ATOM     17  C   UNL     1      35.482 -20.675 -20.578  0.00  0.00    +0.021 C 
BRANCH  17  18
ATOM     18  C   UNL     1      33.986 -20.906 -20.396  0.00  0.00    +0.090 C 
BRANCH  18  20
ATOM     19  O   UNL     1      34.244 -23.752 -19.916  0.00  0.00    -0.270 OA
ATOM     20  N   UNL     1      33.705 -21.614 -19.176  0.00  0.00    -0.301 N 
ATOM     21  C   UNL     1      33.859 -22.987 -19.038  0.00  0.00    +0.246 C 
ATOM     22  H   UNL     1      33.388 -21.098 -18.400  0.00  0.00    +0.150 HD
BRANCH  21  23
ATOM     23  C   UNL     1      33.497 -23.456 -17.669  0.00  0.00    +0.058 C 
ATOM     24  C   UNL     1      32.258 -23.259 -17.199  0.00  0.00    +0.006 C 
BRANCH  24  26
ATOM     25  N   UNL     1      32.044 -23.609 -13.467  0.00  0.00    -0.242 NA
ATOM     26  C   UNL     1      31.789 -23.687 -15.870  0.00  0.00    +0.019 C 
ATOM     27  C   UNL     1      30.696 -24.536 -15.733  0.00  0.00    +0.003 C 
ATOM     28  C   UNL     1      32.422 -23.255 -14.716  0.00  0.00    +0.099 C 
ATOM     29  C   UNL     1      30.278 -24.924 -14.466  0.00  0.00    +0.021 C 
ATOM     30  C   UNL     1      30.979 -24.437 -13.375  0.00  0.00    +0.099 C 
ENDBRANCH  24  26
ENDBRANCH  21  23
ENDBRANCH  18  20
ENDBRANCH  17  18
ENDBRANCH  16  17
ENDBRANCH   1  16
TORSDOF 8
ENDMDL
MODEL 4
REMARK VINA RESULT:     -10.8      7.705     11.308
REMARK  Name = 6914657
REMARK  8 active torsions:
REMARK  status: ('A' for Active; 'I' for Inactive)
REMARK    1  A    between atoms: C_1  and  C_4
REMARK    2  A    between atoms: C_1  and  C_16
REMARK    3  A    between atoms: C_9  and  C_10
REMARK    4  A    between atoms: C_16  and  C_17
REMARK    5  A    between atoms: C_17  and  C_18
REMARK    6  A    between atoms: C_18  and  N_20
REMARK    7  A    between atoms: C_21  and  C_23
REMARK    8  A    between atoms: C_24  and  C_26
REMARK                            x       y       z     vdW  Elec       q    Type
REMARK                         _______ _______ _______ _____ _____    ______ ____
ROOT
ATOM      1  C   UNL     1      36.757 -22.176 -16.368  0.00  0.00    +0.000 C 
ENDROOT
BRANCH   1   4
ATOM      2  O   UNL     1      32.755 -20.718 -20.908  0.00  0.00    -0.270 OA
ATOM      3  N   UNL     1      34.803 -21.543 -20.140  0.00  0.00    -0.276 N 
ATOM      4  C   UNL     1      36.252 -22.416 -17.788  0.00  0.00    +0.003 C 
ATOM      5  C   UNL     1      36.832 -21.374 -18.759  0.00  0.00    +0.022 C 
ATOM      6  C   UNL     1      34.715 -22.389 -17.833  0.00  0.00    +0.022 C 
ATOM      7  C   UNL     1      36.271 -21.560 -20.166  0.00  0.00    +0.094 C 
ATOM      8  C   UNL     1      34.198 -22.544 -19.262  0.00  0.00    +0.094 C 
ATOM      9  C   UNL     1      33.984 -20.704 -20.899  0.00  0.00    +0.249 C 
BRANCH   9  10
ATOM     10  C   UNL     1      34.626 -19.702 -21.759  0.00  0.00    +0.054 C 
ATOM     11  C   UNL     1      34.572 -19.837 -23.147  0.00  0.00    +0.005 C 
ATOM     12  C   UNL     1      35.291 -18.616 -21.190  0.00  0.00    +0.005 C 
ATOM     13  C   UNL     1      35.182 -18.886 -23.964  0.00  0.00    +0.000 C 
ATOM     14  C   UNL     1      35.901 -17.665 -22.007  0.00  0.00    +0.000 C 
ATOM     15  C   UNL     1      35.847 -17.800 -23.395  0.00  0.00    +0.000 C 
ENDBRANCH   9  10
ENDBRANCH   1   4
BRANCH   1  16
ATOM     16  C   UNL     1      37.586 -23.357 -15.870  0.00  0.00    +0.002 C 
BRANCH  16  17
ATOM     17  C   UNL     1      37.328 -23.625 -14.388  0.00  0.00    +0.021 C 
BRANCH  17  18
ATOM     18  C   UNL     1      36.660 -24.978 -14.177  0.00  0.00    +0.090 C 
BRANCH  18  20
ATOM     19  O   UNL     1      34.578 -24.080 -12.373  0.00  0.00    -0.270 OA
ATOM     20  N   UNL     1      35.247 -24.917 -14.437  0.00  0.00    -0.301 N 
ATOM     21  C   UNL     1      34.318 -24.470 -13.506  0.00  0.00    +0.246 C 
ATOM     22  H   UNL     1      34.923 -25.207 -15.320  0.00  0.00    +0.150 HD
BRANCH  21  23
ATOM     23  C   UNL     1      32.926 -24.511 -14.039  0.00  0.00    +0.058 C 
ATOM     24  C   UNL     1      32.572 -23.705 -15.050  0.00  0.00    +0.006 C 
BRANCH  24  26
ATOM     25  N   UNL     1      29.722 -22.674 -17.267  0.00  0.00    -0.242 NA
ATOM     26  C   UNL     1      31.232 -23.667 -15.660  0.00  0.00    +0.019 C 
ATOM     27  C   UNL     1      30.230 -24.538 -15.247  0.00  0.00    +0.003 C 
ATOM     28  C   UNL     1      30.930 -22.762 -16.665  0.00  0.00    +0.099 C 
ATOM     29  C   UNL     1      28.975 -24.478 -15.841  0.00  0.00    +0.021 C 
ATOM     30  C   UNL     1      28.773 -23.536 -16.837  0.00  0.00    +0.099 C 
ENDBRANCH  24  26
ENDBRANCH  21  23
ENDBRANCH  18  20
ENDBRANCH  17  18
ENDBRANCH  16  17
ENDBRANCH   1  16
TORSDOF 8
ENDMDL
MODEL 5
REMARK VINA RESULT:     -10.4      5.647     13.111
REMARK  Name = 6914657
REMARK  8 active torsions:
REMARK  status: ('A' for Active; 'I' for Inactive)
REMARK    1  A    between atoms: C_1  and  C_4
REMARK    2  A    between atoms: C_1  and  C_16
REMARK    3  A    between atoms: C_9  and  C_10
REMARK    4  A    between atoms: C_16  and  C_17
REMARK    5  A    between atoms: C_17  and  C_18
REMARK    6  A    between atoms: C_18  and  N_20
REMARK    7  A    between atoms: C_21  and  C_23
REMARK    8  A    between atoms: C_24  and  C_26
REMARK                            x       y       z     vdW  Elec       q    Type
REMARK                         _______ _______ _______ _____ _____    ______ ____
ROOT
ATOM      1  C   UNL     1      36.810 -21.714 -17.131  0.00  0.00    +0.000 C 
ENDROOT
BRANCH   1   4
ATOM      2  O   UNL     1      32.926 -24.037 -12.854  0.00  0.00    -0.270 OA
ATOM      3  N   UNL     1      33.943 -24.063 -14.959  0.00  0.00    -0.276 N 
ATOM      4  C   UNL     1      36.075 -22.922 -16.554  0.00  0.00    +0.003 C 
ATOM      5  C   UNL     1      34.623 -22.971 -17.057  0.00  0.00    +0.022 C 
ATOM      6  C   UNL     1      36.107 -22.898 -15.016  0.00  0.00    +0.022 C 
ATOM      7  C   UNL     1      33.860 -24.132 -16.423  0.00  0.00    +0.094 C 
ATOM      8  C   UNL     1      35.305 -24.055 -14.426  0.00  0.00    +0.094 C 
ATOM      9  C   UNL     1      32.857 -24.052 -14.082  0.00  0.00    +0.249 C 
BRANCH   9  10
ATOM     10  C   UNL     1      31.505 -24.048 -14.653  0.00  0.00    +0.054 C 
ATOM     11  C   UNL     1      30.967 -22.866 -15.164  0.00  0.00    +0.005 C 
ATOM     12  C   UNL     1      30.756 -25.224 -14.686  0.00  0.00    +0.005 C 
ATOM     13  C   UNL     1      29.683 -22.861 -15.707  0.00  0.00    +0.000 C 
ATOM     14  C   UNL     1      29.472 -25.219 -15.230  0.00  0.00    +0.000 C 
ATOM     15  C   UNL     1      28.935 -24.037 -15.740  0.00  0.00    +0.000 C 
ENDBRANCH   9  10
ENDBRANCH   1   4
BRANCH   1  16
ATOM     16  C   UNL     1      37.061 -21.883 -18.627  0.00  0.00    +0.002 C 
BRANCH  16  17
ATOM     17  C   UNL     1      36.789 -20.582 -19.381  0.00  0.00    +0.021 C 
BRANCH  17  18
ATOM     18  C   UNL     1      35.882 -20.817 -20.583  0.00  0.00    +0.090 C 
BRANCH  18  20
ATOM     19  O   UNL     1      37.828 -19.027 -21.767  0.00  0.00    -0.270 OA
ATOM     20  N   UNL     1      35.623 -19.596 -21.297  0.00  0.00    -0.301 N 
ATOM     21  C   UNL     1      36.624 -18.798 -21.833  0.00  0.00    +0.246 C 
ATOM     22  H   UNL     1      34.687 -19.313 -21.411  0.00  0.00    +0.150 HD
BRANCH  21  23
ATOM     23  C   UNL     1      36.074 -17.595 -22.521  0.00  0.00    +0.058 C 
ATOM     24  C   UNL     1      35.430 -17.727 -23.688  0.00  0.00    +0.006 C 
BRANCH  24  26
ATOM     25  N   UNL     1      33.898 -15.797 -26.522  0.00  0.00    -0.242 NA
ATOM     26  C   UNL     1      34.840 -16.612 -24.449  0.00  0.00    +0.019 C 
ATOM     27  C   UNL     1      34.660 -15.362 -23.868  0.00  0.00    +0.003 C 
ATOM     28  C   UNL     1      34.445 -16.777 -25.768  0.00  0.00    +0.099 C 
ATOM     29  C   UNL     1      34.101 -14.329 -24.612  0.00  0.00    +0.021 C 
ATOM     30  C   UNL     1      33.740 -14.595 -25.922  0.00  0.00    +0.099 C 
ENDBRANCH  24  26
ENDBRANCH  21  23
ENDBRANCH  18  20
ENDBRANCH  17  18
ENDBRANCH  16  17
ENDBRANCH   1  16
TORSDOF 8
ENDMDL
MODEL 6
REMARK VINA RESULT:     -10.4      4.299      7.870
REMARK  Name = 6914657
REMARK  8 active torsions:
REMARK  status: ('A' for Active; 'I' for Inactive)
REMARK    1  A    between atoms: C_1  and  C_4
REMARK    2  A    between atoms: C_1  and  C_16
REMARK    3  A    between atoms: C_9  and  C_10
REMARK    4  A    between atoms: C_16  and  C_17
REMARK    5  A    between atoms: C_17  and  C_18
REMARK    6  A    between atoms: C_18  and  N_20
REMARK    7  A    between atoms: C_21  and  C_23
REMARK    8  A    between atoms: C_24  and  C_26
REMARK                            x       y       z     vdW  Elec       q    Type
REMARK                         _______ _______ _______ _____ _____    ______ ____
ROOT
ATOM      1  C   UNL     1      34.978 -19.802 -21.593  0.00  0.00    +0.000 C 
ENDROOT
BRANCH   1   4
ATOM      2  O   UNL     1      33.340 -16.193 -26.394  0.00  0.00    -0.270 OA
ATOM      3  N   UNL     1      34.819 -16.847 -24.706  0.00  0.00    -0.276 N 
ATOM      4  C   UNL     1      35.399 -18.912 -22.760  0.00  0.00    +0.003 C 
ATOM      5  C   UNL     1      35.328 -17.427 -22.369  0.00  0.00    +0.022 C 
ATOM      6  C   UNL     1      34.525 -19.182 -23.996  0.00  0.00    +0.022 C 
ATOM      7  C   UNL     1      35.674 -16.529 -23.555  0.00  0.00    +0.094 C 
ATOM      8  C   UNL     1      34.881 -18.240 -25.145  0.00  0.00    +0.094 C 
ATOM      9  C   UNL     1      34.023 -15.936 -25.405  0.00  0.00    +0.249 C 
BRANCH   9  10
ATOM     10  C   UNL     1      33.976 -14.549 -24.928  0.00  0.00    +0.054 C 
ATOM     11  C   UNL     1      33.795 -14.284 -23.570  0.00  0.00    +0.005 C 
ATOM     12  C   UNL     1      34.110 -13.495 -25.831  0.00  0.00    +0.005 C 
ATOM     13  C   UNL     1      33.750 -12.966 -23.116  0.00  0.00    +0.000 C 
ATOM     14  C   UNL     1      34.065 -12.176 -25.377  0.00  0.00    +0.000 C 
ATOM     15  C   UNL     1      33.884 -11.912 -24.019  0.00  0.00    +0.000 C 
ENDBRANCH   9  10
ENDBRANCH   1   4
BRANCH   1  16
ATOM     16  C   UNL     1      36.170 -20.151 -20.706  0.00  0.00    +0.002 C 
BRANCH  16  17
ATOM     17  C   UNL     1      36.017 -21.546 -20.101  0.00  0.00    +0.021 C 
BRANCH  17  18
ATOM     18  C   UNL     1      36.782 -21.669 -18.789  0.00  0.00    +0.090 C 
BRANCH  18  20
ATOM     19  O   UNL     1      37.569 -22.272 -16.066  0.00  0.00    -0.270 OA
ATOM     20  N   UNL     1      35.976 -22.269 -17.761  0.00  0.00    -0.301 N 
ATOM     21  C   UNL     1      36.440 -22.522 -16.476  0.00  0.00    +0.246 C 
ATOM     22  H   UNL     1      35.047 -22.513 -17.979  0.00  0.00    +0.150 HD
BRANCH  21  23
ATOM     23  C   UNL     1      35.395 -23.148 -15.616  0.00  0.00    +0.058 C 
ATOM     24  C   UNL     1      34.112 -23.134 -16.002  0.00  0.00    +0.006 C 
BRANCH  24  26
ATOM     25  N   UNL     1      32.271 -25.129 -13.408  0.00  0.00    -0.242 NA
ATOM     26  C   UNL     1      33.001 -23.727 -15.239  0.00  0.00    +0.019 C 
ATOM     27  C   UNL     1      31.678 -23.479 -15.586  0.00  0.00    +0.003 C 
ATOM     28  C   UNL     1      33.242 -24.552 -14.151  0.00  0.00    +0.099 C 
ATOM     29  C   UNL     1      30.651 -24.054 -14.847  0.00  0.00    +0.021 C 
ATOM     30  C   UNL     1      30.997 -24.864 -13.777  0.00  0.00    +0.099 C 
ENDBRANCH  24  26
ENDBRANCH  21  23
ENDBRANCH  18  20
ENDBRANCH  17  18
ENDBRANCH  16  17
ENDBRANCH   1  16
TORSDOF 8
ENDMDL
MODEL 7
REMARK VINA RESULT:     -10.4      1.423      2.219
REMARK  Name = 6914657
REMARK  8 active torsions:
REMARK  status: ('A' for Active; 'I' for Inactive)
REMARK    1  A    between atoms: C_1  and  C_4
REMARK    2  A    between atoms: C_1  and  C_16
REMARK    3  A    between atoms: C_9  and  C_10
REMARK    4  A    between atoms: C_16  and  C_17
REMARK    5  A    between atoms: C_17  and  C_18
REMARK    6  A    between atoms: C_18  and  N_20
REMARK    7  A    between atoms: C_21  and  C_23
REMARK    8  A    between atoms: C_24  and  C_26
REMARK                            x       y       z     vdW  Elec       q    Type
REMARK                         _______ _______ _______ _____ _____    ______ ____
ROOT
ATOM      1  C   UNL     1      34.930 -14.001 -22.947  0.00  0.00    +0.000 C 
ENDROOT
BRANCH   1   4
ATOM      2  O   UNL     1      31.740  -8.946 -21.206  0.00  0.00    -0.270 OA
ATOM      3  N   UNL     1      32.436 -10.508 -22.801  0.00  0.00    -0.276 N 
ATOM      4  C   UNL     1      33.746 -13.064 -23.171  0.00  0.00    +0.003 C 
ATOM      5  C   UNL     1      34.179 -11.811 -23.949  0.00  0.00    +0.022 C 
ATOM      6  C   UNL     1      33.103 -12.667 -21.832  0.00  0.00    +0.022 C 
ATOM      7  C   UNL     1      33.017 -10.833 -24.109  0.00  0.00    +0.094 C 
ATOM      8  C   UNL     1      31.969 -11.664 -22.037  0.00  0.00    +0.094 C 
ATOM      9  C   UNL     1      32.265  -9.222 -22.283  0.00  0.00    +0.249 C 
BRANCH   9  10
ATOM     10  C   UNL     1      32.757  -8.086 -23.072  0.00  0.00    +0.054 C 
ATOM     11  C   UNL     1      31.883  -7.380 -23.899  0.00  0.00    +0.005 C 
ATOM     12  C   UNL     1      34.098  -7.713 -22.996  0.00  0.00    +0.005 C 
ATOM     13  C   UNL     1      32.350  -6.301 -24.649  0.00  0.00    +0.000 C 
ATOM     14  C   UNL     1      34.566  -6.633 -23.746  0.00  0.00    +0.000 C 
ATOM     15  C   UNL     1      33.691  -5.928 -24.573  0.00  0.00    +0.000 C 
ENDBRANCH   9  10
ENDBRANCH   1   4
BRANCH   1  16
ATOM     16  C   UNL     1      34.567 -15.443 -23.290  0.00  0.00    +0.002 C 
BRANCH  16  17
ATOM     17  C   UNL     1      34.547 -15.661 -24.803  0.00  0.00    +0.021 C 
BRANCH  17  18
ATOM     18  C   UNL     1      35.116 -17.025 -25.174  0.00  0.00    +0.090 C 
BRANCH  18  20
ATOM     19  O   UNL     1      36.897 -18.492 -23.421  0.00  0.00    -0.270 OA
ATOM     20  N   UNL     1      34.758 -18.029 -24.209  0.00  0.00    -0.301 N 
ATOM     21  C   UNL     1      35.685 -18.682 -23.407  0.00  0.00    +0.246 C 
ATOM     22  H   UNL     1      33.808 -18.263 -24.111  0.00  0.00    +0.150 HD
BRANCH  21  23
ATOM     23  C   UNL     1      35.040 -19.672 -22.497  0.00  0.00    +0.058 C 
ATOM     24  C   UNL     1      35.593 -19.947 -21.307  0.00  0.00    +0.006 C 
BRANCH  24  26
ATOM     25  N   UNL     1      35.431 -22.545 -18.601  0.00  0.00    -0.242 NA
ATOM     26  C   UNL     1      35.040 -20.897 -20.327  0.00  0.00    +0.019 C 
ATOM     27  C   UNL     1      33.667 -21.062 -20.183  0.00  0.00    +0.003 C 
ATOM     28  C   UNL     1      35.872 -21.656 -19.519  0.00  0.00    +0.099 C 
ATOM     29  C   UNL     1      33.175 -21.967 -19.250  0.00  0.00    +0.021 C 
ATOM     30  C   UNL     1      34.089 -22.678 -18.491  0.00  0.00    +0.099 C 
ENDBRANCH  24  26
ENDBRANCH  21  23
ENDBRANCH  18  20
ENDBRANCH  17  18
ENDBRANCH  16  17
ENDBRANCH   1  16
TORSDOF 8
ENDMDL
MODEL 8
REMARK VINA RESULT:     -10.4      3.926      7.472
REMARK  Name = 6914657
REMARK  8 active torsions:
REMARK  status: ('A' for Active; 'I' for Inactive)
REMARK    1  A    between atoms: C_1  and  C_4
REMARK    2  A    between atoms: C_1  and  C_16
REMARK    3  A    between atoms: C_9  and  C_10
REMARK    4  A    between atoms: C_16  and  C_17
REMARK    5  A    between atoms: C_17  and  C_18
REMARK    6  A    between atoms: C_18  and  N_20
REMARK    7  A    between atoms: C_21  and  C_23
REMARK    8  A    between atoms: C_24  and  C_26
REMARK                            x       y       z     vdW  Elec       q    Type
REMARK                         _______ _______ _______ _____ _____    ______ ____
ROOT
ATOM      1  C   UNL     1      34.969 -19.607 -22.843  0.00  0.00    +0.000 C 
ENDROOT
BRANCH   1   4
ATOM      2  O   UNL     1      33.176 -14.926 -26.536  0.00  0.00    -0.270 OA
ATOM      3  N   UNL     1      34.658 -15.920 -25.025  0.00  0.00    -0.276 N 
ATOM      4  C   UNL     1      35.349 -18.401 -23.699  0.00  0.00    +0.003 C 
ATOM      5  C   UNL     1      35.150 -17.092 -22.918  0.00  0.00    +0.022 C 
ATOM      6  C   UNL     1      34.531 -18.376 -25.001  0.00  0.00    +0.022 C 
ATOM      7  C   UNL     1      35.454 -15.878 -23.792  0.00  0.00    +0.094 C 
ATOM      8  C   UNL     1      34.841 -17.129 -25.828  0.00  0.00    +0.094 C 
ATOM      9  C   UNL     1      33.811 -14.908 -25.483  0.00  0.00    +0.249 C 
BRANCH   9  10
ATOM     10  C   UNL     1      33.641 -13.715 -24.645  0.00  0.00    +0.054 C 
ATOM     11  C   UNL     1      32.939 -13.802 -23.442  0.00  0.00    +0.005 C 
ATOM     12  C   UNL     1      34.181 -12.495 -25.050  0.00  0.00    +0.005 C 
ATOM     13  C   UNL     1      32.778 -12.669 -22.646  0.00  0.00    +0.000 C 
ATOM     14  C   UNL     1      34.020 -11.361 -24.253  0.00  0.00    +0.000 C 
ATOM     15  C   UNL     1      33.317 -11.448 -23.051  0.00  0.00    +0.000 C 
ENDBRANCH   9  10
ENDBRANCH   1   4
BRANCH   1  16
ATOM     16  C   UNL     1      35.320 -19.376 -21.376  0.00  0.00    +0.002 C 
BRANCH  16  17
ATOM     17  C   UNL     1      35.284 -20.686 -20.589  0.00  0.00    +0.021 C 
BRANCH  17  18
ATOM     18  C   UNL     1      36.647 -21.010 -19.989  0.00  0.00    +0.090 C 
BRANCH  18  20
ATOM     19  O   UNL     1      37.948 -20.593 -17.434  0.00  0.00    -0.270 OA
ATOM     20  N   UNL     1      36.525 -21.819 -18.806  0.00  0.00    -0.301 N 
ATOM     21  C   UNL     1      37.190 -21.540 -17.619  0.00  0.00    +0.246 C 
ATOM     22  H   UNL     1      35.939 -22.609 -18.840  0.00  0.00    +0.150 HD
BRANCH  21  23
ATOM     23  C   UNL     1      36.882 -22.539 -16.556  0.00  0.00    +0.058 C 
ATOM     24  C   UNL     1      37.880 -23.145 -15.897  0.00  0.00    +0.006 C 
BRANCH  24  26
ATOM     25  N   UNL     1      36.286 -25.064 -13.090  0.00  0.00    -0.242 NA
ATOM     26  C   UNL     1      37.693 -24.139 -14.826  0.00  0.00    +0.019 C 
ATOM     27  C   UNL     1      38.686 -25.065 -14.525  0.00  0.00    +0.003 C 
ATOM     28  C   UNL     1      36.522 -24.180 -14.086  0.00  0.00    +0.099 C 
ATOM     29  C   UNL     1      38.481 -25.990 -13.508  0.00  0.00    +0.021 C 
ATOM     30  C   UNL     1      37.275 -25.948 -12.826  0.00  0.00    +0.099 C 
ENDBRANCH  24  26
ENDBRANCH  21  23
ENDBRANCH  18  20
ENDBRANCH  17  18
ENDBRANCH  16  17
ENDBRANCH   1  16
TORSDOF 8
ENDMDL
MODEL 9
REMARK VINA RESULT:     -10.3      6.819     13.203
REMARK  Name = 6914657
REMARK  8 active torsions:
REMARK  status: ('A' for Active; 'I' for Inactive)
REMARK    1  A    between atoms: C_1  and  C_4
REMARK    2  A    between atoms: C_1  and  C_16
REMARK    3  A    between atoms: C_9  and  C_10
REMARK    4  A    between atoms: C_16  and  C_17
REMARK    5  A    between atoms: C_17  and  C_18
REMARK    6  A    between atoms: C_18  and  N_20
REMARK    7  A    between atoms: C_21  and  C_23
REMARK    8  A    between atoms: C_24  and  C_26
REMARK                            x       y       z     vdW  Elec       q    Type
REMARK                         _______ _______ _______ _____ _____    ______ ____
ROOT
ATOM      1  C   UNL     1      36.551 -22.230 -15.408  0.00  0.00    +0.000 C 
ENDROOT
BRANCH   1   4
ATOM      2  O   UNL     1      31.513 -25.092 -13.129  0.00  0.00    -0.270 OA
ATOM      3  N   UNL     1      33.006 -24.592 -14.858  0.00  0.00    -0.276 N 
ATOM      4  C   UNL     1      35.573 -23.400 -15.475  0.00  0.00    +0.003 C 
ATOM      5  C   UNL     1      34.292 -23.000 -16.225  0.00  0.00    +0.022 C 
ATOM      6  C   UNL     1      35.230 -23.908 -14.064  0.00  0.00    +0.022 C 
ATOM      7  C   UNL     1      33.277 -24.141 -16.229  0.00  0.00    +0.094 C 
ATOM      8  C   UNL     1      34.188 -25.023 -14.113  0.00  0.00    +0.094 C 
ATOM      9  C   UNL     1      31.745 -24.675 -14.262  0.00  0.00    +0.249 C 
BRANCH   9  10
ATOM     10  C   UNL     1      30.583 -24.221 -15.035  0.00  0.00    +0.054 C 
ATOM     11  C   UNL     1      29.854 -25.132 -15.800  0.00  0.00    +0.005 C 
ATOM     12  C   UNL     1      30.206 -22.878 -15.005  0.00  0.00    +0.005 C 
ATOM     13  C   UNL     1      28.750 -24.700 -16.534  0.00  0.00    +0.000 C 
ATOM     14  C   UNL     1      29.101 -22.447 -15.738  0.00  0.00    +0.000 C 
ATOM     15  C   UNL     1      28.373 -23.358 -16.504  0.00  0.00    +0.000 C 
ENDBRANCH   9  10
ENDBRANCH   1   4
BRANCH   1  16
ATOM     16  C   UNL     1      37.657 -22.373 -16.451  0.00  0.00    +0.002 C 
BRANCH  16  17
ATOM     17  C   UNL     1      37.542 -21.293 -17.526  0.00  0.00    +0.021 C 
BRANCH  17  18
ATOM     18  C   UNL     1      36.709 -21.773 -18.708  0.00  0.00    +0.090 C 
BRANCH  18  20
ATOM     19  O   UNL     1      34.489 -21.284 -20.504  0.00  0.00    -0.270 OA
ATOM     20  N   UNL     1      36.623 -20.771 -19.736  0.00  0.00    -0.301 N 
ATOM     21  C   UNL     1      35.512 -20.609 -20.554  0.00  0.00    +0.246 C 
ATOM     22  H   UNL     1      37.391 -20.169 -19.866  0.00  0.00    +0.150 HD
BRANCH  21  23
ATOM     23  C   UNL     1      35.692 -19.497 -21.530  0.00  0.00    +0.058 C 
ATOM     24  C   UNL     1      34.853 -19.375 -22.568  0.00  0.00    +0.006 C 
BRANCH  24  26
ATOM     25  N   UNL     1      34.547 -17.608 -25.867  0.00  0.00    -0.242 NA
ATOM     26  C   UNL     1      34.930 -18.313 -23.587  0.00  0.00    +0.019 C 
ATOM     27  C   UNL     1      35.434 -17.055 -23.275  0.00  0.00    +0.003 C 
ATOM     28  C   UNL     1      34.503 -18.537 -24.886  0.00  0.00    +0.099 C 
ATOM     29  C   UNL     1      35.494 -16.073 -24.257  0.00  0.00    +0.021 C 
ATOM     30  C   UNL     1      35.043 -16.397 -25.526  0.00  0.00    +0.099 C 
ENDBRANCH  24  26
ENDBRANCH  21  23
ENDBRANCH  18  20
ENDBRANCH  17  18
ENDBRANCH  16  17
ENDBRANCH   1  16
TORSDOF 8
ENDMDL
