MODEL 1
REMARK VINA RESULT:     -12.3      0.000      0.000
REMARK  Name = 24941249
REMARK  6 active torsions:
REMARK  status: ('A' for Active; 'I' for Inactive)
REMARK    1  A    between atoms: N_1  and  C_13
REMARK    2  A    between atoms: N_2  and  C_26
REMARK    3  A    between atoms: C_14  and  C_19
REMARK    4  A    between atoms: C_19  and  C_20
REMARK    5  A    between atoms: C_20  and  C_23
REMARK    6  A    between atoms: C_26  and  C_28
REMARK                            x       y       z     vdW  Elec       q    Type
REMARK                         _______ _______ _______ _____ _____    ______ ____
ROOT
ATOM      1  N   UNL     1      33.440 -13.743 -23.542  0.00  0.00    -0.230 N 
ATOM      2  N   UNL     1      35.576 -17.679 -21.586  0.00  0.00    -0.316 N 
ATOM      3  N   UNL     1      33.254 -13.321 -24.805  0.00  0.00    -0.169 NA
ATOM      4  N   UNL     1      35.446 -17.278 -23.928  0.00  0.00    -0.229 NA
ATOM      5  C   UNL     1      34.106 -14.933 -23.441  0.00  0.00    +0.088 A 
ATOM      6  C   UNL     1      34.374 -15.315 -24.750  0.00  0.00    +0.052 A 
ATOM      7  C   UNL     1      33.824 -14.282 -25.537  0.00  0.00    +0.082 A 
ATOM      8  C   UNL     1      34.490 -15.693 -22.342  0.00  0.00    +0.053 C 
ATOM      9  C   UNL     1      35.160 -16.861 -22.670  0.00  0.00    +0.130 C 
ATOM     10  C   UNL     1      35.056 -16.511 -24.976  0.00  0.00    +0.103 C 
ATOM     11  C   UNL     1      33.821 -14.172 -27.006  0.00  0.00    +0.054 C 
ATOM     12  H   UNL     1      35.375 -17.385 -20.668  0.00  0.00    +0.148 HD
ENDROOT
BRANCH   1  13
ATOM     13  C   UNL     1      32.962 -12.972 -22.482  0.00  0.00    +0.082 C 
ATOM     14  C   UNL     1      32.162 -10.859 -21.625  0.00  0.00    -0.020 C 
ATOM     15  C   UNL     1      32.640 -11.630 -22.685  0.00  0.00    +0.015 C 
ATOM     16  C   UNL     1      32.806 -13.543 -21.219  0.00  0.00    +0.019 C 
ATOM     17  C   UNL     1      32.006 -11.431 -20.362  0.00  0.00    -0.004 C 
ATOM     18  C   UNL     1      32.327 -12.773 -20.159  0.00  0.00    +0.001 C 
BRANCH  14  19
ATOM     19  C   UNL     1      31.819  -9.424 -21.841  0.00  0.00    +0.036 C 
BRANCH  19  20
ATOM     20  C   UNL     1      33.023  -8.606 -22.324  0.00  0.00    +0.089 C 
BRANCH  20  23
ATOM     21  O   UNL     1      33.138  -6.201 -22.024  0.00  0.00    -0.275 OA
ATOM     22  N   UNL     1      33.495  -7.565 -20.207  0.00  0.00    -0.329 N 
ATOM     23  C   UNL     1      33.217  -7.325 -21.536  0.00  0.00    +0.220 C 
ATOM     24  H   UNL     1      33.642  -6.811 -19.592  0.00  0.00    +0.145 HD
ATOM     25  H   UNL     1      33.547  -8.490 -19.875  0.00  0.00    +0.145 HD
ENDBRANCH  20  23
ENDBRANCH  19  20
ENDBRANCH  14  19
ENDBRANCH   1  13
BRANCH   2  26
ATOM     26  C   UNL     1      36.273 -18.907 -21.774  0.00  0.00    +0.093 C 
ATOM     27  C   UNL     1      37.745 -18.716 -21.411  0.00  0.00    +0.026 C 
BRANCH  26  28
ATOM     28  C   UNL     1      35.608 -20.012 -20.983  0.00  0.00    -0.005 C 
ATOM     29  C   UNL     1      36.384 -20.904 -20.242  0.00  0.00    -0.003 C 
ATOM     30  C   UNL     1      34.219 -20.140 -20.995  0.00  0.00    -0.003 C 
ATOM     31  C   UNL     1      35.771 -21.923 -19.513  0.00  0.00    -0.000 C 
ATOM     32  C   UNL     1      33.606 -21.159 -20.267  0.00  0.00    -0.000 C 
ATOM     33  C   UNL     1      34.382 -22.050 -19.525  0.00  0.00    -0.000 C 
ENDBRANCH  26  28
ENDBRANCH   2  26
TORSDOF 6
ENDMDL
MODEL 2
REMARK VINA RESULT:     -11.7      8.047     13.375
REMARK  Name = 24941249
REMARK  6 active torsions:
REMARK  status: ('A' for Active; 'I' for Inactive)
REMARK    1  A    between atoms: N_1  and  C_13
REMARK    2  A    between atoms: N_2  and  C_26
REMARK    3  A    between atoms: C_14  and  C_19
REMARK    4  A    between atoms: C_19  and  C_20
REMARK    5  A    between atoms: C_20  and  C_23
REMARK    6  A    between atoms: C_26  and  C_28
REMARK                            x       y       z     vdW  Elec       q    Type
REMARK                         _______ _______ _______ _____ _____    ______ ____
ROOT
ATOM      1  N   UNL     1      34.250 -24.315 -13.895  0.00  0.00    -0.230 N 
ATOM      2  N   UNL     1      34.862 -22.439 -18.366  0.00  0.00    -0.316 N 
ATOM      3  N   UNL     1      33.179 -24.762 -13.217  0.00  0.00    -0.169 NA
ATOM      4  N   UNL     1      32.754 -23.131 -17.505  0.00  0.00    -0.229 NA
ATOM      5  C   UNL     1      33.966 -23.862 -15.154  0.00  0.00    +0.088 A 
ATOM      6  C   UNL     1      32.595 -24.031 -15.304  0.00  0.00    +0.052 A 
ATOM      7  C   UNL     1      32.174 -24.587 -14.078  0.00  0.00    +0.082 A 
ATOM      8  C   UNL     1      34.773 -23.331 -16.154  0.00  0.00    +0.053 C 
ATOM      9  C   UNL     1      34.087 -22.987 -17.309  0.00  0.00    +0.130 C 
ATOM     10  C   UNL     1      31.998 -23.653 -16.507  0.00  0.00    +0.103 C 
ATOM     11  C   UNL     1      30.807 -24.971 -13.686  0.00  0.00    +0.054 C 
ATOM     12  H   UNL     1      35.831 -22.329 -18.234  0.00  0.00    +0.148 HD
ENDROOT
BRANCH   1  13
ATOM     13  C   UNL     1      35.508 -24.346 -13.293  0.00  0.00    +0.082 C 
ATOM     14  C   UNL     1      37.726 -25.290 -13.127  0.00  0.00    -0.020 C 
ATOM     15  C   UNL     1      36.468 -25.259 -13.729  0.00  0.00    +0.015 C 
ATOM     16  C   UNL     1      35.806 -23.463 -12.255  0.00  0.00    +0.019 C 
ATOM     17  C   UNL     1      38.024 -24.407 -12.089  0.00  0.00    -0.004 C 
ATOM     18  C   UNL     1      37.065 -23.493 -11.653  0.00  0.00    +0.001 C 
BRANCH  14  19
ATOM     19  C   UNL     1      38.752 -26.267 -13.592  0.00  0.00    +0.036 C 
BRANCH  19  20
ATOM     20  C   UNL     1      40.068 -25.585 -13.984  0.00  0.00    +0.089 C 
BRANCH  20  23
ATOM     21  O   UNL     1      40.900 -26.162 -16.189  0.00  0.00    -0.275 OA
ATOM     22  N   UNL     1      39.512 -24.342 -15.968  0.00  0.00    -0.329 N 
ATOM     23  C   UNL     1      40.221 -25.421 -15.484  0.00  0.00    +0.220 C 
ATOM     24  H   UNL     1      39.532 -24.132 -16.929  0.00  0.00    +0.145 HD
ATOM     25  H   UNL     1      38.986 -23.783 -15.351  0.00  0.00    +0.145 HD
ENDBRANCH  20  23
ENDBRANCH  19  20
ENDBRANCH  14  19
ENDBRANCH   1  13
BRANCH   2  26
ATOM     26  C   UNL     1      34.291 -22.042 -19.609  0.00  0.00    +0.093 C 
ATOM     27  C   UNL     1      32.854 -21.573 -19.381  0.00  0.00    +0.026 C 
BRANCH  26  28
ATOM     28  C   UNL     1      35.157 -20.993 -20.272  0.00  0.00    -0.005 C 
ATOM     29  C   UNL     1      36.521 -20.930 -19.983  0.00  0.00    -0.003 C 
ATOM     30  C   UNL     1      34.593 -20.089 -21.171  0.00  0.00    -0.003 C 
ATOM     31  C   UNL     1      37.319 -19.963 -20.593  0.00  0.00    -0.000 C 
ATOM     32  C   UNL     1      35.391 -19.122 -21.781  0.00  0.00    -0.000 C 
ATOM     33  C   UNL     1      36.755 -19.059 -21.493  0.00  0.00    -0.000 C 
ENDBRANCH  26  28
ENDBRANCH   2  26
TORSDOF 6
ENDMDL
MODEL 3
REMARK VINA RESULT:     -10.5      9.314     11.839
REMARK  Name = 24941249
REMARK  6 active torsions:
REMARK  status: ('A' for Active; 'I' for Inactive)
REMARK    1  A    between atoms: N_1  and  C_13
REMARK    2  A    between atoms: N_2  and  C_26
REMARK    3  A    between atoms: C_14  and  C_19
REMARK    4  A    between atoms: C_19  and  C_20
REMARK    5  A    between atoms: C_20  and  C_23
REMARK    6  A    between atoms: C_26  and  C_28
REMARK                            x       y       z     vdW  Elec       q    Type
REMARK                         _______ _______ _______ _____ _____    ______ ____
ROOT
ATOM      1  N   UNL     1      32.408 -23.178 -17.061  0.00  0.00    -0.230 N 
ATOM      2  N   UNL     1      35.778 -23.608 -13.549  0.00  0.00    -0.316 N 
ATOM      3  N   UNL     1      32.455 -22.790 -18.348  0.00  0.00    -0.169 NA
ATOM      4  N   UNL     1      36.265 -22.870 -15.758  0.00  0.00    -0.229 NA
ATOM      5  C   UNL     1      33.618 -23.149 -16.423  0.00  0.00    +0.088 A 
ATOM      6  C   UNL     1      34.525 -22.706 -17.377  0.00  0.00    +0.052 A 
ATOM      7  C   UNL     1      33.746 -22.504 -18.536  0.00  0.00    +0.082 A 
ATOM      8  C   UNL     1      33.988 -23.466 -15.121  0.00  0.00    +0.053 C 
ATOM      9  C   UNL     1      35.341 -23.299 -14.864  0.00  0.00    +0.130 C 
ATOM     10  C   UNL     1      35.866 -22.571 -17.019  0.00  0.00    +0.103 C 
ATOM     11  C   UNL     1      34.200 -22.035 -19.856  0.00  0.00    +0.054 C 
ATOM     12  H   UNL     1      35.115 -23.919 -12.891  0.00  0.00    +0.148 HD
ENDROOT
BRANCH   1  13
ATOM     13  C   UNL     1      31.189 -23.562 -16.502  0.00  0.00    +0.082 C 
ATOM     14  C   UNL     1      28.816 -23.209 -16.212  0.00  0.00    -0.020 C 
ATOM     15  C   UNL     1      30.035 -22.824 -16.771  0.00  0.00    +0.015 C 
ATOM     16  C   UNL     1      31.123 -24.684 -15.676  0.00  0.00    +0.019 C 
ATOM     17  C   UNL     1      28.750 -24.330 -15.385  0.00  0.00    -0.004 C 
ATOM     18  C   UNL     1      29.903 -25.068 -15.118  0.00  0.00    +0.001 C 
BRANCH  14  19
ATOM     19  C   UNL     1      27.583 -22.420 -16.497  0.00  0.00    +0.036 C 
BRANCH  19  20
ATOM     20  C   UNL     1      27.070 -22.642 -17.925  0.00  0.00    +0.089 C 
BRANCH  20  23
ATOM     21  O   UNL     1      26.306 -20.339 -17.947  0.00  0.00    -0.275 OA
ATOM     22  N   UNL     1      25.585 -21.764 -19.602  0.00  0.00    -0.329 N 
ATOM     23  C   UNL     1      26.298 -21.452 -18.464  0.00  0.00    +0.220 C 
ATOM     24  H   UNL     1      25.043 -21.073 -20.046  0.00  0.00    +0.145 HD
ATOM     25  H   UNL     1      25.618 -22.677 -19.968  0.00  0.00    +0.145 HD
ENDBRANCH  20  23
ENDBRANCH  19  20
ENDBRANCH  14  19
ENDBRANCH   1  13
BRANCH   2  26
ATOM     26  C   UNL     1      37.139 -23.485 -13.144  0.00  0.00    +0.093 C 
ATOM     27  C   UNL     1      37.205 -23.343 -11.624  0.00  0.00    +0.026 C 
BRANCH  26  28
ATOM     28  C   UNL     1      37.946 -24.655 -13.664  0.00  0.00    -0.005 C 
ATOM     29  C   UNL     1      39.340 -24.596 -13.661  0.00  0.00    -0.003 C 
ATOM     30  C   UNL     1      37.298 -25.791 -14.146  0.00  0.00    -0.003 C 
ATOM     31  C   UNL     1      40.085 -25.674 -14.141  0.00  0.00    -0.000 C 
ATOM     32  C   UNL     1      38.042 -26.869 -14.626  0.00  0.00    -0.000 C 
ATOM     33  C   UNL     1      39.436 -26.810 -14.623  0.00  0.00    -0.000 C 
ENDBRANCH  26  28
ENDBRANCH   2  26
TORSDOF 6
ENDMDL
MODEL 4
REMARK VINA RESULT:     -10.4      5.931     10.541
REMARK  Name = 24941249
REMARK  6 active torsions:
REMARK  status: ('A' for Active; 'I' for Inactive)
REMARK    1  A    between atoms: N_1  and  C_13
REMARK    2  A    between atoms: N_2  and  C_26
REMARK    3  A    between atoms: C_14  and  C_19
REMARK    4  A    between atoms: C_19  and  C_20
REMARK    5  A    between atoms: C_20  and  C_23
REMARK    6  A    between atoms: C_26  and  C_28
REMARK                            x       y       z     vdW  Elec       q    Type
REMARK                         _______ _______ _______ _____ _____    ______ ____
ROOT
ATOM      1  N   UNL     1      33.645 -22.371 -18.211  0.00  0.00    -0.230 N 
ATOM      2  N   UNL     1      36.586 -24.838 -15.187  0.00  0.00    -0.316 N 
ATOM      3  N   UNL     1      32.314 -22.192 -18.268  0.00  0.00    -0.169 NA
ATOM      4  N   UNL     1      34.219 -24.761 -14.952  0.00  0.00    -0.229 NA
ATOM      5  C   UNL     1      34.061 -23.157 -17.172  0.00  0.00    +0.088 A 
ATOM      6  C   UNL     1      32.901 -23.518 -16.498  0.00  0.00    +0.052 A 
ATOM      7  C   UNL     1      31.865 -22.892 -17.223  0.00  0.00    +0.082 A 
ATOM      8  C   UNL     1      35.325 -23.575 -16.772  0.00  0.00    +0.053 C 
ATOM      9  C   UNL     1      35.321 -24.381 -15.643  0.00  0.00    +0.130 C 
ATOM     10  C   UNL     1      33.003 -24.334 -15.372  0.00  0.00    +0.103 C 
ATOM     11  C   UNL     1      30.419 -22.938 -16.949  0.00  0.00    +0.054 C 
ATOM     12  H   UNL     1      37.393 -24.569 -15.683  0.00  0.00    +0.148 HD
ENDROOT
BRANCH   1  13
ATOM     13  C   UNL     1      34.462 -21.769 -19.169  0.00  0.00    +0.082 C 
ATOM     14  C   UNL     1      34.711 -20.397 -21.143  0.00  0.00    -0.020 C 
ATOM     15  C   UNL     1      33.895 -20.998 -20.185  0.00  0.00    +0.015 C 
ATOM     16  C   UNL     1      35.845 -21.937 -19.111  0.00  0.00    +0.019 C 
ATOM     17  C   UNL     1      36.094 -20.565 -21.085  0.00  0.00    -0.004 C 
ATOM     18  C   UNL     1      36.662 -21.335 -20.069  0.00  0.00    +0.001 C 
BRANCH  14  19
ATOM     19  C   UNL     1      34.105 -19.575 -22.229  0.00  0.00    +0.036 C 
BRANCH  19  20
ATOM     20  C   UNL     1      34.977 -19.546 -23.490  0.00  0.00    +0.089 C 
BRANCH  20  23
ATOM     21  O   UNL     1      34.594 -17.729 -25.052  0.00  0.00    -0.275 OA
ATOM     22  N   UNL     1      36.039 -17.396 -23.294  0.00  0.00    -0.329 N 
ATOM     23  C   UNL     1      35.161 -18.146 -24.046  0.00  0.00    +0.220 C 
ATOM     24  H   UNL     1      36.241 -16.469 -23.555  0.00  0.00    +0.145 HD
ATOM     25  H   UNL     1      36.464 -17.788 -22.498  0.00  0.00    +0.145 HD
ENDBRANCH  20  23
ENDBRANCH  19  20
ENDBRANCH  14  19
ENDBRANCH   1  13
BRANCH   2  26
ATOM     26  C   UNL     1      36.733 -25.671 -14.041  0.00  0.00    +0.093 C 
ATOM     27  C   UNL     1      37.974 -26.547 -14.205  0.00  0.00    +0.026 C 
BRANCH  26  28
ATOM     28  C   UNL     1      36.766 -24.829 -12.784  0.00  0.00    -0.005 C 
ATOM     29  C   UNL     1      37.563 -23.685 -12.731  0.00  0.00    -0.003 C 
ATOM     30  C   UNL     1      35.999 -25.196 -11.678  0.00  0.00    -0.003 C 
ATOM     31  C   UNL     1      37.594 -22.910 -11.572  0.00  0.00    -0.000 C 
ATOM     32  C   UNL     1      36.030 -24.421 -10.519  0.00  0.00    -0.000 C 
ATOM     33  C   UNL     1      36.827 -23.277 -10.466  0.00  0.00    -0.000 C 
ENDBRANCH  26  28
ENDBRANCH   2  26
TORSDOF 6
ENDMDL
MODEL 5
REMARK VINA RESULT:      -9.8      3.575     10.547
REMARK  Name = 24941249
REMARK  6 active torsions:
REMARK  status: ('A' for Active; 'I' for Inactive)
REMARK    1  A    between atoms: N_1  and  C_13
REMARK    2  A    between atoms: N_2  and  C_26
REMARK    3  A    between atoms: C_14  and  C_19
REMARK    4  A    between atoms: C_19  and  C_20
REMARK    5  A    between atoms: C_20  and  C_23
REMARK    6  A    between atoms: C_26  and  C_28
REMARK                            x       y       z     vdW  Elec       q    Type
REMARK                         _______ _______ _______ _____ _____    ______ ____
ROOT
ATOM      1  N   UNL     1      32.858 -12.601 -21.877  0.00  0.00    -0.230 N 
ATOM      2  N   UNL     1      32.932  -8.092 -23.760  0.00  0.00    -0.316 N 
ATOM      3  N   UNL     1      32.479 -13.102 -20.689  0.00  0.00    -0.169 NA
ATOM      4  N   UNL     1      32.169  -8.589 -21.561  0.00  0.00    -0.229 NA
ATOM      5  C   UNL     1      32.707 -11.246 -21.987  0.00  0.00    +0.088 A 
ATOM      6  C   UNL     1      32.186 -10.835 -20.766  0.00  0.00    +0.052 A 
ATOM      7  C   UNL     1      32.071 -12.024 -20.016  0.00  0.00    +0.082 A 
ATOM      8  C   UNL     1      32.977 -10.362 -23.026  0.00  0.00    +0.053 C 
ATOM      9  C   UNL     1      32.678  -9.040 -22.734  0.00  0.00    +0.130 C 
ATOM     10  C   UNL     1      31.920  -9.480 -20.570  0.00  0.00    +0.103 C 
ATOM     11  C   UNL     1      31.569 -12.175 -18.639  0.00  0.00    +0.054 C 
ATOM     12  H   UNL     1      33.303  -8.408 -24.615  0.00  0.00    +0.148 HD
ENDROOT
BRANCH   1  13
ATOM     13  C   UNL     1      33.352 -13.459 -22.861  0.00  0.00    +0.082 C 
ATOM     14  C   UNL     1      34.738 -15.332 -23.500  0.00  0.00    -0.020 C 
ATOM     15  C   UNL     1      34.245 -14.474 -22.517  0.00  0.00    +0.015 C 
ATOM     16  C   UNL     1      32.952 -13.302 -24.188  0.00  0.00    +0.019 C 
ATOM     17  C   UNL     1      34.338 -15.175 -24.827  0.00  0.00    -0.004 C 
ATOM     18  C   UNL     1      33.444 -14.161 -25.171  0.00  0.00    +0.001 C 
BRANCH  14  19
ATOM     19  C   UNL     1      35.694 -16.416 -23.133  0.00  0.00    +0.036 C 
BRANCH  19  20
ATOM     20  C   UNL     1      35.319 -17.097 -21.811  0.00  0.00    +0.089 C 
BRANCH  20  23
ATOM     21  O   UNL     1      35.127 -19.457 -22.337  0.00  0.00    -0.275 OA
ATOM     22  N   UNL     1      36.862 -18.755 -21.001  0.00  0.00    -0.329 N 
ATOM     23  C   UNL     1      35.731 -18.556 -21.764  0.00  0.00    +0.220 C 
ATOM     24  H   UNL     1      37.228 -19.662 -20.893  0.00  0.00    +0.145 HD
ATOM     25  H   UNL     1      37.302 -17.991 -20.564  0.00  0.00    +0.145 HD
ENDBRANCH  20  23
ENDBRANCH  19  20
ENDBRANCH  14  19
ENDBRANCH   1  13
BRANCH   2  26
ATOM     26  C   UNL     1      32.672  -6.700 -23.600  0.00  0.00    +0.093 C 
ATOM     27  C   UNL     1      33.069  -6.269 -22.189  0.00  0.00    +0.026 C 
BRANCH  26  28
ATOM     28  C   UNL     1      33.378  -5.909 -24.680  0.00  0.00    -0.005 C 
ATOM     29  C   UNL     1      34.667  -6.265 -25.077  0.00  0.00    -0.003 C 
ATOM     30  C   UNL     1      32.739  -4.824 -25.279  0.00  0.00    -0.003 C 
ATOM     31  C   UNL     1      35.317  -5.535 -26.072  0.00  0.00    -0.000 C 
ATOM     32  C   UNL     1      33.389  -4.094 -26.274  0.00  0.00    -0.000 C 
ATOM     33  C   UNL     1      34.678  -4.450 -26.671  0.00  0.00    -0.000 C 
ENDBRANCH  26  28
ENDBRANCH   2  26
TORSDOF 6
ENDMDL
MODEL 6
REMARK VINA RESULT:      -9.7      6.796     10.721
REMARK  Name = 24941249
REMARK  6 active torsions:
REMARK  status: ('A' for Active; 'I' for Inactive)
REMARK    1  A    between atoms: N_1  and  C_13
REMARK    2  A    between atoms: N_2  and  C_26
REMARK    3  A    between atoms: C_14  and  C_19
REMARK    4  A    between atoms: C_19  and  C_20
REMARK    5  A    between atoms: C_20  and  C_23
REMARK    6  A    between atoms: C_26  and  C_28
REMARK                            x       y       z     vdW  Elec       q    Type
REMARK                         _______ _______ _______ _____ _____    ______ ____
ROOT
ATOM      1  N   UNL     1      33.002 -22.545 -17.867  0.00  0.00    -0.230 N 
ATOM      2  N   UNL     1      36.865 -24.565 -15.659  0.00  0.00    -0.316 N 
ATOM      3  N   UNL     1      31.680 -22.566 -17.624  0.00  0.00    -0.169 NA
ATOM      4  N   UNL     1      34.624 -24.843 -14.908  0.00  0.00    -0.229 NA
ATOM      5  C   UNL     1      33.747 -23.267 -16.975  0.00  0.00    +0.088 A 
ATOM      6  C   UNL     1      32.829 -23.801 -16.079  0.00  0.00    +0.052 A 
ATOM      7  C   UNL     1      31.579 -23.332 -16.535  0.00  0.00    +0.082 A 
ATOM      8  C   UNL     1      35.115 -23.494 -16.878  0.00  0.00    +0.053 C 
ATOM      9  C   UNL     1      35.478 -24.298 -15.809  0.00  0.00    +0.130 C 
ATOM     10  C   UNL     1      33.296 -24.599 -15.035  0.00  0.00    +0.103 C 
ATOM     11  C   UNL     1      30.252 -23.594 -15.952  0.00  0.00    +0.054 C 
ATOM     12  H   UNL     1      37.494 -24.175 -16.308  0.00  0.00    +0.148 HD
ENDROOT
BRANCH   1  13
ATOM     13  C   UNL     1      33.490 -21.823 -18.957  0.00  0.00    +0.082 C 
ATOM     14  C   UNL     1      35.351 -21.037 -20.282  0.00  0.00    -0.020 C 
ATOM     15  C   UNL     1      34.863 -21.759 -19.193  0.00  0.00    +0.015 C 
ATOM     16  C   UNL     1      32.604 -21.165 -19.810  0.00  0.00    +0.019 C 
ATOM     17  C   UNL     1      34.465 -20.379 -21.136  0.00  0.00    -0.004 C 
ATOM     18  C   UNL     1      33.091 -20.443 -20.900  0.00  0.00    +0.001 C 
BRANCH  14  19
ATOM     19  C   UNL     1      36.819 -20.968 -20.535  0.00  0.00    +0.036 C 
BRANCH  19  20
ATOM     20  C   UNL     1      37.387 -19.568 -20.275  0.00  0.00    +0.089 C 
BRANCH  20  23
ATOM     21  O   UNL     1      36.169 -17.781 -21.378  0.00  0.00    -0.275 OA
ATOM     22  N   UNL     1      37.969 -18.727 -22.453  0.00  0.00    -0.329 N 
ATOM     23  C   UNL     1      37.089 -18.594 -21.400  0.00  0.00    +0.220 C 
ATOM     24  H   UNL     1      37.878 -18.149 -23.245  0.00  0.00    +0.145 HD
ATOM     25  H   UNL     1      38.686 -19.399 -22.413  0.00  0.00    +0.145 HD
ENDBRANCH  20  23
ENDBRANCH  19  20
ENDBRANCH  14  19
ENDBRANCH   1  13
BRANCH   2  26
ATOM     26  C   UNL     1      37.381 -25.373 -14.605  0.00  0.00    +0.093 C 
ATOM     27  C   UNL     1      38.839 -25.721 -14.900  0.00  0.00    +0.026 C 
BRANCH  26  28
ATOM     28  C   UNL     1      37.197 -24.678 -13.274  0.00  0.00    -0.005 C 
ATOM     29  C   UNL     1      37.772 -23.426 -13.055  0.00  0.00    -0.003 C 
ATOM     30  C   UNL     1      36.452 -25.288 -12.265  0.00  0.00    -0.003 C 
ATOM     31  C   UNL     1      37.603 -22.785 -11.828  0.00  0.00    -0.000 C 
ATOM     32  C   UNL     1      36.283 -24.647 -11.038  0.00  0.00    -0.000 C 
ATOM     33  C   UNL     1      36.858 -23.395 -10.820  0.00  0.00    -0.000 C 
ENDBRANCH  26  28
ENDBRANCH   2  26
TORSDOF 6
ENDMDL
MODEL 7
REMARK VINA RESULT:      -9.6      7.997     11.330
REMARK  Name = 24941249
REMARK  6 active torsions:
REMARK  status: ('A' for Active; 'I' for Inactive)
REMARK    1  A    between atoms: N_1  and  C_13
REMARK    2  A    between atoms: N_2  and  C_26
REMARK    3  A    between atoms: C_14  and  C_19
REMARK    4  A    between atoms: C_19  and  C_20
REMARK    5  A    between atoms: C_20  and  C_23
REMARK    6  A    between atoms: C_26  and  C_28
REMARK                            x       y       z     vdW  Elec       q    Type
REMARK                         _______ _______ _______ _____ _____    ______ ____
ROOT
ATOM      1  N   UNL     1      32.634 -22.483 -17.811  0.00  0.00    -0.230 N 
ATOM      2  N   UNL     1      36.062 -24.820 -15.229  0.00  0.00    -0.316 N 
ATOM      3  N   UNL     1      31.298 -22.377 -17.695  0.00  0.00    -0.169 NA
ATOM      4  N   UNL     1      33.744 -24.875 -14.693  0.00  0.00    -0.229 NA
ATOM      5  C   UNL     1      33.219 -23.257 -16.847  0.00  0.00    +0.088 A 
ATOM      6  C   UNL     1      32.175 -23.688 -16.038  0.00  0.00    +0.052 A 
ATOM      7  C   UNL     1      31.024 -23.112 -16.615  0.00  0.00    +0.082 A 
ATOM      8  C   UNL     1      34.544 -23.610 -16.618  0.00  0.00    +0.053 C 
ATOM      9  C   UNL     1      34.727 -24.427 -15.513  0.00  0.00    +0.130 C 
ATOM     10  C   UNL     1      32.463 -24.509 -14.949  0.00  0.00    +0.103 C 
ATOM     11  C   UNL     1      29.629 -23.239 -16.160  0.00  0.00    +0.054 C 
ATOM     12  H   UNL     1      36.783 -24.502 -15.818  0.00  0.00    +0.148 HD
ENDROOT
BRANCH   1  13
ATOM     13  C   UNL     1      33.288 -21.828 -18.854  0.00  0.00    +0.082 C 
ATOM     14  C   UNL     1      35.337 -21.158 -19.946  0.00  0.00    -0.020 C 
ATOM     15  C   UNL     1      34.682 -21.814 -18.903  0.00  0.00    +0.015 C 
ATOM     16  C   UNL     1      32.549 -21.187 -19.848  0.00  0.00    +0.019 C 
ATOM     17  C   UNL     1      34.598 -20.518 -20.940  0.00  0.00    -0.004 C 
ATOM     18  C   UNL     1      33.204 -20.532 -20.892  0.00  0.00    +0.001 C 
BRANCH  14  19
ATOM     19  C   UNL     1      36.827 -21.142 -19.998  0.00  0.00    +0.036 C 
BRANCH  19  20
ATOM     20  C   UNL     1      37.458 -21.888 -18.816  0.00  0.00    +0.089 C 
BRANCH  20  23
ATOM     21  O   UNL     1      37.303 -21.437 -16.437  0.00  0.00    -0.275 OA
ATOM     22  N   UNL     1      37.972 -19.747 -17.846  0.00  0.00    -0.329 N 
ATOM     23  C   UNL     1      37.559 -21.033 -17.568  0.00  0.00    +0.220 C 
ATOM     24  H   UNL     1      38.076 -19.096 -17.116  0.00  0.00    +0.145 HD
ATOM     25  H   UNL     1      38.162 -19.482 -18.775  0.00  0.00    +0.145 HD
ENDBRANCH  20  23
ENDBRANCH  19  20
ENDBRANCH  14  19
ENDBRANCH   1  13
BRANCH   2  26
ATOM     26  C   UNL     1      36.397 -25.656 -14.125  0.00  0.00    +0.093 C 
ATOM     27  C   UNL     1      37.623 -26.497 -14.479  0.00  0.00    +0.026 C 
BRANCH  26  28
ATOM     28  C   UNL     1      36.593 -24.822 -12.878  0.00  0.00    -0.005 C 
ATOM     29  C   UNL     1      35.895 -25.136 -11.711  0.00  0.00    -0.003 C 
ATOM     30  C   UNL     1      37.472 -23.739 -12.894  0.00  0.00    -0.003 C 
ATOM     31  C   UNL     1      36.076 -24.367 -10.562  0.00  0.00    -0.000 C 
ATOM     32  C   UNL     1      37.652 -22.970 -11.744  0.00  0.00    -0.000 C 
ATOM     33  C   UNL     1      36.955 -23.284 -10.578  0.00  0.00    -0.000 C 
ENDBRANCH  26  28
ENDBRANCH   2  26
TORSDOF 6
ENDMDL
MODEL 8
REMARK VINA RESULT:      -9.6      1.579      2.349
REMARK  Name = 24941249
REMARK  6 active torsions:
REMARK  status: ('A' for Active; 'I' for Inactive)
REMARK    1  A    between atoms: N_1  and  C_13
REMARK    2  A    between atoms: N_2  and  C_26
REMARK    3  A    between atoms: C_14  and  C_19
REMARK    4  A    between atoms: C_19  and  C_20
REMARK    5  A    between atoms: C_20  and  C_23
REMARK    6  A    between atoms: C_26  and  C_28
REMARK                            x       y       z     vdW  Elec       q    Type
REMARK                         _______ _______ _______ _____ _____    ______ ____
ROOT
ATOM      1  N   UNL     1      33.666 -13.711 -24.395  0.00  0.00    -0.230 N 
ATOM      2  N   UNL     1      35.565 -17.543 -22.031  0.00  0.00    -0.316 N 
ATOM      3  N   UNL     1      33.476 -13.426 -25.695  0.00  0.00    -0.169 NA
ATOM      4  N   UNL     1      35.398 -17.408 -24.401  0.00  0.00    -0.229 NA
ATOM      5  C   UNL     1      34.246 -14.929 -24.168  0.00  0.00    +0.088 A 
ATOM      6  C   UNL     1      34.449 -15.479 -25.428  0.00  0.00    +0.052 A 
ATOM      7  C   UNL     1      33.953 -14.505 -26.320  0.00  0.00    +0.082 A 
ATOM      8  C   UNL     1      34.604 -15.582 -22.994  0.00  0.00    +0.053 C 
ATOM      9  C   UNL     1      35.179 -16.828 -23.196  0.00  0.00    +0.130 C 
ATOM     10  C   UNL     1      35.035 -16.740 -25.525  0.00  0.00    +0.103 C 
ATOM     11  C   UNL     1      33.917 -14.567 -27.791  0.00  0.00    +0.054 C 
ATOM     12  H   UNL     1      35.411 -17.131 -21.151  0.00  0.00    +0.148 HD
ENDROOT
BRANCH   1  13
ATOM     13  C   UNL     1      33.275 -12.789 -23.424  0.00  0.00    +0.082 C 
ATOM     14  C   UNL     1      32.426 -12.311 -21.213  0.00  0.00    -0.020 C 
ATOM     15  C   UNL     1      32.817 -13.234 -22.184  0.00  0.00    +0.015 C 
ATOM     16  C   UNL     1      33.343 -11.422 -23.693  0.00  0.00    +0.019 C 
ATOM     17  C   UNL     1      32.495 -10.944 -21.482  0.00  0.00    -0.004 C 
ATOM     18  C   UNL     1      32.953 -10.499 -22.722  0.00  0.00    +0.001 C 
BRANCH  14  19
ATOM     19  C   UNL     1      31.936 -12.786 -19.887  0.00  0.00    +0.036 C 
BRANCH  19  20
ATOM     20  C   UNL     1      32.047 -11.706 -18.805  0.00  0.00    +0.089 C 
BRANCH  20  23
ATOM     21  O   UNL     1      29.924 -10.622 -19.257  0.00  0.00    -0.275 OA
ATOM     22  N   UNL     1      31.810  -9.323 -19.039  0.00  0.00    -0.329 N 
ATOM     23  C   UNL     1      31.131 -10.523 -19.058  0.00  0.00    +0.220 C 
ATOM     24  H   UNL     1      31.323  -8.481 -19.190  0.00  0.00    +0.145 HD
ATOM     25  H   UNL     1      32.780  -9.309 -18.874  0.00  0.00    +0.145 HD
ENDBRANCH  20  23
ENDBRANCH  19  20
ENDBRANCH  14  19
ENDBRANCH   1  13
BRANCH   2  26
ATOM     26  C   UNL     1      36.165 -18.834 -22.087  0.00  0.00    +0.093 C 
ATOM     27  C   UNL     1      37.627 -18.733 -21.655  0.00  0.00    +0.026 C 
BRANCH  26  28
ATOM     28  C   UNL     1      35.369 -19.817 -21.257  0.00  0.00    -0.005 C 
ATOM     29  C   UNL     1      33.975 -19.794 -21.293  0.00  0.00    -0.003 C 
ATOM     30  C   UNL     1      36.030 -20.748 -20.455  0.00  0.00    -0.003 C 
ATOM     31  C   UNL     1      33.242 -20.700 -20.527  0.00  0.00    -0.000 C 
ATOM     32  C   UNL     1      35.297 -21.654 -19.689  0.00  0.00    -0.000 C 
ATOM     33  C   UNL     1      33.902 -21.630 -19.726  0.00  0.00    -0.000 C 
ENDBRANCH  26  28
ENDBRANCH   2  26
TORSDOF 6
ENDMDL
MODEL 9
REMARK VINA RESULT:      -9.4      6.664     11.181
REMARK  Name = 24941249
REMARK  6 active torsions:
REMARK  status: ('A' for Active; 'I' for Inactive)
REMARK    1  A    between atoms: N_1  and  C_13
REMARK    2  A    between atoms: N_2  and  C_26
REMARK    3  A    between atoms: C_14  and  C_19
REMARK    4  A    between atoms: C_19  and  C_20
REMARK    5  A    between atoms: C_20  and  C_23
REMARK    6  A    between atoms: C_26  and  C_28
REMARK                            x       y       z     vdW  Elec       q    Type
REMARK                         _______ _______ _______ _____ _____    ______ ____
ROOT
ATOM      1  N   UNL     1      37.315 -22.676 -16.582  0.00  0.00    -0.230 N 
ATOM      2  N   UNL     1      32.570 -23.305 -15.598  0.00  0.00    -0.316 N 
ATOM      3  N   UNL     1      38.439 -23.268 -16.142  0.00  0.00    -0.169 NA
ATOM      4  N   UNL     1      34.305 -24.583 -14.588  0.00  0.00    -0.229 NA
ATOM      5  C   UNL     1      36.167 -23.174 -16.030  0.00  0.00    +0.088 A 
ATOM      6  C   UNL     1      36.582 -24.174 -15.159  0.00  0.00    +0.052 A 
ATOM      7  C   UNL     1      37.988 -24.179 -15.276  0.00  0.00    +0.082 A 
ATOM      8  C   UNL     1      34.829 -22.843 -16.214  0.00  0.00    +0.053 C 
ATOM      9  C   UNL     1      33.951 -23.599 -15.451  0.00  0.00    +0.130 C 
ATOM     10  C   UNL     1      35.620 -24.878 -14.436  0.00  0.00    +0.103 C 
ATOM     11  C   UNL     1      38.946 -25.048 -14.572  0.00  0.00    +0.054 C 
ATOM     12  H   UNL     1      32.302 -22.591 -16.221  0.00  0.00    +0.148 HD
ENDROOT
BRANCH   1  13
ATOM     13  C   UNL     1      37.401 -21.650 -17.523  0.00  0.00    +0.082 C 
ATOM     14  C   UNL     1      36.769 -20.708 -19.657  0.00  0.00    -0.020 C 
ATOM     15  C   UNL     1      36.683 -21.735 -18.716  0.00  0.00    +0.015 C 
ATOM     16  C   UNL     1      38.205 -20.538 -17.271  0.00  0.00    +0.019 C 
ATOM     17  C   UNL     1      37.573 -19.597 -19.404  0.00  0.00    -0.004 C 
ATOM     18  C   UNL     1      38.291 -19.511 -18.211  0.00  0.00    +0.001 C 
BRANCH  14  19
ATOM     19  C   UNL     1      36.002 -20.799 -20.932  0.00  0.00    +0.036 C 
BRANCH  19  20
ATOM     20  C   UNL     1      35.463 -19.437 -21.384  0.00  0.00    +0.089 C 
BRANCH  20  23
ATOM     21  O   UNL     1      34.945 -19.535 -23.753  0.00  0.00    -0.275 OA
ATOM     22  N   UNL     1      36.868 -18.467 -23.080  0.00  0.00    -0.329 N 
ATOM     23  C   UNL     1      35.702 -19.169 -22.858  0.00  0.00    +0.220 C 
ATOM     24  H   UNL     1      37.133 -18.232 -23.998  0.00  0.00    +0.145 HD
ATOM     25  H   UNL     1      37.434 -18.202 -22.320  0.00  0.00    +0.145 HD
ENDBRANCH  20  23
ENDBRANCH  19  20
ENDBRANCH  14  19
ENDBRANCH   1  13
BRANCH   2  26
ATOM     26  C   UNL     1      31.556 -24.002 -14.879  0.00  0.00    +0.093 C 
ATOM     27  C   UNL     1      31.594 -23.580 -13.411  0.00  0.00    +0.026 C 
BRANCH  26  28
ATOM     28  C   UNL     1      30.207 -23.775 -15.525  0.00  0.00    -0.005 C 
ATOM     29  C   UNL     1      29.647 -24.761 -16.337  0.00  0.00    -0.003 C 
ATOM     30  C   UNL     1      29.522 -22.579 -15.307  0.00  0.00    -0.003 C 
ATOM     31  C   UNL     1      28.403 -24.551 -16.932  0.00  0.00    -0.000 C 
ATOM     32  C   UNL     1      28.278 -22.370 -15.902  0.00  0.00    -0.000 C 
ATOM     33  C   UNL     1      27.718 -23.356 -16.715  0.00  0.00    -0.000 C 
ENDBRANCH  26  28
ENDBRANCH   2  26
TORSDOF 6
ENDMDL
