MODEL 1
REMARK VINA RESULT:     -11.4      0.000      0.000
REMARK  Name = 4369497
REMARK  6 active torsions:
REMARK  status: ('A' for Active; 'I' for Inactive)
REMARK    1  A    between atoms: N_2  and  C_9
REMARK    2  A    between atoms: C_5  and  C_21
REMARK    3  A    between atoms: C_8  and  S_14
REMARK    4  A    between atoms: C_12  and  O_19
REMARK    5  A    between atoms: S_14  and  C_17
REMARK    6  A    between atoms: C_22  and  C_28
REMARK                            x       y       z     vdW  Elec       q    Type
REMARK                         _______ _______ _______ _____ _____    ______ ____
ROOT
ATOM      1  O   UNL     1      33.700 -11.256 -23.321  0.00  0.00    -0.424 OA
ATOM      2  N   UNL     1      34.429 -13.312 -24.038  0.00  0.00    -0.265 N 
ATOM      3  N   UNL     1      32.510 -13.044 -22.613  0.00  0.00    -0.193 NA
ATOM      4  C   UNL     1      33.528 -12.606 -23.318  0.00  0.00    +0.293 C 
ATOM      5  C   UNL     1      32.683 -10.814 -22.538  0.00  0.00    +0.168 C 
ATOM      6  C   UNL     1      31.962 -11.892 -22.109  0.00  0.00    +0.141 C 
ATOM      7  H   UNL     1      35.175 -12.783 -24.403  0.00  0.00    +0.157 HD
ENDROOT
BRANCH   2   9
ATOM      8  C   UNL     1      35.130 -16.938 -23.768  0.00  0.00    +0.107 C 
ATOM      9  C   UNL     1      34.469 -14.699 -24.355  0.00  0.00    +0.087 C 
ATOM     10  C   UNL     1      35.084 -15.576 -23.469  0.00  0.00    +0.036 C 
ATOM     11  C   UNL     1      34.562 -17.411 -24.950  0.00  0.00    +0.022 C 
ATOM     12  C   UNL     1      33.901 -15.163 -25.535  0.00  0.00    +0.152 C 
ATOM     13  C   UNL     1      33.948 -16.525 -25.834  0.00  0.00    +0.040 C 
BRANCH   8  14
ATOM     14  S   UNL     1      35.900 -18.049 -22.663  0.00  0.00    +0.009 S 
ATOM     15  O   UNL     1      37.184 -18.431 -23.234  0.00  0.00    -0.169 OA
ATOM     16  O   UNL     1      35.843 -17.493 -21.318  0.00  0.00    -0.169 OA
BRANCH  14  17
ATOM     17  C   UNL     1      34.847 -19.483 -22.675  0.00  0.00    +0.156 C 
ATOM     18  C   UNL     1      34.574 -19.983 -21.274  0.00  0.00    +0.028 C 
ENDBRANCH  14  17
ENDBRANCH   8  14
BRANCH  12  19
ATOM     19  O   UNL     1      33.297 -14.312 -26.412  0.00  0.00    -0.470 OA
ATOM     20  C   UNL     1      34.093 -13.819 -27.489  0.00  0.00    +0.253 C 
ENDBRANCH  12  19
ENDBRANCH   2   9
BRANCH   5  21
ATOM     21  C   UNL     1      32.603  -9.386 -22.350  0.00  0.00    +0.036 C 
ATOM     22  C   UNL     1      32.967  -7.143 -23.171  0.00  0.00    +0.018 C 
ATOM     23  C   UNL     1      33.043  -8.524 -23.355  0.00  0.00    +0.005 C 
ATOM     24  C   UNL     1      32.090  -8.868 -21.161  0.00  0.00    +0.003 C 
ATOM     25  C   UNL     1      32.453  -6.625 -21.983  0.00  0.00    +0.001 C 
ATOM     26  C   UNL     1      32.014  -7.487 -20.978  0.00  0.00    +0.000 C 
BRANCH  22  28
ATOM     27  N   UNL     1      32.554  -5.267 -24.539  0.00  0.00    -0.244 NA
ATOM     28  C   UNL     1      33.423  -6.248 -24.213  0.00  0.00    +0.081 C 
ATOM     29  C   UNL     1      34.663  -6.420 -24.805  0.00  0.00    +0.019 C 
ATOM     30  C   UNL     1      35.037  -5.523 -25.799  0.00  0.00    +0.003 C 
ATOM     31  C   UNL     1      32.952  -4.414 -25.510  0.00  0.00    +0.099 C 
ATOM     32  C   UNL     1      34.170  -4.499 -26.165  0.00  0.00    +0.021 C 
ENDBRANCH  22  28
ENDBRANCH   5  21
TORSDOF 6
ENDMDL
MODEL 2
REMARK VINA RESULT:     -11.0      5.901     10.813
REMARK  Name = 4369497
REMARK  6 active torsions:
REMARK  status: ('A' for Active; 'I' for Inactive)
REMARK    1  A    between atoms: N_2  and  C_9
REMARK    2  A    between atoms: C_5  and  C_21
REMARK    3  A    between atoms: C_8  and  S_14
REMARK    4  A    between atoms: C_12  and  O_19
REMARK    5  A    between atoms: S_14  and  C_17
REMARK    6  A    between atoms: C_22  and  C_28
REMARK                            x       y       z     vdW  Elec       q    Type
REMARK                         _______ _______ _______ _____ _____    ______ ____
ROOT
ATOM      1  O   UNL     1      33.991 -20.859 -20.395  0.00  0.00    -0.424 OA
ATOM      2  N   UNL     1      33.172 -22.173 -18.697  0.00  0.00    -0.265 N 
ATOM      3  N   UNL     1      35.528 -21.859 -19.071  0.00  0.00    -0.193 NA
ATOM      4  C   UNL     1      34.255 -21.671 -19.334  0.00  0.00    +0.293 C 
ATOM      5  C   UNL     1      35.228 -20.511 -20.831  0.00  0.00    +0.168 C 
ATOM      6  C   UNL     1      36.159 -21.113 -20.034  0.00  0.00    +0.141 C 
ATOM      7  H   UNL     1      32.310 -21.983 -19.133  0.00  0.00    +0.157 HD
ENDROOT
BRANCH   2   9
ATOM      8  C   UNL     1      34.165 -24.225 -15.781  0.00  0.00    +0.107 C 
ATOM      9  C   UNL     1      33.082 -22.930 -17.496  0.00  0.00    +0.087 C 
ATOM     10  C   UNL     1      34.240 -23.479 -16.957  0.00  0.00    +0.036 C 
ATOM     11  C   UNL     1      32.934 -24.416 -15.153  0.00  0.00    +0.022 C 
ATOM     12  C   UNL     1      31.852 -23.117 -16.878  0.00  0.00    +0.152 C 
ATOM     13  C   UNL     1      31.778 -23.862 -15.702  0.00  0.00    +0.040 C 
BRANCH   8  14
ATOM     14  S   UNL     1      35.612 -24.920 -15.094  0.00  0.00    +0.009 S 
ATOM     15  O   UNL     1      35.503 -24.838 -13.644  0.00  0.00    -0.169 OA
ATOM     16  O   UNL     1      35.866 -26.206 -15.729  0.00  0.00    -0.169 OA
BRANCH  14  17
ATOM     17  C   UNL     1      36.915 -23.823 -15.607  0.00  0.00    +0.156 C 
ATOM     18  C   UNL     1      38.270 -24.322 -15.157  0.00  0.00    +0.028 C 
ENDBRANCH  14  17
ENDBRANCH   8  14
BRANCH  12  19
ATOM     19  O   UNL     1      30.711 -22.584 -17.398  0.00  0.00    -0.470 OA
ATOM     20  C   UNL     1      29.503 -22.806 -16.673  0.00  0.00    +0.253 C 
ENDBRANCH  12  19
ENDBRANCH   2   9
BRANCH   5  21
ATOM     21  C   UNL     1      35.271 -19.632 -21.976  0.00  0.00    +0.036 C 
ATOM     22  C   UNL     1      35.129 -17.412 -22.917  0.00  0.00    +0.018 C 
ATOM     23  C   UNL     1      35.090 -18.259 -21.810  0.00  0.00    +0.005 C 
ATOM     24  C   UNL     1      35.490 -20.158 -23.249  0.00  0.00    +0.003 C 
ATOM     25  C   UNL     1      35.349 -17.937 -24.190  0.00  0.00    +0.001 C 
ATOM     26  C   UNL     1      35.530 -19.310 -24.356  0.00  0.00    +0.000 C 
BRANCH  22  28
ATOM     27  N   UNL     1      34.901 -15.277 -23.893  0.00  0.00    -0.244 NA
ATOM     28  C   UNL     1      34.941 -15.987 -22.745  0.00  0.00    +0.081 C 
ATOM     29  C   UNL     1      34.816 -15.435 -21.481  0.00  0.00    +0.019 C 
ATOM     30  C   UNL     1      34.638 -14.059 -21.390  0.00  0.00    +0.003 C 
ATOM     31  C   UNL     1      34.727 -13.942 -23.765  0.00  0.00    +0.099 C 
ATOM     32  C   UNL     1      34.592 -13.291 -22.549  0.00  0.00    +0.021 C 
ENDBRANCH  22  28
ENDBRANCH   5  21
TORSDOF 6
ENDMDL
MODEL 3
REMARK VINA RESULT:     -10.0      3.148     10.346
REMARK  Name = 4369497
REMARK  6 active torsions:
REMARK  status: ('A' for Active; 'I' for Inactive)
REMARK    1  A    between atoms: N_2  and  C_9
REMARK    2  A    between atoms: C_5  and  C_21
REMARK    3  A    between atoms: C_8  and  S_14
REMARK    4  A    between atoms: C_12  and  O_19
REMARK    5  A    between atoms: S_14  and  C_17
REMARK    6  A    between atoms: C_22  and  C_28
REMARK                            x       y       z     vdW  Elec       q    Type
REMARK                         _______ _______ _______ _____ _____    ______ ____
ROOT
ATOM      1  O   UNL     1      33.357 -13.352 -23.140  0.00  0.00    -0.424 OA
ATOM      2  N   UNL     1      32.691 -11.431 -22.071  0.00  0.00    -0.265 N 
ATOM      3  N   UNL     1      34.075 -11.405 -24.039  0.00  0.00    -0.193 NA
ATOM      4  C   UNL     1      33.382 -11.991 -23.091  0.00  0.00    +0.293 C 
ATOM      5  C   UNL     1      34.112 -13.634 -24.232  0.00  0.00    +0.168 C 
ATOM      6  C   UNL     1      34.548 -12.460 -24.777  0.00  0.00    +0.141 C 
ATOM      7  H   UNL     1      32.331 -12.069 -21.414  0.00  0.00    +0.157 HD
ENDROOT
BRANCH   2   9
ATOM      8  C   UNL     1      31.944  -7.846 -22.615  0.00  0.00    +0.107 C 
ATOM      9  C   UNL     1      32.401 -10.064 -21.801  0.00  0.00    +0.087 C 
ATOM     10  C   UNL     1      32.228  -9.188 -22.866  0.00  0.00    +0.036 C 
ATOM     11  C   UNL     1      31.835  -7.390 -21.301  0.00  0.00    +0.022 C 
ATOM     12  C   UNL     1      32.295  -9.619 -20.489  0.00  0.00    +0.152 C 
ATOM     13  C   UNL     1      32.011  -8.276 -20.238  0.00  0.00    +0.040 C 
BRANCH   8  14
ATOM     14  S   UNL     1      31.725  -6.735 -23.944  0.00  0.00    +0.009 S 
ATOM     15  O   UNL     1      31.104  -7.466 -25.040  0.00  0.00    -0.169 OA
ATOM     16  O   UNL     1      31.105  -5.516 -23.444  0.00  0.00    -0.169 OA
BRANCH  14  17
ATOM     17  C   UNL     1      33.380  -6.309 -24.440  0.00  0.00    +0.156 C 
ATOM     18  C   UNL     1      33.383  -5.197 -25.464  0.00  0.00    +0.028 C 
ENDBRANCH  14  17
ENDBRANCH   8  14
BRANCH  12  19
ATOM     19  O   UNL     1      32.463 -10.468 -19.437  0.00  0.00    -0.470 OA
ATOM     20  C   UNL     1      31.290 -11.074 -18.899  0.00  0.00    +0.253 C 
ENDBRANCH  12  19
ENDBRANCH   2   9
BRANCH   5  21
ATOM     21  C   UNL     1      34.273 -15.033 -24.547  0.00  0.00    +0.036 C 
ATOM     22  C   UNL     1      34.978 -17.254 -23.910  0.00  0.00    +0.018 C 
ATOM     23  C   UNL     1      34.822 -15.902 -23.604  0.00  0.00    +0.005 C 
ATOM     24  C   UNL     1      33.881 -15.515 -25.796  0.00  0.00    +0.003 C 
ATOM     25  C   UNL     1      34.586 -17.736 -25.158  0.00  0.00    +0.001 C 
ATOM     26  C   UNL     1      34.037 -16.867 -26.101  0.00  0.00    +0.000 C 
BRANCH  22  28
ATOM     27  N   UNL     1      36.838 -17.912 -22.618  0.00  0.00    -0.244 NA
ATOM     28  C   UNL     1      35.547 -18.156 -22.933  0.00  0.00    +0.081 C 
ATOM     29  C   UNL     1      34.792 -19.180 -22.385  0.00  0.00    +0.019 C 
ATOM     30  C   UNL     1      35.403 -20.009 -21.451  0.00  0.00    +0.003 C 
ATOM     31  C   UNL     1      37.399 -18.739 -21.707  0.00  0.00    +0.099 C 
ATOM     32  C   UNL     1      36.731 -19.791 -21.101  0.00  0.00    +0.021 C 
ENDBRANCH  22  28
ENDBRANCH   5  21
TORSDOF 6
ENDMDL
MODEL 4
REMARK VINA RESULT:     -10.0      7.620     12.315
REMARK  Name = 4369497
REMARK  6 active torsions:
REMARK  status: ('A' for Active; 'I' for Inactive)
REMARK    1  A    between atoms: N_2  and  C_9
REMARK    2  A    between atoms: C_5  and  C_21
REMARK    3  A    between atoms: C_8  and  S_14
REMARK    4  A    between atoms: C_12  and  O_19
REMARK    5  A    between atoms: S_14  and  C_17
REMARK    6  A    between atoms: C_22  and  C_28
REMARK                            x       y       z     vdW  Elec       q    Type
REMARK                         _______ _______ _______ _____ _____    ______ ____
ROOT
ATOM      1  O   UNL     1      34.863 -21.627 -18.603  0.00  0.00    -0.424 OA
ATOM      2  N   UNL     1      33.992 -22.802 -16.832  0.00  0.00    -0.265 N 
ATOM      3  N   UNL     1      32.748 -22.389 -18.850  0.00  0.00    -0.193 NA
ATOM      4  C   UNL     1      33.807 -22.307 -18.077  0.00  0.00    +0.293 C 
ATOM      5  C   UNL     1      34.410 -21.252 -19.826  0.00  0.00    +0.168 C 
ATOM      6  C   UNL     1      33.132 -21.711 -19.978  0.00  0.00    +0.141 C 
ATOM      7  H   UNL     1      34.831 -22.529 -16.397  0.00  0.00    +0.157 HD
ENDROOT
BRANCH   2   9
ATOM      8  C   UNL     1      30.969 -24.482 -15.509  0.00  0.00    +0.107 C 
ATOM      9  C   UNL     1      33.165 -23.658 -16.052  0.00  0.00    +0.087 C 
ATOM     10  C   UNL     1      31.792 -23.649 -16.267  0.00  0.00    +0.036 C 
ATOM     11  C   UNL     1      31.527 -25.318 -14.541  0.00  0.00    +0.022 C 
ATOM     12  C   UNL     1      33.728 -24.487 -15.090  0.00  0.00    +0.152 C 
ATOM     13  C   UNL     1      32.906 -25.321 -14.332  0.00  0.00    +0.040 C 
BRANCH   8  14
ATOM     14  S   UNL     1      29.243 -24.479 -15.770  0.00  0.00    +0.009 S 
ATOM     15  O   UNL     1      29.000 -24.825 -17.163  0.00  0.00    -0.169 OA
ATOM     16  O   UNL     1      28.604 -25.248 -14.711  0.00  0.00    -0.169 OA
BRANCH  14  17
ATOM     17  C   UNL     1      28.765 -22.781 -15.537  0.00  0.00    +0.156 C 
ATOM     18  C   UNL     1      27.439 -22.482 -16.201  0.00  0.00    +0.028 C 
ENDBRANCH  14  17
ENDBRANCH   8  14
BRANCH  12  19
ATOM     19  O   UNL     1      35.072 -24.504 -14.869  0.00  0.00    -0.470 OA
ATOM     20  C   UNL     1      35.523 -24.093 -13.580  0.00  0.00    +0.253 C 
ENDBRANCH  12  19
ENDBRANCH   2   9
BRANCH   5  21
ATOM     21  C   UNL     1      35.332 -20.495 -20.638  0.00  0.00    +0.036 C 
ATOM     22  C   UNL     1      35.750 -18.994 -22.485  0.00  0.00    +0.018 C 
ATOM     23  C   UNL     1      34.857 -19.724 -21.699  0.00  0.00    +0.005 C 
ATOM     24  C   UNL     1      36.698 -20.538 -20.363  0.00  0.00    +0.003 C 
ATOM     25  C   UNL     1      37.116 -19.037 -22.210  0.00  0.00    +0.001 C 
ATOM     26  C   UNL     1      37.591 -19.808 -21.149  0.00  0.00    +0.000 C 
BRANCH  22  28
ATOM     27  N   UNL     1      35.533 -16.875 -23.495  0.00  0.00    -0.244 NA
ATOM     28  C   UNL     1      35.258 -18.194 -23.585  0.00  0.00    +0.081 C 
ATOM     29  C   UNL     1      34.564 -18.776 -24.632  0.00  0.00    +0.019 C 
ATOM     30  C   UNL     1      34.121 -17.947 -25.657  0.00  0.00    +0.003 C 
ATOM     31  C   UNL     1      35.086 -16.100 -24.509  0.00  0.00    +0.099 C 
ATOM     32  C   UNL     1      34.382 -16.582 -25.601  0.00  0.00    +0.021 C 
ENDBRANCH  22  28
ENDBRANCH   5  21
TORSDOF 6
ENDMDL
MODEL 5
REMARK VINA RESULT:      -9.9      3.533     10.287
REMARK  Name = 4369497
REMARK  6 active torsions:
REMARK  status: ('A' for Active; 'I' for Inactive)
REMARK    1  A    between atoms: N_2  and  C_9
REMARK    2  A    between atoms: C_5  and  C_21
REMARK    3  A    between atoms: C_8  and  S_14
REMARK    4  A    between atoms: C_12  and  O_19
REMARK    5  A    between atoms: S_14  and  C_17
REMARK    6  A    between atoms: C_22  and  C_28
REMARK                            x       y       z     vdW  Elec       q    Type
REMARK                         _______ _______ _______ _____ _____    ______ ____
ROOT
ATOM      1  O   UNL     1      33.174 -11.824 -23.627  0.00  0.00    -0.424 OA
ATOM      2  N   UNL     1      32.636  -9.918 -22.465  0.00  0.00    -0.265 N 
ATOM      3  N   UNL     1      34.444 -10.001 -24.049  0.00  0.00    -0.193 NA
ATOM      4  C   UNL     1      33.440 -10.513 -23.375  0.00  0.00    +0.293 C 
ATOM      5  C   UNL     1      34.110 -12.156 -24.552  0.00  0.00    +0.168 C 
ATOM      6  C   UNL     1      34.880 -11.057 -24.809  0.00  0.00    +0.141 C 
ATOM      7  H   UNL     1      32.011 -10.523 -22.004  0.00  0.00    +0.157 HD
ENDROOT
BRANCH   2   9
ATOM      8  C   UNL     1      32.236  -6.242 -22.665  0.00  0.00    +0.107 C 
ATOM      9  C   UNL     1      32.548  -8.554 -22.069  0.00  0.00    +0.087 C 
ATOM     10  C   UNL     1      32.323  -7.583 -23.039  0.00  0.00    +0.036 C 
ATOM     11  C   UNL     1      32.376  -5.883 -21.324  0.00  0.00    +0.022 C 
ATOM     12  C   UNL     1      32.689  -8.203 -20.732  0.00  0.00    +0.152 C 
ATOM     13  C   UNL     1      32.602  -6.862 -20.358  0.00  0.00    +0.040 C 
BRANCH   8  14
ATOM     14  S   UNL     1      31.954  -5.015 -23.873  0.00  0.00    +0.009 S 
ATOM     15  O   UNL     1      30.517  -4.925 -24.093  0.00  0.00    -0.169 OA
ATOM     16  O   UNL     1      32.708  -3.821 -23.519  0.00  0.00    -0.169 OA
BRANCH  14  17
ATOM     17  C   UNL     1      32.692  -5.673 -25.352  0.00  0.00    +0.156 C 
ATOM     18  C   UNL     1      34.109  -5.178 -25.533  0.00  0.00    +0.028 C 
ENDBRANCH  14  17
ENDBRANCH   8  14
BRANCH  12  19
ATOM     19  O   UNL     1      32.912  -9.145 -19.773  0.00  0.00    -0.470 OA
ATOM     20  C   UNL     1      31.783  -9.894 -19.327  0.00  0.00    +0.253 C 
ENDBRANCH  12  19
ENDBRANCH   2   9
BRANCH   5  21
ATOM     21  C   UNL     1      34.079 -13.519 -25.024  0.00  0.00    +0.036 C 
ATOM     22  C   UNL     1      34.523 -15.868 -24.670  0.00  0.00    +0.018 C 
ATOM     23  C   UNL     1      34.552 -14.550 -24.212  0.00  0.00    +0.005 C 
ATOM     24  C   UNL     1      33.578 -13.805 -26.294  0.00  0.00    +0.003 C 
ATOM     25  C   UNL     1      34.022 -16.154 -25.940  0.00  0.00    +0.001 C 
ATOM     26  C   UNL     1      33.549 -15.123 -26.752  0.00  0.00    +0.000 C 
BRANCH  22  28
ATOM     27  N   UNL     1      35.413 -16.554 -22.597  0.00  0.00    -0.244 NA
ATOM     28  C   UNL     1      35.014 -16.938 -23.829  0.00  0.00    +0.081 C 
ATOM     29  C   UNL     1      35.053 -18.243 -24.290  0.00  0.00    +0.019 C 
ATOM     30  C   UNL     1      35.537 -19.220 -23.427  0.00  0.00    +0.003 C 
ATOM     31  C   UNL     1      35.877 -17.532 -21.787  0.00  0.00    +0.099 C 
ATOM     32  C   UNL     1      35.959 -18.866 -22.151  0.00  0.00    +0.021 C 
ENDBRANCH  22  28
ENDBRANCH   5  21
TORSDOF 6
ENDMDL
MODEL 6
REMARK VINA RESULT:      -9.9      7.948     12.339
REMARK  Name = 4369497
REMARK  6 active torsions:
REMARK  status: ('A' for Active; 'I' for Inactive)
REMARK    1  A    between atoms: N_2  and  C_9
REMARK    2  A    between atoms: C_5  and  C_21
REMARK    3  A    between atoms: C_8  and  S_14
REMARK    4  A    between atoms: C_12  and  O_19
REMARK    5  A    between atoms: S_14  and  C_17
REMARK    6  A    between atoms: C_22  and  C_28
REMARK                            x       y       z     vdW  Elec       q    Type
REMARK                         _______ _______ _______ _____ _____    ______ ____
ROOT
ATOM      1  O   UNL     1      36.403 -21.141 -18.697  0.00  0.00    -0.424 OA
ATOM      2  N   UNL     1      36.165 -22.350 -16.758  0.00  0.00    -0.265 N 
ATOM      3  N   UNL     1      34.871 -22.805 -18.735  0.00  0.00    -0.193 NA
ATOM      4  C   UNL     1      35.775 -22.154 -18.038  0.00  0.00    +0.293 C 
ATOM      5  C   UNL     1      35.829 -21.170 -19.926  0.00  0.00    +0.168 C 
ATOM      6  C   UNL     1      34.903 -22.174 -19.953  0.00  0.00    +0.141 C 
ATOM      7  H   UNL     1      36.786 -21.673 -16.406  0.00  0.00    +0.157 HD
ENDROOT
BRANCH   2   9
ATOM      8  C   UNL     1      36.492 -25.257 -14.489  0.00  0.00    +0.107 C 
ATOM      9  C   UNL     1      35.821 -23.382 -15.841  0.00  0.00    +0.087 C 
ATOM     10  C   UNL     1      36.816 -24.241 -15.388  0.00  0.00    +0.036 C 
ATOM     11  C   UNL     1      35.176 -25.407 -14.051  0.00  0.00    +0.022 C 
ATOM     12  C   UNL     1      34.508 -23.525 -15.409  0.00  0.00    +0.152 C 
ATOM     13  C   UNL     1      34.184 -24.541 -14.511  0.00  0.00    +0.040 C 
BRANCH   8  14
ATOM     14  S   UNL     1      37.732 -26.342 -13.913  0.00  0.00    +0.009 S 
ATOM     15  O   UNL     1      37.313 -26.853 -12.615  0.00  0.00    -0.169 OA
ATOM     16  O   UNL     1      38.079 -27.272 -14.979  0.00  0.00    -0.169 OA
BRANCH  14  17
ATOM     17  C   UNL     1      39.149 -25.297 -13.657  0.00  0.00    +0.156 C 
ATOM     18  C   UNL     1      40.359 -25.809 -14.406  0.00  0.00    +0.028 C 
ENDBRANCH  14  17
ENDBRANCH   8  14
BRANCH  12  19
ATOM     19  O   UNL     1      33.524 -22.690 -15.848  0.00  0.00    -0.470 OA
ATOM     20  C   UNL     1      32.245 -23.270 -16.097  0.00  0.00    +0.253 C 
ENDBRANCH  12  19
ENDBRANCH   2   9
BRANCH   5  21
ATOM     21  C   UNL     1      36.304 -20.187 -20.870  0.00  0.00    +0.036 C 
ATOM     22  C   UNL     1      35.948 -18.833 -22.839  0.00  0.00    +0.018 C 
ATOM     23  C   UNL     1      35.487 -19.782 -21.926  0.00  0.00    +0.005 C 
ATOM     24  C   UNL     1      37.580 -19.644 -20.727  0.00  0.00    +0.003 C 
ATOM     25  C   UNL     1      37.224 -18.289 -22.695  0.00  0.00    +0.001 C 
ATOM     26  C   UNL     1      38.040 -18.694 -21.639  0.00  0.00    +0.000 C 
BRANCH  22  28
ATOM     27  N   UNL     1      35.231 -17.115 -24.286  0.00  0.00    -0.244 NA
ATOM     28  C   UNL     1      35.102 -18.412 -23.935  0.00  0.00    +0.081 C 
ATOM     29  C   UNL     1      34.240 -19.305 -24.549  0.00  0.00    +0.019 C 
ATOM     30  C   UNL     1      33.456 -18.833 -25.596  0.00  0.00    +0.003 C 
ATOM     31  C   UNL     1      34.452 -16.692 -25.308  0.00  0.00    +0.099 C 
ATOM     32  C   UNL     1      33.558 -17.503 -25.988  0.00  0.00    +0.021 C 
ENDBRANCH  22  28
ENDBRANCH   5  21
TORSDOF 6
ENDMDL
MODEL 7
REMARK VINA RESULT:      -9.7      3.364     10.910
REMARK  Name = 4369497
REMARK  6 active torsions:
REMARK  status: ('A' for Active; 'I' for Inactive)
REMARK    1  A    between atoms: N_2  and  C_9
REMARK    2  A    between atoms: C_5  and  C_21
REMARK    3  A    between atoms: C_8  and  S_14
REMARK    4  A    between atoms: C_12  and  O_19
REMARK    5  A    between atoms: S_14  and  C_17
REMARK    6  A    between atoms: C_22  and  C_28
REMARK                            x       y       z     vdW  Elec       q    Type
REMARK                         _______ _______ _______ _____ _____    ______ ____
ROOT
ATOM      1  O   UNL     1      33.707 -14.496 -22.692  0.00  0.00    -0.424 OA
ATOM      2  N   UNL     1      32.729 -12.422 -22.554  0.00  0.00    -0.265 N 
ATOM      3  N   UNL     1      34.329 -13.210 -20.939  0.00  0.00    -0.193 NA
ATOM      4  C   UNL     1      33.590 -13.318 -22.020  0.00  0.00    +0.293 C 
ATOM      5  C   UNL     1      34.610 -15.186 -21.951  0.00  0.00    +0.168 C 
ATOM      6  C   UNL     1      34.988 -14.412 -20.891  0.00  0.00    +0.141 C 
ATOM      7  H   UNL     1      32.201 -12.757 -23.314  0.00  0.00    +0.157 HD
ENDROOT
BRANCH   2   9
ATOM      8  C   UNL     1      32.601  -8.726 -22.723  0.00  0.00    +0.107 C 
ATOM      9  C   UNL     1      32.469 -11.070 -22.194  0.00  0.00    +0.087 C 
ATOM     10  C   UNL     1      32.850 -10.055 -23.064  0.00  0.00    +0.036 C 
ATOM     11  C   UNL     1      31.975  -8.422 -21.513  0.00  0.00    +0.022 C 
ATOM     12  C   UNL     1      31.846 -10.776 -20.988  0.00  0.00    +0.152 C 
ATOM     13  C   UNL     1      31.598  -9.447 -20.646  0.00  0.00    +0.040 C 
BRANCH   8  14
ATOM     14  S   UNL     1      33.074  -7.442 -23.807  0.00  0.00    +0.009 S 
ATOM     15  O   UNL     1      34.438  -7.706 -24.246  0.00  0.00    -0.169 OA
ATOM     16  O   UNL     1      32.022  -7.246 -24.794  0.00  0.00    -0.169 OA
BRANCH  14  17
ATOM     17  C   UNL     1      33.102  -5.987 -22.783  0.00  0.00    +0.156 C 
ATOM     18  C   UNL     1      31.959  -5.055 -23.114  0.00  0.00    +0.028 C 
ENDBRANCH  14  17
ENDBRANCH   8  14
BRANCH  12  19
ATOM     19  O   UNL     1      31.470 -11.763 -20.126  0.00  0.00    -0.470 OA
ATOM     20  C   UNL     1      31.596 -11.488 -18.732  0.00  0.00    +0.253 C 
ENDBRANCH  12  19
ENDBRANCH   2   9
BRANCH   5  21
ATOM     21  C   UNL     1      34.944 -16.506 -22.428  0.00  0.00    +0.036 C 
ATOM     22  C   UNL     1      35.286 -18.861 -22.006  0.00  0.00    +0.018 C 
ATOM     23  C   UNL     1      34.961 -17.585 -21.544  0.00  0.00    +0.005 C 
ATOM     24  C   UNL     1      35.255 -16.703 -23.774  0.00  0.00    +0.003 C 
ATOM     25  C   UNL     1      35.595 -19.057 -23.351  0.00  0.00    +0.001 C 
ATOM     26  C   UNL     1      35.579 -17.978 -24.236  0.00  0.00    +0.000 C 
BRANCH  22  28
ATOM     27  N   UNL     1      36.525 -20.308 -20.616  0.00  0.00    -0.244 NA
ATOM     28  C   UNL     1      35.303 -19.980 -21.089  0.00  0.00    +0.081 C 
ATOM     29  C   UNL     1      34.133 -20.637 -20.749  0.00  0.00    +0.019 C 
ATOM     30  C   UNL     1      34.223 -21.704 -19.862  0.00  0.00    +0.003 C 
ATOM     31  C   UNL     1      36.573 -21.351 -19.756  0.00  0.00    +0.099 C 
ATOM     32  C   UNL     1      35.463 -22.074 -19.352  0.00  0.00    +0.021 C 
ENDBRANCH  22  28
ENDBRANCH   5  21
TORSDOF 6
ENDMDL
MODEL 8
REMARK VINA RESULT:      -9.6      7.796     12.217
REMARK  Name = 4369497
REMARK  6 active torsions:
REMARK  status: ('A' for Active; 'I' for Inactive)
REMARK    1  A    between atoms: N_2  and  C_9
REMARK    2  A    between atoms: C_5  and  C_21
REMARK    3  A    between atoms: C_8  and  S_14
REMARK    4  A    between atoms: C_12  and  O_19
REMARK    5  A    between atoms: S_14  and  C_17
REMARK    6  A    between atoms: C_22  and  C_28
REMARK                            x       y       z     vdW  Elec       q    Type
REMARK                         _______ _______ _______ _____ _____    ______ ____
ROOT
ATOM      1  O   UNL     1      36.391 -21.125 -18.805  0.00  0.00    -0.424 OA
ATOM      2  N   UNL     1      36.159 -22.303 -16.846  0.00  0.00    -0.265 N 
ATOM      3  N   UNL     1      34.593 -22.488 -18.663  0.00  0.00    -0.193 NA
ATOM      4  C   UNL     1      35.670 -22.020 -18.075  0.00  0.00    +0.293 C 
ATOM      5  C   UNL     1      35.688 -21.032 -19.961  0.00  0.00    +0.168 C 
ATOM      6  C   UNL     1      34.600 -21.854 -19.879  0.00  0.00    +0.141 C 
ATOM      7  H   UNL     1      36.927 -21.753 -16.569  0.00  0.00    +0.157 HD
ENDROOT
BRANCH   2   9
ATOM      8  C   UNL     1      33.968 -24.305 -14.634  0.00  0.00    +0.107 C 
ATOM      9  C   UNL     1      35.740 -23.272 -15.892  0.00  0.00    +0.087 C 
ATOM     10  C   UNL     1      34.391 -23.361 -15.569  0.00  0.00    +0.036 C 
ATOM     11  C   UNL     1      34.896 -25.152 -14.029  0.00  0.00    +0.022 C 
ATOM     12  C   UNL     1      36.672 -24.111 -15.294  0.00  0.00    +0.152 C 
ATOM     13  C   UNL     1      36.248 -25.056 -14.359  0.00  0.00    +0.040 C 
BRANCH   8  14
ATOM     14  S   UNL     1      32.276 -24.427 -14.219  0.00  0.00    +0.009 S 
ATOM     15  O   UNL     1      31.973 -25.831 -13.981  0.00  0.00    -0.169 OA
ATOM     16  O   UNL     1      31.968 -23.436 -13.198  0.00  0.00    -0.169 OA
BRANCH  14  17
ATOM     17  C   UNL     1      31.422 -23.927 -15.699  0.00  0.00    +0.156 C 
ATOM     18  C   UNL     1      30.488 -22.769 -15.435  0.00  0.00    +0.028 C 
ENDBRANCH  14  17
ENDBRANCH   8  14
BRANCH  12  19
ATOM     19  O   UNL     1      37.997 -24.032 -15.602  0.00  0.00    -0.470 OA
ATOM     20  C   UNL     1      38.859 -25.000 -15.007  0.00  0.00    +0.253 C 
ENDBRANCH  12  19
ENDBRANCH   2   9
BRANCH   5  21
ATOM     21  C   UNL     1      36.222 -20.133 -20.956  0.00  0.00    +0.036 C 
ATOM     22  C   UNL     1      35.925 -18.804 -22.952  0.00  0.00    +0.018 C 
ATOM     23  C   UNL     1      35.406 -19.670 -21.989  0.00  0.00    +0.005 C 
ATOM     24  C   UNL     1      37.556 -19.731 -20.887  0.00  0.00    +0.003 C 
ATOM     25  C   UNL     1      37.258 -18.401 -22.882  0.00  0.00    +0.001 C 
ATOM     26  C   UNL     1      38.073 -18.863 -21.849  0.00  0.00    +0.000 C 
BRANCH  22  28
ATOM     27  N   UNL     1      35.221 -17.012 -24.314  0.00  0.00    -0.244 NA
ATOM     28  C   UNL     1      35.079 -18.323 -24.023  0.00  0.00    +0.081 C 
ATOM     29  C   UNL     1      34.205 -19.177 -24.676  0.00  0.00    +0.019 C 
ATOM     30  C   UNL     1      33.423 -18.648 -25.696  0.00  0.00    +0.003 C 
ATOM     31  C   UNL     1      34.443 -16.533 -25.311  0.00  0.00    +0.099 C 
ATOM     32  C   UNL     1      33.538 -17.302 -26.025  0.00  0.00    +0.021 C 
ENDBRANCH  22  28
ENDBRANCH   5  21
TORSDOF 6
ENDMDL
MODEL 9
REMARK VINA RESULT:      -9.4      3.260     10.532
REMARK  Name = 4369497
REMARK  6 active torsions:
REMARK  status: ('A' for Active; 'I' for Inactive)
REMARK    1  A    between atoms: N_2  and  C_9
REMARK    2  A    between atoms: C_5  and  C_21
REMARK    3  A    between atoms: C_8  and  S_14
REMARK    4  A    between atoms: C_12  and  O_19
REMARK    5  A    between atoms: S_14  and  C_17
REMARK    6  A    between atoms: C_22  and  C_28
REMARK                            x       y       z     vdW  Elec       q    Type
REMARK                         _______ _______ _______ _____ _____    ______ ____
ROOT
ATOM      1  O   UNL     1      34.681 -14.273 -24.088  0.00  0.00    -0.424 OA
ATOM      2  N   UNL     1      34.389 -12.014 -24.390  0.00  0.00    -0.265 N 
ATOM      3  N   UNL     1      34.549 -13.019 -22.210  0.00  0.00    -0.193 NA
ATOM      4  C   UNL     1      34.534 -13.042 -23.523  0.00  0.00    +0.293 C 
ATOM      5  C   UNL     1      34.801 -15.092 -23.013  0.00  0.00    +0.168 C 
ATOM      6  C   UNL     1      34.722 -14.338 -21.877  0.00  0.00    +0.141 C 
ATOM      7  H   UNL     1      34.301 -12.278 -25.335  0.00  0.00    +0.157 HD
ENDROOT
BRANCH   2   9
ATOM      8  C   UNL     1      33.241  -8.712 -23.173  0.00  0.00    +0.107 C 
ATOM      9  C   UNL     1      34.347 -10.612 -24.154  0.00  0.00    +0.087 C 
ATOM     10  C   UNL     1      33.296 -10.085 -23.412  0.00  0.00    +0.036 C 
ATOM     11  C   UNL     1      34.238  -7.877 -23.678  0.00  0.00    +0.022 C 
ATOM     12  C   UNL     1      35.342  -9.787 -24.661  0.00  0.00    +0.152 C 
ATOM     13  C   UNL     1      35.288  -8.414 -24.422  0.00  0.00    +0.040 C 
BRANCH   8  14
ATOM     14  S   UNL     1      31.927  -8.038 -22.243  0.00  0.00    +0.009 S 
ATOM     15  O   UNL     1      30.799  -7.837 -23.142  0.00  0.00    -0.169 OA
ATOM     16  O   UNL     1      31.754  -8.825 -21.030  0.00  0.00    -0.169 OA
BRANCH  14  17
ATOM     17  C   UNL     1      32.517  -6.436 -21.741  0.00  0.00    +0.156 C 
ATOM     18  C   UNL     1      31.809  -5.326 -22.486  0.00  0.00    +0.028 C 
ENDBRANCH  14  17
ENDBRANCH   8  14
BRANCH  12  19
ATOM     19  O   UNL     1      36.376 -10.292 -25.391  0.00  0.00    -0.470 OA
ATOM     20  C   UNL     1      36.415  -9.957 -26.777  0.00  0.00    +0.253 C 
ENDBRANCH  12  19
ENDBRANCH   2   9
BRANCH   5  21
ATOM     21  C   UNL     1      34.975 -16.495 -23.303  0.00  0.00    +0.036 C 
ATOM     22  C   UNL     1      35.277 -18.769 -22.542  0.00  0.00    +0.018 C 
ATOM     23  C   UNL     1      35.107 -17.413 -22.260  0.00  0.00    +0.005 C 
ATOM     24  C   UNL     1      35.013 -16.933 -24.627  0.00  0.00    +0.003 C 
ATOM     25  C   UNL     1      35.315 -19.206 -23.866  0.00  0.00    +0.001 C 
ATOM     26  C   UNL     1      35.182 -18.289 -24.908  0.00  0.00    +0.000 C 
BRANCH  22  28
ATOM     27  N   UNL     1      36.660 -19.819 -20.947  0.00  0.00    -0.244 NA
ATOM     28  C   UNL     1      35.415 -19.720 -21.462  0.00  0.00    +0.081 C 
ATOM     29  C   UNL     1      34.328 -20.455 -21.019  0.00  0.00    +0.019 C 
ATOM     30  C   UNL     1      34.532 -21.351 -19.976  0.00  0.00    +0.003 C 
ATOM     31  C   UNL     1      36.820 -20.701 -19.935  0.00  0.00    +0.099 C 
ATOM     32  C   UNL     1      35.799 -21.483 -19.419  0.00  0.00    +0.021 C 
ENDBRANCH  22  28
ENDBRANCH   5  21
TORSDOF 6
ENDMDL
