MODEL 1
REMARK VINA RESULT:     -11.4      0.000      0.000
REMARK  Name = 118513932
REMARK  2 active torsions:
REMARK  status: ('A' for Active; 'I' for Inactive)
REMARK    1  A    between atoms: C_4  and  N_24
REMARK    2  A    between atoms: C_10  and  C_15
REMARK                            x       y       z     vdW  Elec       q    Type
REMARK                         _______ _______ _______ _____ _____    ______ ____
ROOT
ATOM      1  O   UNL     1      30.628 -10.868 -20.990  0.00  0.00    -0.274 OA
ATOM      2  N   UNL     1      32.305  -9.906 -22.327  0.00  0.00    -0.209 N 
ATOM      3  N   UNL     1      33.839 -11.345 -23.457  0.00  0.00    -0.389 NA
ATOM      4  C   UNL     1      32.512  -7.523 -22.583  0.00  0.00    +0.063 C 
ATOM      5  C   UNL     1      31.899  -8.602 -22.066  0.00  0.00    +0.089 C 
ATOM      6  C   UNL     1      33.648  -7.741 -23.453  0.00  0.00    +0.020 C 
ATOM      7  C   UNL     1      34.087  -8.970 -23.743  0.00  0.00    +0.050 C 
ATOM      8  C   UNL     1      33.400 -10.157 -23.165  0.00  0.00    +0.193 C 
ATOM      9  C   UNL     1      31.599 -10.962 -21.738  0.00  0.00    +0.242 C 
ATOM     10  C   UNL     1      33.169 -12.396 -22.897  0.00  0.00    +0.139 C 
ATOM     11  C   UNL     1      32.112 -12.309 -22.083  0.00  0.00    +0.146 C 
ENDROOT
BRANCH  10  15
ATOM     12  N   UNL     1      34.690 -15.667 -22.777  0.00  0.00    -0.178 N 
ATOM     13  N   UNL     1      34.323 -14.436 -22.336  0.00  0.00    -0.173 NA
ATOM     14  N   UNL     1      34.932 -17.443 -24.099  0.00  0.00    -0.392 NA
ATOM     15  C   UNL     1      33.645 -13.747 -23.211  0.00  0.00    +0.124 C 
ATOM     16  C   UNL     1      33.285 -14.228 -24.579  0.00  0.00    +0.023 C 
ATOM     17  C   UNL     1      33.680 -15.459 -24.955  0.00  0.00    +0.025 C 
ATOM     18  C   UNL     1      34.423 -16.229 -24.012  0.00  0.00    +0.198 C 
ATOM     19  C   UNL     1      35.406 -16.588 -22.059  0.00  0.00    +0.173 C 
ATOM     20  C   UNL     1      35.542 -17.670 -22.892  0.00  0.00    +0.111 C 
ATOM     21  C   UNL     1      33.329 -15.966 -26.330  0.00  0.00    +0.035 C 
ATOM     22  C   UNL     1      36.225 -18.945 -22.628  0.00  0.00    +0.063 C 
ENDBRANCH  10  15
BRANCH   4  24
ATOM     23  N   UNL     1      30.722  -3.737 -22.256  0.00  0.00    +0.389 N 
ATOM     24  N   UNL     1      32.125  -6.237 -22.336  0.00  0.00    -0.311 N 
ATOM     25  C   UNL     1      31.573  -4.115 -23.414  0.00  0.00    -0.027 C 
ATOM     26  C   UNL     1      31.871  -3.056 -24.451  0.00  0.00    -0.020 C 
ATOM     27  C   UNL     1      30.935  -4.178 -24.786  0.00  0.00    -0.020 C 
ATOM     28  C   UNL     1      32.674  -5.104 -23.089  0.00  0.00    +0.071 C 
ATOM     29  C   UNL     1      30.168  -4.937 -21.624  0.00  0.00    -0.060 C 
ATOM     30  C   UNL     1      31.282  -5.889 -21.188  0.00  0.00    +0.067 C 
ATOM     31  H   UNL     1      29.959  -3.143 -22.578  0.00  0.00    -0.084 HD
ATOM     32  H   UNL     1      31.291  -3.234 -21.575  0.00  0.00    -0.084 HD
ENDBRANCH   4  24
TORSDOF 2
ENDMDL
MODEL 2
REMARK VINA RESULT:     -11.2      1.412      2.107
REMARK  Name = 118513932
REMARK  2 active torsions:
REMARK  status: ('A' for Active; 'I' for Inactive)
REMARK    1  A    between atoms: C_4  and  N_24
REMARK    2  A    between atoms: C_10  and  C_15
REMARK                            x       y       z     vdW  Elec       q    Type
REMARK                         _______ _______ _______ _____ _____    ______ ____
ROOT
ATOM      1  O   UNL     1      30.991 -11.743 -21.368  0.00  0.00    -0.274 OA
ATOM      2  N   UNL     1      32.658 -11.031 -22.865  0.00  0.00    -0.209 N 
ATOM      3  N   UNL     1      34.288 -12.611 -23.603  0.00  0.00    -0.389 NA
ATOM      4  C   UNL     1      32.761  -8.764 -23.664  0.00  0.00    +0.063 C 
ATOM      5  C   UNL     1      32.185  -9.724 -22.920  0.00  0.00    +0.089 C 
ATOM      6  C   UNL     1      33.930  -9.119 -24.440  0.00  0.00    +0.020 C 
ATOM      7  C   UNL     1      34.434 -10.358 -24.429  0.00  0.00    +0.050 C 
ATOM      8  C   UNL     1      33.787 -11.413 -23.603  0.00  0.00    +0.193 C 
ATOM      9  C   UNL     1      31.986 -11.958 -22.057  0.00  0.00    +0.242 C 
ATOM     10  C   UNL     1      33.653 -13.537 -22.825  0.00  0.00    +0.139 C 
ATOM     11  C   UNL     1      32.571 -13.319 -22.071  0.00  0.00    +0.146 C 
ENDROOT
BRANCH  10  15
ATOM     12  N   UNL     1      35.154 -16.674 -21.860  0.00  0.00    -0.178 N 
ATOM     13  N   UNL     1      34.689 -15.407 -21.713  0.00  0.00    -0.173 NA
ATOM     14  N   UNL     1      35.688 -18.625 -22.794  0.00  0.00    -0.392 NA
ATOM     15  C   UNL     1      34.200 -14.897 -22.808  0.00  0.00    +0.124 C 
ATOM     16  C   UNL     1      34.140 -15.605 -24.122  0.00  0.00    +0.023 C 
ATOM     17  C   UNL     1      34.619 -16.861 -24.202  0.00  0.00    +0.025 C 
ATOM     18  C   UNL     1      35.158 -17.437 -23.013  0.00  0.00    +0.198 C 
ATOM     19  C   UNL     1      35.715 -17.436 -20.869  0.00  0.00    +0.173 C 
ATOM     20  C   UNL     1      36.035 -18.630 -21.468  0.00  0.00    +0.111 C 
ATOM     21  C   UNL     1      34.569 -17.595 -25.517  0.00  0.00    +0.035 C 
ATOM     22  C   UNL     1      36.663 -19.814 -20.863  0.00  0.00    +0.063 C 
ENDBRANCH  10  15
BRANCH   4  24
ATOM     23  N   UNL     1      31.903  -4.665 -23.345  0.00  0.00    +0.389 N 
ATOM     24  N   UNL     1      32.308  -7.478 -23.729  0.00  0.00    -0.311 N 
ATOM     25  C   UNL     1      31.355  -5.667 -22.395  0.00  0.00    -0.027 C 
ATOM     26  C   UNL     1      30.380  -5.187 -21.343  0.00  0.00    -0.020 C 
ATOM     27  C   UNL     1      31.770  -5.582 -20.941  0.00  0.00    -0.020 C 
ATOM     28  C   UNL     1      31.118  -7.038 -22.994  0.00  0.00    +0.071 C 
ATOM     29  C   UNL     1      33.127  -5.176 -23.966  0.00  0.00    -0.060 C 
ATOM     30  C   UNL     1      32.867  -6.506 -24.673  0.00  0.00    +0.067 C 
ATOM     31  H   UNL     1      32.114  -3.803 -22.843  0.00  0.00    -0.084 HD
ATOM     32  H   UNL     1      31.212  -4.483 -24.073  0.00  0.00    -0.084 HD
ENDBRANCH   4  24
TORSDOF 2
ENDMDL
MODEL 3
REMARK VINA RESULT:     -11.0      1.627      2.282
REMARK  Name = 118513932
REMARK  2 active torsions:
REMARK  status: ('A' for Active; 'I' for Inactive)
REMARK    1  A    between atoms: C_4  and  N_24
REMARK    2  A    between atoms: C_10  and  C_15
REMARK                            x       y       z     vdW  Elec       q    Type
REMARK                         _______ _______ _______ _____ _____    ______ ____
ROOT
ATOM      1  O   UNL     1      31.198 -11.287 -21.588  0.00  0.00    -0.274 OA
ATOM      2  N   UNL     1      32.956 -10.659 -23.017  0.00  0.00    -0.209 N 
ATOM      3  N   UNL     1      34.337 -12.366 -23.955  0.00  0.00    -0.389 NA
ATOM      4  C   UNL     1      33.394  -8.356 -23.553  0.00  0.00    +0.063 C 
ATOM      5  C   UNL     1      32.681  -9.300 -22.915  0.00  0.00    +0.089 C 
ATOM      6  C   UNL     1      34.500  -8.787 -24.382  0.00  0.00    +0.020 C 
ATOM      7  C   UNL     1      34.816 -10.079 -24.520  0.00  0.00    +0.050 C 
ATOM      8  C   UNL     1      34.018 -11.115 -23.810  0.00  0.00    +0.193 C 
ATOM      9  C   UNL     1      32.152 -11.565 -22.311  0.00  0.00    +0.242 C 
ATOM     10  C   UNL     1      33.570 -13.273 -23.279  0.00  0.00    +0.139 C 
ATOM     11  C   UNL     1      32.530 -12.987 -22.489  0.00  0.00    +0.146 C 
ENDROOT
BRANCH  10  15
ATOM     12  N   UNL     1      33.998 -16.642 -24.500  0.00  0.00    -0.178 N 
ATOM     13  N   UNL     1      33.617 -15.339 -24.518  0.00  0.00    -0.173 NA
ATOM     14  N   UNL     1      34.858 -18.573 -23.799  0.00  0.00    -0.392 NA
ATOM     15  C   UNL     1      33.910 -14.691 -23.426  0.00  0.00    +0.124 C 
ATOM     16  C   UNL     1      34.600 -15.288 -22.243  0.00  0.00    +0.023 C 
ATOM     17  C   UNL     1      34.952 -16.587 -22.288  0.00  0.00    +0.025 C 
ATOM     18  C   UNL     1      34.640 -17.313 -23.475  0.00  0.00    +0.198 C 
ATOM     19  C   UNL     1      33.810 -17.540 -25.517  0.00  0.00    +0.173 C 
ATOM     20  C   UNL     1      34.347 -18.719 -25.062  0.00  0.00    +0.111 C 
ATOM     21  C   UNL     1      35.649 -17.211 -21.106  0.00  0.00    +0.035 C 
ATOM     22  C   UNL     1      34.416 -20.016 -25.752  0.00  0.00    +0.063 C 
ENDBRANCH  10  15
BRANCH   4  24
ATOM     23  N   UNL     1      32.074  -4.377 -23.808  0.00  0.00    +0.389 N 
ATOM     24  N   UNL     1      33.136  -7.018 -23.463  0.00  0.00    -0.311 N 
ATOM     25  C   UNL     1      33.070  -4.945 -24.754  0.00  0.00    -0.027 C 
ATOM     26  C   UNL     1      33.688  -4.017 -25.775  0.00  0.00    -0.020 C 
ATOM     27  C   UNL     1      32.694  -5.049 -26.217  0.00  0.00    -0.020 C 
ATOM     28  C   UNL     1      33.955  -6.023 -24.162  0.00  0.00    +0.071 C 
ATOM     29  C   UNL     1      31.264  -5.448 -23.225  0.00  0.00    -0.060 C 
ATOM     30  C   UNL     1      32.147  -6.481 -22.524  0.00  0.00    +0.067 C 
ATOM     31  H   UNL     1      31.466  -3.728 -24.307  0.00  0.00    -0.084 HD
ATOM     32  H   UNL     1      32.566  -3.887 -23.061  0.00  0.00    -0.084 HD
ENDBRANCH   4  24
TORSDOF 2
ENDMDL
MODEL 4
REMARK VINA RESULT:     -10.7      8.091     12.726
REMARK  Name = 118513932
REMARK  2 active torsions:
REMARK  status: ('A' for Active; 'I' for Inactive)
REMARK    1  A    between atoms: C_4  and  N_24
REMARK    2  A    between atoms: C_10  and  C_15
REMARK                            x       y       z     vdW  Elec       q    Type
REMARK                         _______ _______ _______ _____ _____    ______ ____
ROOT
ATOM      1  O   UNL     1      32.572 -21.705 -20.121  0.00  0.00    -0.274 OA
ATOM      2  N   UNL     1      34.799 -20.956 -20.057  0.00  0.00    -0.209 N 
ATOM      3  N   UNL     1      36.218 -21.723 -18.296  0.00  0.00    -0.389 NA
ATOM      4  C   UNL     1      35.677 -19.445 -21.710  0.00  0.00    +0.063 C 
ATOM      5  C   UNL     1      34.670 -20.175 -21.200  0.00  0.00    +0.089 C 
ATOM      6  C   UNL     1      36.954 -19.482 -21.027  0.00  0.00    +0.020 C 
ATOM      7  C   UNL     1      37.142 -20.213 -19.923  0.00  0.00    +0.050 C 
ATOM      8  C   UNL     1      36.019 -21.018 -19.369  0.00  0.00    +0.193 C 
ATOM      9  C   UNL     1      33.688 -21.679 -19.605  0.00  0.00    +0.242 C 
ATOM     10  C   UNL     1      35.151 -22.440 -17.832  0.00  0.00    +0.139 C 
ATOM     11  C   UNL     1      33.933 -22.479 -18.382  0.00  0.00    +0.146 C 
ENDROOT
BRANCH  10  15
ATOM     12  N   UNL     1      36.565 -24.325 -15.098  0.00  0.00    -0.178 N 
ATOM     13  N   UNL     1      36.547 -23.583 -16.236  0.00  0.00    -0.173 NA
ATOM     14  N   UNL     1      35.862 -25.442 -13.304  0.00  0.00    -0.392 NA
ATOM     15  C   UNL     1      35.350 -23.244 -16.623  0.00  0.00    +0.124 C 
ATOM     16  C   UNL     1      34.089 -23.615 -15.911  0.00  0.00    +0.023 C 
ATOM     17  C   UNL     1      34.174 -24.352 -14.788  0.00  0.00    +0.025 C 
ATOM     18  C   UNL     1      35.477 -24.734 -14.348  0.00  0.00    +0.198 C 
ATOM     19  C   UNL     1      37.687 -24.809 -14.481  0.00  0.00    +0.173 C 
ATOM     20  C   UNL     1      37.229 -25.491 -13.381  0.00  0.00    +0.111 C 
ATOM     21  C   UNL     1      32.917 -24.739 -14.054  0.00  0.00    +0.035 C 
ATOM     22  C   UNL     1      38.011 -26.210 -12.363  0.00  0.00    +0.063 C 
ENDBRANCH  10  15
BRANCH   4  24
ATOM     23  N   UNL     1      34.616 -16.973 -24.935  0.00  0.00    +0.389 N 
ATOM     24  N   UNL     1      35.566 -18.674 -22.831  0.00  0.00    -0.311 N 
ATOM     25  C   UNL     1      34.336 -18.432 -24.928  0.00  0.00    -0.027 C 
ATOM     26  C   UNL     1      33.735 -19.045 -26.173  0.00  0.00    -0.020 C 
ATOM     27  C   UNL     1      32.892 -18.887 -24.943  0.00  0.00    -0.020 C 
ATOM     28  C   UNL     1      35.341 -19.262 -24.156  0.00  0.00    +0.071 C 
ATOM     29  C   UNL     1      34.749 -16.478 -23.563  0.00  0.00    -0.060 C 
ATOM     30  C   UNL     1      35.845 -17.235 -22.813  0.00  0.00    +0.067 C 
ATOM     31  H   UNL     1      33.850 -16.484 -25.397  0.00  0.00    -0.084 HD
ATOM     32  H   UNL     1      35.488 -16.803 -25.436  0.00  0.00    -0.084 HD
ENDBRANCH   4  24
TORSDOF 2
ENDMDL
MODEL 5
REMARK VINA RESULT:     -10.7      1.937     10.318
REMARK  Name = 118513932
REMARK  2 active torsions:
REMARK  status: ('A' for Active; 'I' for Inactive)
REMARK    1  A    between atoms: C_4  and  N_24
REMARK    2  A    between atoms: C_10  and  C_15
REMARK                            x       y       z     vdW  Elec       q    Type
REMARK                         _______ _______ _______ _____ _____    ______ ____
ROOT
ATOM      1  O   UNL     1      33.502 -12.865 -26.386  0.00  0.00    -0.274 OA
ATOM      2  N   UNL     1      33.758 -13.422 -24.117  0.00  0.00    -0.209 N 
ATOM      3  N   UNL     1      33.318 -11.751 -22.469  0.00  0.00    -0.389 NA
ATOM      4  C   UNL     1      34.449 -15.618 -23.419  0.00  0.00    +0.063 C 
ATOM      5  C   UNL     1      34.143 -14.732 -24.382  0.00  0.00    +0.089 C 
ATOM      6  C   UNL     1      34.370 -15.177 -22.043  0.00  0.00    +0.020 C 
ATOM      7  C   UNL     1      34.007 -13.931 -21.722  0.00  0.00    +0.050 C 
ATOM      8  C   UNL     1      33.670 -12.958 -22.797  0.00  0.00    +0.193 C 
ATOM      9  C   UNL     1      33.461 -12.575 -25.192  0.00  0.00    +0.242 C 
ATOM     10  C   UNL     1      33.022 -10.903 -23.498  0.00  0.00    +0.139 C 
ATOM     11  C   UNL     1      33.061 -11.203 -24.800  0.00  0.00    +0.146 C 
ENDROOT
BRANCH  10  15
ATOM     12  N   UNL     1      32.034  -7.433 -23.604  0.00  0.00    -0.178 N 
ATOM     13  N   UNL     1      32.395  -8.651 -24.084  0.00  0.00    -0.173 NA
ATOM     14  N   UNL     1      31.529  -5.798 -22.177  0.00  0.00    -0.392 NA
ATOM     15  C   UNL     1      32.623  -9.535 -23.153  0.00  0.00    +0.124 C 
ATOM     16  C   UNL     1      32.509  -9.274 -21.686  0.00  0.00    +0.023 C 
ATOM     17  C   UNL     1      32.147  -8.044 -21.275  0.00  0.00    +0.025 C 
ATOM     18  C   UNL     1      31.893  -7.062 -22.279  0.00  0.00    +0.198 C 
ATOM     19  C   UNL     1      31.739  -6.333 -24.366  0.00  0.00    +0.173 C 
ATOM     20  C   UNL     1      31.432  -5.342 -23.466  0.00  0.00    +0.111 C 
ATOM     21  C   UNL     1      32.026  -7.757 -19.801  0.00  0.00    +0.035 C 
ATOM     22  C   UNL     1      31.041  -3.951 -23.740  0.00  0.00    +0.063 C 
ENDBRANCH  10  15
BRANCH   4  24
ATOM     23  N   UNL     1      34.914 -19.760 -23.941  0.00  0.00    +0.389 N 
ATOM     24  N   UNL     1      34.828 -16.907 -23.664  0.00  0.00    -0.311 N 
ATOM     25  C   UNL     1      35.104 -19.100 -22.624  0.00  0.00    -0.027 C 
ATOM     26  C   UNL     1      35.575 -19.950 -21.465  0.00  0.00    -0.020 C 
ATOM     27  C   UNL     1      34.159 -19.458 -21.496  0.00  0.00    -0.020 C 
ATOM     28  C   UNL     1      35.621 -17.678 -22.701  0.00  0.00    +0.071 C 
ATOM     29  C   UNL     1      34.049 -18.943 -24.794  0.00  0.00    -0.060 C 
ATOM     30  C   UNL     1      34.627 -17.538 -24.972  0.00  0.00    +0.067 C 
ATOM     31  H   UNL     1      34.483 -20.674 -23.801  0.00  0.00    -0.084 HD
ATOM     32  H   UNL     1      35.821 -19.869 -24.393  0.00  0.00    -0.084 HD
ENDBRANCH   4  24
TORSDOF 2
ENDMDL
MODEL 6
REMARK VINA RESULT:     -10.3      9.172     15.148
REMARK  Name = 118513932
REMARK  2 active torsions:
REMARK  status: ('A' for Active; 'I' for Inactive)
REMARK    1  A    between atoms: C_4  and  N_24
REMARK    2  A    between atoms: C_10  and  C_15
REMARK                            x       y       z     vdW  Elec       q    Type
REMARK                         _______ _______ _______ _____ _____    ______ ____
ROOT
ATOM      1  O   UNL     1      32.573 -23.280 -18.010  0.00  0.00    -0.274 OA
ATOM      2  N   UNL     1      34.791 -22.824 -17.378  0.00  0.00    -0.209 N 
ATOM      3  N   UNL     1      36.109 -21.397 -18.767  0.00  0.00    -0.389 NA
ATOM      4  C   UNL     1      35.758 -23.754 -15.382  0.00  0.00    +0.063 C 
ATOM      5  C   UNL     1      34.725 -23.603 -16.228  0.00  0.00    +0.089 C 
ATOM      6  C   UNL     1      36.994 -23.067 -15.692  0.00  0.00    +0.020 C 
ATOM      7  C   UNL     1      37.121 -22.303 -16.782  0.00  0.00    +0.050 C 
ATOM      8  C   UNL     1      35.970 -22.143 -17.712  0.00  0.00    +0.193 C 
ATOM      9  C   UNL     1      33.658 -22.732 -18.197  0.00  0.00    +0.242 C 
ATOM     10  C   UNL     1      35.019 -21.289 -19.584  0.00  0.00    +0.139 C 
ATOM     11  C   UNL     1      33.834 -21.877 -19.394  0.00  0.00    +0.146 C 
ENDROOT
BRANCH  10  15
ATOM     12  N   UNL     1      34.432 -19.498 -22.662  0.00  0.00    -0.178 N 
ATOM     13  N   UNL     1      34.152 -20.302 -21.604  0.00  0.00    -0.173 NA
ATOM     14  N   UNL     1      35.545 -18.156 -24.049  0.00  0.00    -0.392 NA
ATOM     15  C   UNL     1      35.152 -20.453 -20.781  0.00  0.00    +0.124 C 
ATOM     16  C   UNL     1      36.495 -19.820 -20.949  0.00  0.00    +0.023 C 
ATOM     17  C   UNL     1      36.709 -19.034 -22.020  0.00  0.00    +0.025 C 
ATOM     18  C   UNL     1      35.627 -18.856 -22.934  0.00  0.00    +0.198 C 
ATOM     19  C   UNL     1      33.562 -19.176 -23.669  0.00  0.00    +0.173 C 
ATOM     20  C   UNL     1      34.268 -18.350 -24.508  0.00  0.00    +0.111 C 
ATOM     21  C   UNL     1      38.055 -18.385 -22.211  0.00  0.00    +0.035 C 
ATOM     22  C   UNL     1      33.815 -17.710 -25.752  0.00  0.00    +0.063 C 
ENDBRANCH  10  15
BRANCH   4  24
ATOM     23  N   UNL     1      35.958 -25.507 -11.570  0.00  0.00    +0.389 N 
ATOM     24  N   UNL     1      35.708 -24.514 -14.249  0.00  0.00    -0.311 N 
ATOM     25  C   UNL     1      37.092 -25.559 -12.528  0.00  0.00    -0.027 C 
ATOM     26  C   UNL     1      38.315 -26.358 -12.136  0.00  0.00    -0.020 C 
ATOM     27  C   UNL     1      38.382 -24.860 -12.154  0.00  0.00    -0.020 C 
ATOM     28  C   UNL     1      36.684 -25.578 -13.987  0.00  0.00    +0.071 C 
ATOM     29  C   UNL     1      35.090 -24.368 -11.877  0.00  0.00    -0.060 C 
ATOM     30  C   UNL     1      34.579 -24.443 -13.317  0.00  0.00    +0.067 C 
ATOM     31  H   UNL     1      36.320 -25.408 -10.622  0.00  0.00    -0.084 HD
ATOM     32  H   UNL     1      35.417 -26.368 -11.647  0.00  0.00    -0.084 HD
ENDBRANCH   4  24
TORSDOF 2
ENDMDL
MODEL 7
REMARK VINA RESULT:     -10.2      1.859      2.827
REMARK  Name = 118513932
REMARK  2 active torsions:
REMARK  status: ('A' for Active; 'I' for Inactive)
REMARK    1  A    between atoms: C_4  and  N_24
REMARK    2  A    between atoms: C_10  and  C_15
REMARK                            x       y       z     vdW  Elec       q    Type
REMARK                         _______ _______ _______ _____ _____    ______ ____
ROOT
ATOM      1  O   UNL     1      34.696 -11.169 -25.956  0.00  0.00    -0.274 OA
ATOM      2  N   UNL     1      33.366 -11.109 -24.019  0.00  0.00    -0.209 N 
ATOM      3  N   UNL     1      33.160 -13.093 -22.707  0.00  0.00    -0.389 NA
ATOM      4  C   UNL     1      32.215  -9.112 -23.331  0.00  0.00    +0.063 C 
ATOM      5  C   UNL     1      33.018  -9.773 -24.183  0.00  0.00    +0.089 C 
ATOM      6  C   UNL     1      31.692  -9.837 -22.192  0.00  0.00    +0.020 C 
ATOM      7  C   UNL     1      31.990 -11.123 -21.979  0.00  0.00    +0.050 C 
ATOM      8  C   UNL     1      32.881 -11.844 -22.928  0.00  0.00    +0.193 C 
ATOM      9  C   UNL     1      34.210 -11.707 -24.964  0.00  0.00    +0.242 C 
ATOM     10  C   UNL     1      33.982 -13.703 -23.612  0.00  0.00    +0.139 C 
ATOM     11  C   UNL     1      34.519 -13.131 -24.695  0.00  0.00    +0.146 C 
ENDROOT
BRANCH  10  15
ATOM     12  N   UNL     1      35.035 -16.845 -22.182  0.00  0.00    -0.178 N 
ATOM     13  N   UNL     1      34.781 -15.512 -22.236  0.00  0.00    -0.173 NA
ATOM     14  N   UNL     1      35.203 -18.981 -22.792  0.00  0.00    -0.392 NA
ATOM     15  C   UNL     1      34.312 -15.113 -23.384  0.00  0.00    +0.124 C 
ATOM     16  C   UNL     1      34.064 -16.004 -24.558  0.00  0.00    +0.023 C 
ATOM     17  C   UNL     1      34.337 -17.317 -24.441  0.00  0.00    +0.025 C 
ATOM     18  C   UNL     1      34.851 -17.774 -23.190  0.00  0.00    +0.198 C 
ATOM     19  C   UNL     1      35.529 -17.518 -21.097  0.00  0.00    +0.173 C 
ATOM     20  C   UNL     1      35.624 -18.829 -21.496  0.00  0.00    +0.111 C 
ATOM     21  C   UNL     1      34.095 -18.236 -25.611  0.00  0.00    +0.035 C 
ATOM     22  C   UNL     1      36.096 -19.986 -20.722  0.00  0.00    +0.063 C 
ENDBRANCH  10  15
BRANCH   4  24
ATOM     23  N   UNL     1      31.731  -4.939 -23.332  0.00  0.00    +0.389 N 
ATOM     24  N   UNL     1      31.865  -7.801 -23.479  0.00  0.00    -0.311 N 
ATOM     25  C   UNL     1      31.196  -5.800 -22.246  0.00  0.00    -0.027 C 
ATOM     26  C   UNL     1      30.369  -5.144 -21.162  0.00  0.00    -0.020 C 
ATOM     27  C   UNL     1      31.754  -5.626 -20.849  0.00  0.00    -0.020 C 
ATOM     28  C   UNL     1      30.791  -7.192 -22.687  0.00  0.00    +0.071 C 
ATOM     29  C   UNL     1      32.844  -5.612 -24.006  0.00  0.00    -0.060 C 
ATOM     30  C   UNL     1      32.409  -6.970 -24.557  0.00  0.00    +0.067 C 
ATOM     31  H   UNL     1      32.060  -4.060 -22.935  0.00  0.00    -0.084 HD
ATOM     32  H   UNL     1      30.991  -4.760 -24.010  0.00  0.00    -0.084 HD
ENDBRANCH   4  24
TORSDOF 2
ENDMDL
MODEL 8
REMARK VINA RESULT:     -10.2      1.382      1.814
REMARK  Name = 118513932
REMARK  2 active torsions:
REMARK  status: ('A' for Active; 'I' for Inactive)
REMARK    1  A    between atoms: C_4  and  N_24
REMARK    2  A    between atoms: C_10  and  C_15
REMARK                            x       y       z     vdW  Elec       q    Type
REMARK                         _______ _______ _______ _____ _____    ______ ____
ROOT
ATOM      1  O   UNL     1      34.962  -9.552 -25.135  0.00  0.00    -0.274 OA
ATOM      2  N   UNL     1      33.440  -9.820 -23.364  0.00  0.00    -0.209 N 
ATOM      3  N   UNL     1      32.976 -12.026 -22.575  0.00  0.00    -0.389 NA
ATOM      4  C   UNL     1      32.346  -7.941 -22.335  0.00  0.00    +0.063 C 
ATOM      5  C   UNL     1      33.193  -8.457 -23.242  0.00  0.00    +0.089 C 
ATOM      6  C   UNL     1      31.663  -8.858 -21.448  0.00  0.00    +0.020 C 
ATOM      7  C   UNL     1      31.856 -10.180 -21.515  0.00  0.00    +0.050 C 
ATOM      8  C   UNL     1      32.798 -10.739 -22.523  0.00  0.00    +0.193 C 
ATOM      9  C   UNL     1      34.341 -10.258 -24.343  0.00  0.00    +0.242 C 
ATOM     10  C   UNL     1      33.850 -12.481 -23.520  0.00  0.00    +0.139 C 
ATOM     11  C   UNL     1      34.533 -11.727 -24.387  0.00  0.00    +0.146 C 
ENDROOT
BRANCH  10  15
ATOM     12  N   UNL     1      34.818 -15.897 -22.871  0.00  0.00    -0.178 N 
ATOM     13  N   UNL     1      34.700 -14.563 -22.651  0.00  0.00    -0.173 NA
ATOM     14  N   UNL     1      34.643 -17.894 -23.843  0.00  0.00    -0.392 NA
ATOM     15  C   UNL     1      34.068 -13.929 -23.599  0.00  0.00    +0.124 C 
ATOM     16  C   UNL     1      33.511 -14.573 -24.827  0.00  0.00    +0.023 C 
ATOM     17  C   UNL     1      33.661 -15.901 -24.985  0.00  0.00    +0.025 C 
ATOM     18  C   UNL     1      34.351 -16.613 -23.958  0.00  0.00    +0.198 C 
ATOM     19  C   UNL     1      35.435 -16.789 -22.034  0.00  0.00    +0.173 C 
ATOM     20  C   UNL     1      35.314 -18.009 -22.654  0.00  0.00    +0.111 C 
ATOM     21  C   UNL     1      33.108 -16.573 -26.216  0.00  0.00    +0.035 C 
ATOM     22  C   UNL     1      35.800 -19.318 -22.193  0.00  0.00    +0.063 C 
ENDBRANCH  10  15
BRANCH   4  24
ATOM     23  N   UNL     1      30.964  -3.975 -22.363  0.00  0.00    +0.389 N 
ATOM     24  N   UNL     1      32.094  -6.606 -22.204  0.00  0.00    -0.311 N 
ATOM     25  C   UNL     1      31.788  -4.536 -23.465  0.00  0.00    -0.027 C 
ATOM     26  C   UNL     1      32.214  -3.604 -24.577  0.00  0.00    -0.020 C 
ATOM     27  C   UNL     1      31.169  -4.646 -24.842  0.00  0.00    -0.020 C 
ATOM     28  C   UNL     1      32.772  -5.604 -23.033  0.00  0.00    +0.071 C 
ATOM     29  C   UNL     1      30.275  -5.052 -21.649  0.00  0.00    -0.060 C 
ATOM     30  C   UNL     1      31.275  -6.076 -21.110  0.00  0.00    +0.067 C 
ATOM     31  H   UNL     1      30.274  -3.333 -22.751  0.00  0.00    -0.084 HD
ATOM     32  H   UNL     1      31.572  -3.479 -21.711  0.00  0.00    -0.084 HD
ENDBRANCH   4  24
TORSDOF 2
ENDMDL
MODEL 9
REMARK VINA RESULT:      -9.7      7.481     14.737
REMARK  Name = 118513932
REMARK  2 active torsions:
REMARK  status: ('A' for Active; 'I' for Inactive)
REMARK    1  A    between atoms: C_4  and  N_24
REMARK    2  A    between atoms: C_10  and  C_15
REMARK                            x       y       z     vdW  Elec       q    Type
REMARK                         _______ _______ _______ _____ _____    ______ ____
ROOT
ATOM      1  O   UNL     1      32.562 -23.023 -18.542  0.00  0.00    -0.274 OA
ATOM      2  N   UNL     1      34.791 -22.519 -17.991  0.00  0.00    -0.209 N 
ATOM      3  N   UNL     1      35.957 -20.895 -19.297  0.00  0.00    -0.389 NA
ATOM      4  C   UNL     1      35.918 -23.592 -16.157  0.00  0.00    +0.063 C 
ATOM      5  C   UNL     1      34.830 -23.411 -16.926  0.00  0.00    +0.089 C 
ATOM      6  C   UNL     1      37.101 -22.815 -16.464  0.00  0.00    +0.020 C 
ATOM      7  C   UNL     1      37.127 -21.941 -17.475  0.00  0.00    +0.050 C 
ATOM      8  C   UNL     1      35.915 -21.748 -18.318  0.00  0.00    +0.193 C 
ATOM      9  C   UNL     1      33.607 -22.404 -18.732  0.00  0.00    +0.242 C 
ATOM     10  C   UNL     1      34.816 -20.762 -20.037  0.00  0.00    +0.139 C 
ATOM     11  C   UNL     1      33.672 -21.426 -19.843  0.00  0.00    +0.146 C 
ENDROOT
BRANCH  10  15
ATOM     12  N   UNL     1      34.881 -17.769 -22.054  0.00  0.00    -0.178 N 
ATOM     13  N   UNL     1      34.862 -18.521 -20.924  0.00  0.00    -0.173 NA
ATOM     14  N   UNL     1      34.899 -17.212 -24.211  0.00  0.00    -0.392 NA
ATOM     15  C   UNL     1      34.837 -19.805 -21.148  0.00  0.00    +0.124 C 
ATOM     16  C   UNL     1      34.830 -20.431 -22.505  0.00  0.00    +0.023 C 
ATOM     17  C   UNL     1      34.850 -19.630 -23.586  0.00  0.00    +0.025 C 
ATOM     18  C   UNL     1      34.876 -18.221 -23.361  0.00  0.00    +0.198 C 
ATOM     19  C   UNL     1      34.908 -16.401 -22.098  0.00  0.00    +0.173 C 
ATOM     20  C   UNL     1      34.919 -16.082 -23.434  0.00  0.00    +0.111 C 
ATOM     21  C   UNL     1      34.842 -20.238 -24.965  0.00  0.00    +0.035 C 
ATOM     22  C   UNL     1      34.948 -14.749 -24.054  0.00  0.00    +0.063 C 
ENDBRANCH  10  15
BRANCH   4  24
ATOM     23  N   UNL     1      36.345 -25.678 -12.537  0.00  0.00    +0.389 N 
ATOM     24  N   UNL     1      35.972 -24.464 -15.108  0.00  0.00    -0.311 N 
ATOM     25  C   UNL     1      37.481 -25.470 -13.471  0.00  0.00    -0.027 C 
ATOM     26  C   UNL     1      38.804 -26.121 -13.135  0.00  0.00    -0.020 C 
ATOM     27  C   UNL     1      38.654 -24.635 -13.002  0.00  0.00    -0.020 C 
ATOM     28  C   UNL     1      37.089 -25.398 -14.933  0.00  0.00    +0.071 C 
ATOM     29  C   UNL     1      35.323 -24.650 -12.747  0.00  0.00    -0.060 C 
ATOM     30  C   UNL     1      34.838 -24.650 -14.197  0.00  0.00    +0.067 C 
ATOM     31  H   UNL     1      36.683 -25.626 -11.577  0.00  0.00    -0.084 HD
ATOM     32  H   UNL     1      35.934 -26.596 -12.711  0.00  0.00    -0.084 HD
ENDBRANCH   4  24
TORSDOF 2
ENDMDL
