MODEL 1
REMARK VINA RESULT:     -12.9      0.000      0.000
REMARK  Name = 46911863
REMARK  3 active torsions:
REMARK  status: ('A' for Active; 'I' for Inactive)
REMARK    1  A    between atoms: C_5  and  C_18
REMARK    2  A    between atoms: C_7  and  C_12
REMARK    3  A    between atoms: C_18  and  C_20
REMARK                            x       y       z     vdW  Elec       q    Type
REMARK                         _______ _______ _______ _____ _____    ______ ____
ROOT
ATOM      1  N   UNL     1      34.500 -22.183 -18.537  0.00  0.00    -0.190 N 
ATOM      2  N   UNL     1      35.558 -22.570 -17.781  0.00  0.00    -0.162 NA
ATOM      3  N   UNL     1      33.314 -21.264 -20.135  0.00  0.00    -0.126 NA
ATOM      4  N   UNL     1      32.448 -21.890 -19.261  0.00  0.00    -0.127 NA
ATOM      5  C   UNL     1      34.535 -21.450 -19.686  0.00  0.00    +0.228 A 
ATOM      6  C   UNL     1      33.168 -22.439 -18.305  0.00  0.00    +0.187 A 
ATOM      7  C   UNL     1      35.228 -23.258 -16.725  0.00  0.00    +0.104 C 
ATOM      8  C   UNL     1      32.842 -23.198 -17.165  0.00  0.00    +0.042 C 
ATOM      9  C   UNL     1      33.821 -23.627 -16.359  0.00  0.00    +0.024 C 
ENDROOT
BRANCH   7  12
ATOM     10  N   UNL     1      37.418 -24.880 -14.326  0.00  0.00    -0.208 N 
ATOM     11  N   UNL     1      38.286 -23.924 -14.704  0.00  0.00    -0.176 NA
ATOM     12  C   UNL     1      36.299 -23.736 -15.813  0.00  0.00    +0.056 C 
ATOM     13  C   UNL     1      36.214 -24.811 -14.961  0.00  0.00    +0.087 C 
ATOM     14  C   UNL     1      37.596 -23.229 -15.611  0.00  0.00    +0.121 C 
ATOM     15  C   UNL     1      37.809 -25.852 -13.333  0.00  0.00    +0.140 C 
ENDBRANCH   7  12
BRANCH   5  18
ATOM     16  F   UNL     1      36.477 -21.990 -20.950  0.00  0.00    -0.191 F 
ATOM     17  F   UNL     1      36.732 -20.616 -19.317  0.00  0.00    -0.191 F 
ATOM     18  C   UNL     1      35.833 -20.944 -20.315  0.00  0.00    +0.335 C 
BRANCH  18  20
ATOM     19  N   UNL     1      34.942 -16.575 -23.799  0.00  0.00    -0.244 NA
ATOM     20  C   UNL     1      35.595 -19.800 -21.240  0.00  0.00    +0.045 C 
ATOM     21  C   UNL     1      35.028 -20.018 -22.492  0.00  0.00    +0.003 C 
ATOM     22  C   UNL     1      34.801 -18.941 -23.367  0.00  0.00    +0.018 C 
ATOM     23  C   UNL     1      35.937 -18.509 -20.857  0.00  0.00    +0.003 C 
ATOM     24  C   UNL     1      35.146 -17.629 -22.985  0.00  0.00    +0.081 C 
ATOM     25  C   UNL     1      35.712 -17.440 -21.728  0.00  0.00    +0.019 C 
ATOM     26  C   UNL     1      34.232 -19.133 -24.633  0.00  0.00    +0.003 C 
ATOM     27  C   UNL     1      34.020 -18.049 -25.474  0.00  0.00    +0.021 C 
ATOM     28  C   UNL     1      34.390 -16.802 -25.013  0.00  0.00    +0.099 C 
ENDBRANCH  18  20
ENDBRANCH   5  18
TORSDOF 3
ENDMDL
MODEL 2
REMARK VINA RESULT:     -12.1      2.924      9.596
REMARK  Name = 46911863
REMARK  3 active torsions:
REMARK  status: ('A' for Active; 'I' for Inactive)
REMARK    1  A    between atoms: C_5  and  C_18
REMARK    2  A    between atoms: C_7  and  C_12
REMARK    3  A    between atoms: C_18  and  C_20
REMARK                            x       y       z     vdW  Elec       q    Type
REMARK                         _______ _______ _______ _____ _____    ______ ____
ROOT
ATOM      1  N   UNL     1      34.375 -17.221 -24.230  0.00  0.00    -0.190 N 
ATOM      2  N   UNL     1      34.249 -16.020 -23.613  0.00  0.00    -0.162 NA
ATOM      3  N   UNL     1      34.891 -19.316 -24.611  0.00  0.00    -0.126 NA
ATOM      4  N   UNL     1      34.269 -18.815 -25.736  0.00  0.00    -0.127 NA
ATOM      5  C   UNL     1      34.945 -18.350 -23.722  0.00  0.00    +0.228 A 
ATOM      6  C   UNL     1      33.962 -17.557 -25.499  0.00  0.00    +0.187 A 
ATOM      7  C   UNL     1      33.667 -15.111 -24.342  0.00  0.00    +0.104 C 
ATOM      8  C   UNL     1      33.321 -16.559 -26.258  0.00  0.00    +0.042 C 
ATOM      9  C   UNL     1      33.150 -15.341 -25.731  0.00  0.00    +0.024 C 
ENDROOT
BRANCH   7  12
ATOM     10  N   UNL     1      33.481 -11.582 -23.507  0.00  0.00    -0.208 N 
ATOM     11  N   UNL     1      32.888 -12.034 -22.389  0.00  0.00    -0.176 NA
ATOM     12  C   UNL     1      33.474 -13.749 -23.778  0.00  0.00    +0.056 C 
ATOM     13  C   UNL     1      33.852 -12.569 -24.372  0.00  0.00    +0.087 C 
ATOM     14  C   UNL     1      32.887 -13.359 -22.560  0.00  0.00    +0.121 C 
ATOM     15  C   UNL     1      33.669 -10.163 -23.695  0.00  0.00    +0.140 C 
ENDBRANCH   7  12
BRANCH   5  18
ATOM     16  F   UNL     1      35.527 -17.168 -21.741  0.00  0.00    -0.191 F 
ATOM     17  F   UNL     1      36.902 -18.680 -22.410  0.00  0.00    -0.191 F 
ATOM     18  C   UNL     1      35.546 -18.424 -22.318  0.00  0.00    +0.335 C 
BRANCH  18  20
ATOM     19  N   UNL     1      32.875 -22.240 -19.104  0.00  0.00    -0.244 NA
ATOM     20  C   UNL     1      34.851 -19.432 -21.467  0.00  0.00    +0.045 C 
ATOM     21  C   UNL     1      35.581 -20.236 -20.597  0.00  0.00    +0.003 C 
ATOM     22  C   UNL     1      34.930 -21.187 -19.792  0.00  0.00    +0.018 C 
ATOM     23  C   UNL     1      33.471 -19.576 -21.539  0.00  0.00    +0.003 C 
ATOM     24  C   UNL     1      33.530 -21.338 -19.860  0.00  0.00    +0.081 C 
ATOM     25  C   UNL     1      32.825 -20.522 -20.740  0.00  0.00    +0.019 C 
ATOM     26  C   UNL     1      35.641 -22.008 -18.906  0.00  0.00    +0.003 C 
ATOM     27  C   UNL     1      34.968 -22.938 -18.126  0.00  0.00    +0.021 C 
ATOM     28  C   UNL     1      33.597 -23.013 -18.261  0.00  0.00    +0.099 C 
ENDBRANCH  18  20
ENDBRANCH   5  18
TORSDOF 3
ENDMDL
MODEL 3
REMARK VINA RESULT:     -12.1      0.760      1.601
REMARK  Name = 46911863
REMARK  3 active torsions:
REMARK  status: ('A' for Active; 'I' for Inactive)
REMARK    1  A    between atoms: C_5  and  C_18
REMARK    2  A    between atoms: C_7  and  C_12
REMARK    3  A    between atoms: C_18  and  C_20
REMARK                            x       y       z     vdW  Elec       q    Type
REMARK                         _______ _______ _______ _____ _____    ______ ____
ROOT
ATOM      1  N   UNL     1      34.430 -22.125 -18.611  0.00  0.00    -0.190 N 
ATOM      2  N   UNL     1      35.502 -22.492 -17.865  0.00  0.00    -0.162 NA
ATOM      3  N   UNL     1      33.213 -21.229 -20.199  0.00  0.00    -0.126 NA
ATOM      4  N   UNL     1      32.367 -21.872 -19.318  0.00  0.00    -0.127 NA
ATOM      5  C   UNL     1      34.442 -21.392 -19.761  0.00  0.00    +0.228 A 
ATOM      6  C   UNL     1      33.106 -22.407 -18.369  0.00  0.00    +0.187 A 
ATOM      7  C   UNL     1      35.194 -23.187 -16.807  0.00  0.00    +0.104 C 
ATOM      8  C   UNL     1      32.804 -23.173 -17.227  0.00  0.00    +0.042 C 
ATOM      9  C   UNL     1      33.798 -23.583 -16.429  0.00  0.00    +0.024 C 
ENDROOT
BRANCH   7  12
ATOM     10  N   UNL     1      37.424 -24.745 -14.402  0.00  0.00    -0.208 N 
ATOM     11  N   UNL     1      38.295 -23.819 -14.840  0.00  0.00    -0.176 NA
ATOM     12  C   UNL     1      36.283 -23.645 -15.904  0.00  0.00    +0.056 C 
ATOM     13  C   UNL     1      36.204 -24.683 -15.007  0.00  0.00    +0.087 C 
ATOM     14  C   UNL     1      37.592 -23.150 -15.757  0.00  0.00    +0.121 C 
ATOM     15  C   UNL     1      37.827 -25.682 -13.381  0.00  0.00    +0.140 C 
ENDBRANCH   7  12
BRANCH   5  18
ATOM     16  F   UNL     1      36.378 -21.892 -21.049  0.00  0.00    -0.191 F 
ATOM     17  F   UNL     1      36.628 -20.523 -19.410  0.00  0.00    -0.191 F 
ATOM     18  C   UNL     1      35.725 -20.860 -20.401  0.00  0.00    +0.335 C 
BRANCH  18  20
ATOM     19  N   UNL     1      34.710 -16.536 -23.906  0.00  0.00    -0.244 NA
ATOM     20  C   UNL     1      35.458 -19.715 -21.316  0.00  0.00    +0.045 C 
ATOM     21  C   UNL     1      35.371 -18.421 -20.811  0.00  0.00    +0.003 C 
ATOM     22  C   UNL     1      35.120 -17.337 -21.671  0.00  0.00    +0.018 C 
ATOM     23  C   UNL     1      35.293 -19.932 -22.678  0.00  0.00    +0.003 C 
ATOM     24  C   UNL     1      34.953 -17.551 -23.055  0.00  0.00    +0.081 C 
ATOM     25  C   UNL     1      35.043 -18.855 -23.532  0.00  0.00    +0.019 C 
ATOM     26  C   UNL     1      35.028 -16.024 -21.189  0.00  0.00    +0.003 C 
ATOM     27  C   UNL     1      34.780 -14.977 -22.064  0.00  0.00    +0.021 C 
ATOM     28  C   UNL     1      34.630 -15.283 -23.402  0.00  0.00    +0.099 C 
ENDBRANCH  18  20
ENDBRANCH   5  18
TORSDOF 3
ENDMDL
MODEL 4
REMARK VINA RESULT:     -11.4      2.233      3.272
REMARK  Name = 46911863
REMARK  3 active torsions:
REMARK  status: ('A' for Active; 'I' for Inactive)
REMARK    1  A    between atoms: C_5  and  C_18
REMARK    2  A    between atoms: C_7  and  C_12
REMARK    3  A    between atoms: C_18  and  C_20
REMARK                            x       y       z     vdW  Elec       q    Type
REMARK                         _______ _______ _______ _____ _____    ______ ____
ROOT
ATOM      1  N   UNL     1      33.056 -23.401 -16.262  0.00  0.00    -0.190 N 
ATOM      2  N   UNL     1      34.120 -23.855 -15.555  0.00  0.00    -0.162 NA
ATOM      3  N   UNL     1      31.828 -22.654 -17.917  0.00  0.00    -0.126 NA
ATOM      4  N   UNL     1      31.032 -22.737 -16.793  0.00  0.00    -0.127 NA
ATOM      5  C   UNL     1      33.034 -23.055 -17.581  0.00  0.00    +0.228 A 
ATOM      6  C   UNL     1      31.776 -23.186 -15.805  0.00  0.00    +0.187 A 
ATOM      7  C   UNL     1      33.854 -24.101 -14.303  0.00  0.00    +0.104 C 
ATOM      8  C   UNL     1      31.514 -23.476 -14.452  0.00  0.00    +0.042 C 
ATOM      9  C   UNL     1      32.504 -23.931 -13.674  0.00  0.00    +0.024 C 
ENDROOT
BRANCH   7  12
ATOM     10  N   UNL     1      36.817 -25.453 -12.697  0.00  0.00    -0.208 N 
ATOM     11  N   UNL     1      36.150 -25.161 -11.566  0.00  0.00    -0.176 NA
ATOM     12  C   UNL     1      34.941 -24.600 -13.420  0.00  0.00    +0.056 C 
ATOM     13  C   UNL     1      36.136 -25.136 -13.835  0.00  0.00    +0.087 C 
ATOM     14  C   UNL     1      35.005 -24.641 -12.015  0.00  0.00    +0.121 C 
ATOM     15  C   UNL     1      38.131 -26.045 -12.622  0.00  0.00    +0.140 C 
ENDBRANCH   7  12
BRANCH   5  18
ATOM     16  F   UNL     1      34.251 -24.344 -19.167  0.00  0.00    -0.191 F 
ATOM     17  F   UNL     1      35.400 -23.255 -17.713  0.00  0.00    -0.191 F 
ATOM     18  C   UNL     1      34.261 -23.140 -18.488  0.00  0.00    +0.335 C 
BRANCH  18  20
ATOM     19  N   UNL     1      34.539 -18.742 -22.039  0.00  0.00    -0.244 NA
ATOM     20  C   UNL     1      34.345 -21.981 -19.422  0.00  0.00    +0.045 C 
ATOM     21  C   UNL     1      35.579 -21.414 -19.726  0.00  0.00    +0.003 C 
ATOM     22  C   UNL     1      35.662 -20.322 -20.607  0.00  0.00    +0.018 C 
ATOM     23  C   UNL     1      33.191 -21.460 -19.995  0.00  0.00    +0.003 C 
ATOM     24  C   UNL     1      34.495 -19.789 -21.191  0.00  0.00    +0.081 C 
ATOM     25  C   UNL     1      33.274 -20.374 -20.869  0.00  0.00    +0.019 C 
ATOM     26  C   UNL     1      36.892 -19.732 -20.930  0.00  0.00    +0.003 C 
ATOM     27  C   UNL     1      36.940 -18.655 -21.803  0.00  0.00    +0.021 C 
ATOM     28  C   UNL     1      35.746 -18.202 -22.326  0.00  0.00    +0.099 C 
ENDBRANCH  18  20
ENDBRANCH   5  18
TORSDOF 3
ENDMDL
MODEL 5
REMARK VINA RESULT:     -11.3      5.235      8.699
REMARK  Name = 46911863
REMARK  3 active torsions:
REMARK  status: ('A' for Active; 'I' for Inactive)
REMARK    1  A    between atoms: C_5  and  C_18
REMARK    2  A    between atoms: C_7  and  C_12
REMARK    3  A    between atoms: C_18  and  C_20
REMARK                            x       y       z     vdW  Elec       q    Type
REMARK                         _______ _______ _______ _____ _____    ______ ____
ROOT
ATOM      1  N   UNL     1      34.084 -15.869 -24.022  0.00  0.00    -0.190 N 
ATOM      2  N   UNL     1      34.614 -16.559 -22.982  0.00  0.00    -0.162 NA
ATOM      3  N   UNL     1      33.198 -14.250 -25.206  0.00  0.00    -0.126 NA
ATOM      4  N   UNL     1      33.325 -15.358 -26.019  0.00  0.00    -0.127 NA
ATOM      5  C   UNL     1      33.657 -14.573 -24.017  0.00  0.00    +0.228 A 
ATOM      6  C   UNL     1      33.857 -16.325 -25.301  0.00  0.00    +0.187 A 
ATOM      7  C   UNL     1      34.927 -17.790 -23.271  0.00  0.00    +0.104 C 
ATOM      8  C   UNL     1      34.221 -17.655 -25.589  0.00  0.00    +0.042 C 
ATOM      9  C   UNL     1      34.754 -18.414 -24.623  0.00  0.00    +0.024 C 
ENDROOT
BRANCH   7  12
ATOM     10  N   UNL     1      35.816 -20.242 -20.745  0.00  0.00    -0.208 N 
ATOM     11  N   UNL     1      36.935 -19.503 -20.640  0.00  0.00    -0.176 NA
ATOM     12  C   UNL     1      35.513 -18.652 -22.211  0.00  0.00    +0.056 C 
ATOM     13  C   UNL     1      34.932 -19.775 -21.672  0.00  0.00    +0.087 C 
ATOM     14  C   UNL     1      36.743 -18.533 -21.538  0.00  0.00    +0.121 C 
ATOM     15  C   UNL     1      35.648 -21.410 -19.913  0.00  0.00    +0.140 C 
ENDBRANCH   7  12
BRANCH   5  18
ATOM     16  F   UNL     1      34.886 -13.943 -22.080  0.00  0.00    -0.191 F 
ATOM     17  F   UNL     1      32.748 -14.059 -21.880  0.00  0.00    -0.191 F 
ATOM     18  C   UNL     1      33.725 -13.676 -22.781  0.00  0.00    +0.335 C 
BRANCH  18  20
ATOM     19  N   UNL     1      33.335  -8.199 -24.146  0.00  0.00    -0.244 NA
ATOM     20  C   UNL     1      33.614 -12.232 -23.135  0.00  0.00    +0.045 C 
ATOM     21  C   UNL     1      32.618 -11.446 -22.563  0.00  0.00    +0.003 C 
ATOM     22  C   UNL     1      32.510 -10.084 -22.893  0.00  0.00    +0.018 C 
ATOM     23  C   UNL     1      34.503 -11.663 -24.037  0.00  0.00    +0.003 C 
ATOM     24  C   UNL     1      33.410  -9.500 -23.808  0.00  0.00    +0.081 C 
ATOM     25  C   UNL     1      34.395 -10.310 -24.365  0.00  0.00    +0.019 C 
ATOM     26  C   UNL     1      31.518  -9.269 -22.331  0.00  0.00    +0.003 C 
ATOM     27  C   UNL     1      31.438  -7.928 -22.677  0.00  0.00    +0.021 C 
ATOM     28  C   UNL     1      32.363  -7.446 -23.581  0.00  0.00    +0.099 C 
ENDBRANCH  18  20
ENDBRANCH   5  18
TORSDOF 3
ENDMDL
MODEL 6
REMARK VINA RESULT:     -11.2      3.095      5.364
REMARK  Name = 46911863
REMARK  3 active torsions:
REMARK  status: ('A' for Active; 'I' for Inactive)
REMARK    1  A    between atoms: C_5  and  C_18
REMARK    2  A    between atoms: C_7  and  C_12
REMARK    3  A    between atoms: C_18  and  C_20
REMARK                            x       y       z     vdW  Elec       q    Type
REMARK                         _______ _______ _______ _____ _____    ______ ____
ROOT
ATOM      1  N   UNL     1      33.439 -23.330 -16.510  0.00  0.00    -0.190 N 
ATOM      2  N   UNL     1      32.094 -23.359 -16.685  0.00  0.00    -0.162 NA
ATOM      3  N   UNL     1      35.584 -23.155 -16.923  0.00  0.00    -0.126 NA
ATOM      4  N   UNL     1      35.425 -23.431 -15.580  0.00  0.00    -0.127 NA
ATOM      5  C   UNL     1      34.387 -23.098 -17.462  0.00  0.00    +0.228 A 
ATOM      6  C   UNL     1      34.135 -23.534 -15.341  0.00  0.00    +0.187 A 
ATOM      7  C   UNL     1      31.426 -23.614 -15.596  0.00  0.00    +0.104 C 
ATOM      8  C   UNL     1      33.386 -23.791 -14.176  0.00  0.00    +0.042 C 
ATOM      9  C   UNL     1      32.050 -23.837 -14.252  0.00  0.00    +0.024 C 
ENDROOT
BRANCH   7  12
ATOM     10  N   UNL     1      27.832 -23.123 -15.752  0.00  0.00    -0.208 N 
ATOM     11  N   UNL     1      27.802 -24.467 -15.750  0.00  0.00    -0.176 NA
ATOM     12  C   UNL     1      29.942 -23.677 -15.660  0.00  0.00    +0.056 C 
ATOM     13  C   UNL     1      29.090 -22.600 -15.699  0.00  0.00    +0.087 C 
ATOM     14  C   UNL     1      29.094 -24.799 -15.693  0.00  0.00    +0.121 C 
ATOM     15  C   UNL     1      26.596 -22.379 -15.808  0.00  0.00    +0.140 C 
ENDBRANCH   7  12
BRANCH   5  18
ATOM     16  F   UNL     1      32.729 -22.423 -19.029  0.00  0.00    -0.191 F 
ATOM     17  F   UNL     1      34.049 -24.009 -19.633  0.00  0.00    -0.191 F 
ATOM     18  C   UNL     1      34.050 -22.820 -18.927  0.00  0.00    +0.335 C 
BRANCH  18  20
ATOM     19  N   UNL     1      37.592 -19.038 -21.200  0.00  0.00    -0.244 NA
ATOM     20  C   UNL     1      34.975 -21.820 -19.532  0.00  0.00    +0.045 C 
ATOM     21  C   UNL     1      34.505 -20.914 -20.477  0.00  0.00    +0.003 C 
ATOM     22  C   UNL     1      35.374 -19.969 -21.049  0.00  0.00    +0.018 C 
ATOM     23  C   UNL     1      36.312 -21.788 -19.155  0.00  0.00    +0.003 C 
ATOM     24  C   UNL     1      36.732 -19.930 -20.671  0.00  0.00    +0.081 C 
ATOM     25  C   UNL     1      37.175 -20.849 -19.724  0.00  0.00    +0.019 C 
ATOM     26  C   UNL     1      34.928 -19.044 -22.003  0.00  0.00    +0.003 C 
ATOM     27  C   UNL     1      35.811 -18.124 -22.549  0.00  0.00    +0.021 C 
ATOM     28  C   UNL     1      37.121 -18.162 -22.117  0.00  0.00    +0.099 C 
ENDBRANCH  18  20
ENDBRANCH   5  18
TORSDOF 3
ENDMDL
MODEL 7
REMARK VINA RESULT:     -11.0      6.910     12.573
REMARK  Name = 46911863
REMARK  3 active torsions:
REMARK  status: ('A' for Active; 'I' for Inactive)
REMARK    1  A    between atoms: C_5  and  C_18
REMARK    2  A    between atoms: C_7  and  C_12
REMARK    3  A    between atoms: C_18  and  C_20
REMARK                            x       y       z     vdW  Elec       q    Type
REMARK                         _______ _______ _______ _____ _____    ______ ____
ROOT
ATOM      1  N   UNL     1      32.619 -11.329 -22.583  0.00  0.00    -0.190 N 
ATOM      2  N   UNL     1      33.043 -10.228 -23.252  0.00  0.00    -0.162 NA
ATOM      3  N   UNL     1      32.259 -13.423 -22.047  0.00  0.00    -0.126 NA
ATOM      4  N   UNL     1      31.670 -12.626 -21.086  0.00  0.00    -0.127 NA
ATOM      5  C   UNL     1      32.821 -12.632 -22.932  0.00  0.00    +0.228 A 
ATOM      6  C   UNL     1      31.891 -11.370 -21.416  0.00  0.00    +0.187 A 
ATOM      7  C   UNL     1      32.697  -9.104 -22.691  0.00  0.00    +0.104 C 
ATOM      8  C   UNL     1      31.546 -10.141 -20.823  0.00  0.00    +0.042 C 
ATOM      9  C   UNL     1      31.922  -8.999 -21.411  0.00  0.00    +0.024 C 
ENDROOT
BRANCH   7  12
ATOM     10  N   UNL     1      33.045  -5.852 -24.268  0.00  0.00    -0.208 N 
ATOM     11  N   UNL     1      34.357  -6.144 -24.229  0.00  0.00    -0.176 NA
ATOM     12  C   UNL     1      33.098  -7.825 -23.332  0.00  0.00    +0.056 C 
ATOM     13  C   UNL     1      32.248  -6.826 -23.743  0.00  0.00    +0.087 C 
ATOM     14  C   UNL     1      34.383  -7.350 -23.657  0.00  0.00    +0.121 C 
ATOM     15  C   UNL     1      32.606  -4.598 -24.830  0.00  0.00    +0.140 C 
ENDBRANCH   7  12
BRANCH   5  18
ATOM     16  F   UNL     1      34.742 -12.289 -24.292  0.00  0.00    -0.191 F 
ATOM     17  F   UNL     1      32.887 -12.674 -25.309  0.00  0.00    -0.191 F 
ATOM     18  C   UNL     1      33.594 -13.051 -24.182  0.00  0.00    +0.335 C 
BRANCH  18  20
ATOM     19  N   UNL     1      34.731 -18.594 -24.228  0.00  0.00    -0.244 NA
ATOM     20  C   UNL     1      33.899 -14.510 -24.185  0.00  0.00    +0.045 C 
ATOM     21  C   UNL     1      34.589 -15.084 -23.121  0.00  0.00    +0.003 C 
ATOM     22  C   UNL     1      34.877 -16.459 -23.120  0.00  0.00    +0.018 C 
ATOM     23  C   UNL     1      33.495 -15.306 -25.250  0.00  0.00    +0.003 C 
ATOM     24  C   UNL     1      34.470 -17.273 -24.197  0.00  0.00    +0.081 C 
ATOM     25  C   UNL     1      33.783 -16.673 -25.248  0.00  0.00    +0.019 C 
ATOM     26  C   UNL     1      35.570 -17.063 -22.061  0.00  0.00    +0.003 C 
ATOM     27  C   UNL     1      35.839 -18.423 -22.090  0.00  0.00    +0.021 C 
ATOM     28  C   UNL     1      35.401 -19.138 -23.187  0.00  0.00    +0.099 C 
ENDBRANCH  18  20
ENDBRANCH   5  18
TORSDOF 3
ENDMDL
MODEL 8
REMARK VINA RESULT:     -10.9      2.501      8.861
REMARK  Name = 46911863
REMARK  3 active torsions:
REMARK  status: ('A' for Active; 'I' for Inactive)
REMARK    1  A    between atoms: C_5  and  C_18
REMARK    2  A    between atoms: C_7  and  C_12
REMARK    3  A    between atoms: C_18  and  C_20
REMARK                            x       y       z     vdW  Elec       q    Type
REMARK                         _______ _______ _______ _____ _____    ______ ____
ROOT
ATOM      1  N   UNL     1      35.444 -20.445 -20.614  0.00  0.00    -0.190 N 
ATOM      2  N   UNL     1      34.716 -20.008 -21.671  0.00  0.00    -0.162 NA
ATOM      3  N   UNL     1      36.009 -21.484 -18.769  0.00  0.00    -0.126 NA
ATOM      4  N   UNL     1      37.095 -20.749 -19.199  0.00  0.00    -0.127 NA
ATOM      5  C   UNL     1      35.032 -21.291 -19.627  0.00  0.00    +0.228 A 
ATOM      6  C   UNL     1      36.747 -20.129 -20.307  0.00  0.00    +0.187 A 
ATOM      7  C   UNL     1      35.363 -19.195 -22.457  0.00  0.00    +0.104 C 
ATOM      8  C   UNL     1      37.427 -19.261 -21.183  0.00  0.00    +0.042 C 
ATOM      9  C   UNL     1      36.789 -18.778 -22.256  0.00  0.00    +0.024 C 
ENDROOT
BRANCH   7  12
ATOM     10  N   UNL     1      33.902 -17.274 -25.170  0.00  0.00    -0.208 N 
ATOM     11  N   UNL     1      33.439 -18.473 -25.566  0.00  0.00    -0.176 NA
ATOM     12  C   UNL     1      34.671 -18.642 -23.651  0.00  0.00    +0.056 C 
ATOM     13  C   UNL     1      34.645 -17.321 -24.028  0.00  0.00    +0.087 C 
ATOM     14  C   UNL     1      33.912 -19.304 -24.633  0.00  0.00    +0.121 C 
ATOM     15  C   UNL     1      33.593 -16.096 -25.944  0.00  0.00    +0.140 C 
ENDBRANCH   7  12
BRANCH   5  18
ATOM     16  F   UNL     1      33.467 -22.777 -20.627  0.00  0.00    -0.191 F 
ATOM     17  F   UNL     1      32.696 -20.918 -19.870  0.00  0.00    -0.191 F 
ATOM     18  C   UNL     1      33.629 -21.895 -19.575  0.00  0.00    +0.335 C 
BRANCH  18  20
ATOM     19  N   UNL     1      32.610 -24.370 -14.589  0.00  0.00    -0.244 NA
ATOM     20  C   UNL     1      33.351 -22.545 -18.262  0.00  0.00    +0.045 C 
ATOM     21  C   UNL     1      32.055 -22.570 -17.755  0.00  0.00    +0.003 C 
ATOM     22  C   UNL     1      31.788 -23.182 -16.518  0.00  0.00    +0.018 C 
ATOM     23  C   UNL     1      34.383 -23.128 -17.538  0.00  0.00    +0.003 C 
ATOM     24  C   UNL     1      32.831 -23.776 -15.778  0.00  0.00    +0.081 C 
ATOM     25  C   UNL     1      34.117 -23.735 -16.309  0.00  0.00    +0.019 C 
ATOM     26  C   UNL     1      30.493 -23.223 -15.984  0.00  0.00    +0.003 C 
ATOM     27  C   UNL     1      30.262 -23.835 -14.760  0.00  0.00    +0.021 C 
ATOM     28  C   UNL     1      31.346 -24.389 -14.109  0.00  0.00    +0.099 C 
ENDBRANCH  18  20
ENDBRANCH   5  18
TORSDOF 3
ENDMDL
MODEL 9
REMARK VINA RESULT:     -10.6      2.625      4.101
REMARK  Name = 46911863
REMARK  3 active torsions:
REMARK  status: ('A' for Active; 'I' for Inactive)
REMARK    1  A    between atoms: C_5  and  C_18
REMARK    2  A    between atoms: C_7  and  C_12
REMARK    3  A    between atoms: C_18  and  C_20
REMARK                            x       y       z     vdW  Elec       q    Type
REMARK                         _______ _______ _______ _____ _____    ______ ____
ROOT
ATOM      1  N   UNL     1      35.119 -23.015 -16.635  0.00  0.00    -0.190 N 
ATOM      2  N   UNL     1      33.863 -23.436 -16.347  0.00  0.00    -0.162 NA
ATOM      3  N   UNL     1      36.841 -22.208 -17.726  0.00  0.00    -0.126 NA
ATOM      4  N   UNL     1      37.255 -22.541 -16.453  0.00  0.00    -0.127 NA
ATOM      5  C   UNL     1      35.562 -22.497 -17.817  0.00  0.00    +0.228 A 
ATOM      6  C   UNL     1      36.216 -23.025 -15.805  0.00  0.00    +0.187 A 
ATOM      7  C   UNL     1      33.725 -23.895 -15.136  0.00  0.00    +0.104 C 
ATOM      8  C   UNL     1      36.034 -23.512 -14.496  0.00  0.00    +0.042 C 
ATOM      9  C   UNL     1      34.826 -23.949 -14.119  0.00  0.00    +0.024 C 
ENDROOT
BRANCH   7  12
ATOM     10  N   UNL     1      30.265 -24.876 -14.636  0.00  0.00    -0.208 N 
ATOM     11  N   UNL     1      30.729 -25.353 -13.468  0.00  0.00    -0.176 NA
ATOM     12  C   UNL     1      32.394 -24.392 -14.700  0.00  0.00    +0.056 C 
ATOM     13  C   UNL     1      31.222 -24.291 -15.411  0.00  0.00    +0.087 C 
ATOM     14  C   UNL     1      32.029 -25.053 -13.512  0.00  0.00    +0.121 C 
ATOM     15  C   UNL     1      28.866 -25.015 -14.963  0.00  0.00    +0.140 C 
ENDBRANCH   7  12
BRANCH   5  18
ATOM     16  F   UNL     1      33.368 -22.047 -18.617  0.00  0.00    -0.191 F 
ATOM     17  F   UNL     1      34.513 -23.513 -19.695  0.00  0.00    -0.191 F 
ATOM     18  C   UNL     1      34.659 -22.306 -19.036  0.00  0.00    +0.335 C 
BRANCH  18  20
ATOM     19  N   UNL     1      36.629 -18.259 -22.465  0.00  0.00    -0.244 NA
ATOM     20  C   UNL     1      35.169 -21.240 -19.944  0.00  0.00    +0.045 C 
ATOM     21  C   UNL     1      34.353 -20.726 -20.948  0.00  0.00    +0.003 C 
ATOM     22  C   UNL     1      34.830 -19.721 -21.807  0.00  0.00    +0.018 C 
ATOM     23  C   UNL     1      36.462 -20.753 -19.794  0.00  0.00    +0.003 C 
ATOM     24  C   UNL     1      36.141 -19.222 -21.660  0.00  0.00    +0.081 C 
ATOM     25  C   UNL     1      36.935 -19.754 -20.648  0.00  0.00    +0.019 C 
ATOM     26  C   UNL     1      34.030 -19.185 -22.825  0.00  0.00    +0.003 C 
ATOM     27  C   UNL     1      34.530 -18.193 -23.656  0.00  0.00    +0.021 C 
ATOM     28  C   UNL     1      35.825 -17.768 -23.436  0.00  0.00    +0.099 C 
ENDBRANCH  18  20
ENDBRANCH   5  18
TORSDOF 3
ENDMDL
