MODEL 1
REMARK VINA RESULT:     -11.3      0.000      0.000
REMARK  Name = 46892373
REMARK  3 active torsions:
REMARK  status: ('A' for Active; 'I' for Inactive)
REMARK    1  A    between atoms: C_7  and  C_20
REMARK    2  A    between atoms: C_20  and  C_22
REMARK    3  A    between atoms: C_20  and  O_28
REMARK                            x       y       z     vdW  Elec       q    Type
REMARK                         _______ _______ _______ _____ _____    ______ ____
ROOT
ATOM      1  N   UNL     1      34.265 -23.918 -17.232  0.00  0.00    -0.326 NA
ATOM      2  N   UNL     1      34.879 -24.553 -15.051  0.00  0.00    -0.271 N 
ATOM      3  N   UNL     1      32.071 -23.025 -17.681  0.00  0.00    -0.345 NA
ATOM      4  N   UNL     1      38.295 -24.146 -15.520  0.00  0.00    -0.239 N 
ATOM      5  N   UNL     1      37.049 -23.910 -15.964  0.00  0.00    -0.166 NA
ATOM      6  C   UNL     1      32.658 -23.662 -15.444  0.00  0.00    +0.072 C 
ATOM      7  C   UNL     1      33.313 -23.415 -18.034  0.00  0.00    +0.146 C 
ATOM      8  C   UNL     1      33.906 -24.028 -15.939  0.00  0.00    +0.199 C 
ATOM      9  C   UNL     1      31.746 -23.150 -16.382  0.00  0.00    +0.129 C 
ATOM     10  C   UNL     1      32.307 -23.788 -14.089  0.00  0.00    +0.006 C 
ATOM     11  C   UNL     1      30.486 -22.772 -15.924  0.00  0.00    +0.086 C 
ATOM     12  C   UNL     1      36.282 -24.510 -15.050  0.00  0.00    +0.152 C 
ATOM     13  C   UNL     1      31.042 -23.403 -13.659  0.00  0.00    -0.004 C 
ATOM     14  C   UNL     1      30.131 -22.894 -14.578  0.00  0.00    -0.019 C 
ATOM     15  C   UNL     1      37.032 -25.124 -14.030  0.00  0.00    +0.048 C 
ATOM     16  C   UNL     1      38.340 -24.870 -14.365  0.00  0.00    +0.046 C 
ATOM     17  C   UNL     1      39.610 -25.235 -13.717  0.00  0.00    +0.049 C 
ATOM     18  H   UNL     1      34.497 -25.045 -14.289  0.00  0.00    +0.156 HD
ATOM     19  H   UNL     1      39.101 -23.826 -15.986  0.00  0.00    +0.174 HD
ENDROOT
BRANCH   7  20
ATOM     20  C   UNL     1      33.666 -23.274 -19.477  0.00  0.00    +0.243 C 
BRANCH  20  22
ATOM     21  F   UNL     1      37.204 -18.998 -20.552  0.00  0.00    -0.204 F 
ATOM     22  C   UNL     1      34.619 -22.121 -19.767  0.00  0.00    +0.021 C 
ATOM     23  C   UNL     1      34.181 -21.021 -20.504  0.00  0.00    +0.001 C 
ATOM     24  C   UNL     1      35.931 -22.166 -19.296  0.00  0.00    +0.001 C 
ATOM     25  C   UNL     1      35.053 -19.966 -20.769  0.00  0.00    +0.029 C 
ATOM     26  C   UNL     1      36.805 -21.111 -19.561  0.00  0.00    +0.029 C 
ATOM     27  C   UNL     1      36.366 -20.011 -20.298  0.00  0.00    +0.140 C 
ENDBRANCH  20  22
BRANCH  20  28
ATOM     28  O   UNL     1      34.208 -24.488 -20.027  0.00  0.00    -0.366 OA
ATOM     29  H   UNL     1      34.849 -24.867 -19.405  0.00  0.00    +0.212 HD
ENDBRANCH  20  28
ENDBRANCH   7  20
TORSDOF 3
ENDMDL
MODEL 2
REMARK VINA RESULT:     -11.2      1.709      5.371
REMARK  Name = 46892373
REMARK  3 active torsions:
REMARK  status: ('A' for Active; 'I' for Inactive)
REMARK    1  A    between atoms: C_7  and  C_20
REMARK    2  A    between atoms: C_20  and  C_22
REMARK    3  A    between atoms: C_20  and  O_28
REMARK                            x       y       z     vdW  Elec       q    Type
REMARK                         _______ _______ _______ _____ _____    ______ ____
ROOT
ATOM      1  N   UNL     1      32.241 -22.985 -17.502  0.00  0.00    -0.326 NA
ATOM      2  N   UNL     1      30.863 -22.776 -15.606  0.00  0.00    -0.271 N 
ATOM      3  N   UNL     1      34.495 -23.816 -17.299  0.00  0.00    -0.345 NA
ATOM      4  N   UNL     1      27.860 -23.017 -17.332  0.00  0.00    -0.239 N 
ATOM      5  N   UNL     1      29.193 -23.186 -17.339  0.00  0.00    -0.166 NA
ATOM      6  C   UNL     1      33.122 -23.616 -15.341  0.00  0.00    +0.072 C 
ATOM      7  C   UNL     1      33.440 -23.340 -17.991  0.00  0.00    +0.146 C 
ATOM      8  C   UNL     1      32.113 -23.136 -16.171  0.00  0.00    +0.199 C 
ATOM      9  C   UNL     1      34.332 -23.953 -15.970  0.00  0.00    +0.129 C 
ATOM     10  C   UNL     1      32.964 -23.764 -13.953  0.00  0.00    +0.006 C 
ATOM     11  C   UNL     1      35.367 -24.438 -15.173  0.00  0.00    +0.086 C 
ATOM     12  C   UNL     1      29.554 -22.792 -16.115  0.00  0.00    +0.152 C 
ATOM     13  C   UNL     1      34.014 -24.250 -13.180  0.00  0.00    -0.004 C 
ATOM     14  C   UNL     1      35.216 -24.588 -13.792  0.00  0.00    -0.019 C 
ATOM     15  C   UNL     1      28.461 -22.374 -15.333  0.00  0.00    +0.048 C 
ATOM     16  C   UNL     1      27.372 -22.532 -16.155  0.00  0.00    +0.046 C 
ATOM     17  C   UNL     1      25.938 -22.276 -15.947  0.00  0.00    +0.049 C 
ATOM     18  H   UNL     1      30.925 -22.450 -14.680  0.00  0.00    +0.156 HD
ATOM     19  H   UNL     1      27.289 -23.224 -18.107  0.00  0.00    +0.174 HD
ENDROOT
BRANCH   7  20
ATOM     20  C   UNL     1      33.629 -23.190 -19.464  0.00  0.00    +0.243 C 
BRANCH  20  22
ATOM     21  F   UNL     1      36.889 -18.803 -20.910  0.00  0.00    -0.204 F 
ATOM     22  C   UNL     1      34.507 -22.007 -19.854  0.00  0.00    +0.021 C 
ATOM     23  C   UNL     1      33.952 -20.916 -20.522  0.00  0.00    +0.001 C 
ATOM     24  C   UNL     1      35.867 -22.015 -19.543  0.00  0.00    +0.001 C 
ATOM     25  C   UNL     1      34.756 -19.833 -20.879  0.00  0.00    +0.029 C 
ATOM     26  C   UNL     1      36.672 -20.933 -19.900  0.00  0.00    +0.029 C 
ATOM     27  C   UNL     1      36.116 -19.842 -20.568  0.00  0.00    +0.140 C 
ENDBRANCH  20  22
BRANCH  20  28
ATOM     28  O   UNL     1      34.148 -24.387 -20.071  0.00  0.00    -0.366 OA
ATOM     29  H   UNL     1      33.851 -24.437 -20.993  0.00  0.00    +0.212 HD
ENDBRANCH  20  28
ENDBRANCH   7  20
TORSDOF 3
ENDMDL
MODEL 3
REMARK VINA RESULT:     -11.2      2.960      7.135
REMARK  Name = 46892373
REMARK  3 active torsions:
REMARK  status: ('A' for Active; 'I' for Inactive)
REMARK    1  A    between atoms: C_7  and  C_20
REMARK    2  A    between atoms: C_20  and  C_22
REMARK    3  A    between atoms: C_20  and  O_28
REMARK                            x       y       z     vdW  Elec       q    Type
REMARK                         _______ _______ _______ _____ _____    ______ ____
ROOT
ATOM      1  N   UNL     1      33.417 -23.727 -15.786  0.00  0.00    -0.326 NA
ATOM      2  N   UNL     1      31.699 -23.056 -17.247  0.00  0.00    -0.271 N 
ATOM      3  N   UNL     1      35.728 -23.320 -16.335  0.00  0.00    -0.345 NA
ATOM      4  N   UNL     1      29.243 -22.811 -14.805  0.00  0.00    -0.239 N 
ATOM      5  N   UNL     1      30.550 -22.909 -15.098  0.00  0.00    -0.166 NA
ATOM      6  C   UNL     1      34.006 -22.620 -17.852  0.00  0.00    +0.072 C 
ATOM      7  C   UNL     1      34.737 -23.782 -15.547  0.00  0.00    +0.146 C 
ATOM      8  C   UNL     1      33.083 -23.139 -16.949  0.00  0.00    +0.199 C 
ATOM      9  C   UNL     1      35.358 -22.738 -17.491  0.00  0.00    +0.129 C 
ATOM     10  C   UNL     1      33.632 -22.011 -19.062  0.00  0.00    +0.006 C 
ATOM     11  C   UNL     1      36.313 -22.231 -18.369  0.00  0.00    +0.086 C 
ATOM     12  C   UNL     1      30.559 -22.954 -16.433  0.00  0.00    +0.152 C 
ATOM     13  C   UNL     1      34.606 -21.513 -19.921  0.00  0.00    -0.004 C 
ATOM     14  C   UNL     1      35.948 -21.623 -19.574  0.00  0.00    -0.019 C 
ATOM     15  C   UNL     1      29.268 -22.886 -16.988  0.00  0.00    +0.048 C 
ATOM     16  C   UNL     1      28.432 -22.793 -15.901  0.00  0.00    +0.046 C 
ATOM     17  C   UNL     1      26.968 -22.693 -15.793  0.00  0.00    +0.049 C 
ATOM     18  H   UNL     1      31.498 -23.075 -18.210  0.00  0.00    +0.156 HD
ATOM     19  H   UNL     1      28.901 -22.757 -13.883  0.00  0.00    +0.174 HD
ENDROOT
BRANCH   7  20
ATOM     20  C   UNL     1      35.155 -24.426 -14.267  0.00  0.00    +0.243 C 
BRANCH  20  22
ATOM     21  F   UNL     1      40.305 -26.749 -14.460  0.00  0.00    -0.204 F 
ATOM     22  C   UNL     1      36.544 -25.053 -14.320  0.00  0.00    +0.021 C 
ATOM     23  C   UNL     1      36.757 -26.216 -15.059  0.00  0.00    +0.001 C 
ATOM     24  C   UNL     1      37.601 -24.463 -13.627  0.00  0.00    +0.001 C 
ATOM     25  C   UNL     1      38.028 -26.789 -15.108  0.00  0.00    +0.029 C 
ATOM     26  C   UNL     1      38.872 -25.037 -13.674  0.00  0.00    +0.029 C 
ATOM     27  C   UNL     1      39.085 -26.200 -14.415  0.00  0.00    +0.140 C 
ENDBRANCH  20  22
BRANCH  20  28
ATOM     28  O   UNL     1      35.085 -23.519 -13.152  0.00  0.00    -0.366 OA
ATOM     29  H   UNL     1      34.559 -22.743 -13.399  0.00  0.00    +0.212 HD
ENDBRANCH  20  28
ENDBRANCH   7  20
TORSDOF 3
ENDMDL
MODEL 4
REMARK VINA RESULT:     -11.1      3.031      7.220
REMARK  Name = 46892373
REMARK  3 active torsions:
REMARK  status: ('A' for Active; 'I' for Inactive)
REMARK    1  A    between atoms: C_7  and  C_20
REMARK    2  A    between atoms: C_20  and  C_22
REMARK    3  A    between atoms: C_20  and  O_28
REMARK                            x       y       z     vdW  Elec       q    Type
REMARK                         _______ _______ _______ _____ _____    ______ ____
ROOT
ATOM      1  N   UNL     1      32.907 -23.777 -15.758  0.00  0.00    -0.326 NA
ATOM      2  N   UNL     1      31.240 -23.032 -17.242  0.00  0.00    -0.271 N 
ATOM      3  N   UNL     1      35.240 -23.433 -16.255  0.00  0.00    -0.345 NA
ATOM      4  N   UNL     1      28.744 -22.747 -14.846  0.00  0.00    -0.239 N 
ATOM      5  N   UNL     1      30.053 -22.881 -15.114  0.00  0.00    -0.166 NA
ATOM      6  C   UNL     1      33.571 -22.659 -17.795  0.00  0.00    +0.072 C 
ATOM      7  C   UNL     1      34.219 -23.876 -15.493  0.00  0.00    +0.146 C 
ATOM      8  C   UNL     1      32.614 -23.162 -16.918  0.00  0.00    +0.199 C 
ATOM      9  C   UNL     1      34.911 -22.824 -17.409  0.00  0.00    +0.129 C 
ATOM     10  C   UNL     1      33.240 -22.021 -19.003  0.00  0.00    +0.006 C 
ATOM     11  C   UNL     1      35.899 -22.333 -18.260  0.00  0.00    +0.086 C 
ATOM     12  C   UNL     1      30.087 -22.907 -16.449  0.00  0.00    +0.152 C 
ATOM     13  C   UNL     1      34.246 -21.541 -19.835  0.00  0.00    -0.004 C 
ATOM     14  C   UNL     1      35.577 -21.697 -19.463  0.00  0.00    -0.019 C 
ATOM     15  C   UNL     1      28.810 -22.791 -17.029  0.00  0.00    +0.048 C 
ATOM     16  C   UNL     1      27.956 -22.688 -15.958  0.00  0.00    +0.046 C 
ATOM     17  C   UNL     1      26.494 -22.544 -15.877  0.00  0.00    +0.049 C 
ATOM     18  H   UNL     1      31.058 -23.031 -18.209  0.00  0.00    +0.156 HD
ATOM     19  H   UNL     1      28.385 -22.696 -13.930  0.00  0.00    +0.174 HD
ENDROOT
BRANCH   7  20
ATOM     20  C   UNL     1      34.591 -24.551 -14.215  0.00  0.00    +0.243 C 
BRANCH  20  22
ATOM     21  F   UNL     1      39.936 -26.388 -14.084  0.00  0.00    -0.204 F 
ATOM     22  C   UNL     1      36.032 -25.047 -14.180  0.00  0.00    +0.021 C 
ATOM     23  C   UNL     1      36.963 -24.426 -13.346  0.00  0.00    +0.001 C 
ATOM     24  C   UNL     1      36.421 -26.119 -14.982  0.00  0.00    +0.001 C 
ATOM     25  C   UNL     1      38.281 -24.880 -13.313  0.00  0.00    +0.029 C 
ATOM     26  C   UNL     1      37.740 -26.573 -14.950  0.00  0.00    +0.029 C 
ATOM     27  C   UNL     1      38.670 -25.953 -14.115  0.00  0.00    +0.140 C 
ENDBRANCH  20  22
BRANCH  20  28
ATOM     28  O   UNL     1      34.347 -23.718 -13.068  0.00  0.00    -0.366 OA
ATOM     29  H   UNL     1      34.423 -22.785 -13.322  0.00  0.00    +0.212 HD
ENDBRANCH  20  28
ENDBRANCH   7  20
TORSDOF 3
ENDMDL
MODEL 5
REMARK VINA RESULT:     -11.0      3.127      6.818
REMARK  Name = 46892373
REMARK  3 active torsions:
REMARK  status: ('A' for Active; 'I' for Inactive)
REMARK    1  A    between atoms: C_7  and  C_20
REMARK    2  A    between atoms: C_20  and  C_22
REMARK    3  A    between atoms: C_20  and  O_28
REMARK                            x       y       z     vdW  Elec       q    Type
REMARK                         _______ _______ _______ _____ _____    ______ ____
ROOT
ATOM      1  N   UNL     1      35.537 -23.389 -16.144  0.00  0.00    -0.326 NA
ATOM      2  N   UNL     1      33.318 -23.545 -16.912  0.00  0.00    -0.271 N 
ATOM      3  N   UNL     1      37.200 -22.201 -17.421  0.00  0.00    -0.345 NA
ATOM      4  N   UNL     1      31.898 -24.012 -13.779  0.00  0.00    -0.239 N 
ATOM      5  N   UNL     1      32.970 -23.642 -14.498  0.00  0.00    -0.166 NA
ATOM      6  C   UNL     1      34.949 -22.337 -18.239  0.00  0.00    +0.072 C 
ATOM      7  C   UNL     1      36.777 -22.925 -16.365  0.00  0.00    +0.146 C 
ATOM      8  C   UNL     1      34.643 -23.077 -17.101  0.00  0.00    +0.199 C 
ATOM      9  C   UNL     1      36.281 -21.908 -18.358  0.00  0.00    +0.129 C 
ATOM     10  C   UNL     1      33.998 -22.024 -19.225  0.00  0.00    +0.006 C 
ATOM     11  C   UNL     1      36.626 -21.163 -19.484  0.00  0.00    +0.086 C 
ATOM     12  C   UNL     1      32.560 -23.802 -15.759  0.00  0.00    +0.152 C 
ATOM     13  C   UNL     1      34.370 -21.279 -20.340  0.00  0.00    -0.004 C 
ATOM     14  C   UNL     1      35.685 -20.848 -20.469  0.00  0.00    -0.019 C 
ATOM     15  C   UNL     1      31.236 -24.272 -15.844  0.00  0.00    +0.048 C 
ATOM     16  C   UNL     1      30.833 -24.399 -14.537  0.00  0.00    +0.046 C 
ATOM     17  C   UNL     1      29.564 -24.842 -13.939  0.00  0.00    +0.049 C 
ATOM     18  H   UNL     1      32.837 -23.725 -17.752  0.00  0.00    +0.156 HD
ATOM     19  H   UNL     1      31.883 -24.006 -12.794  0.00  0.00    +0.174 HD
ENDROOT
BRANCH   7  20
ATOM     20  C   UNL     1      37.802 -23.247 -15.329  0.00  0.00    +0.243 C 
BRANCH  20  22
ATOM     21  F   UNL     1      35.666 -25.618 -10.663  0.00  0.00    -0.204 F 
ATOM     22  C   UNL     1      37.226 -23.886 -14.071  0.00  0.00    +0.021 C 
ATOM     23  C   UNL     1      36.506 -23.111 -13.163  0.00  0.00    +0.001 C 
ATOM     24  C   UNL     1      37.420 -25.246 -13.828  0.00  0.00    +0.001 C 
ATOM     25  C   UNL     1      35.978 -23.696 -12.011  0.00  0.00    +0.029 C 
ATOM     26  C   UNL     1      36.893 -25.831 -12.676  0.00  0.00    +0.029 C 
ATOM     27  C   UNL     1      36.172 -25.056 -11.768  0.00  0.00    +0.140 C 
ENDBRANCH  20  22
BRANCH  20  28
ATOM     28  O   UNL     1      38.855 -24.081 -15.846  0.00  0.00    -0.366 OA
ATOM     29  H   UNL     1      39.063 -24.777 -15.202  0.00  0.00    +0.212 HD
ENDBRANCH  20  28
ENDBRANCH   7  20
TORSDOF 3
ENDMDL
MODEL 6
REMARK VINA RESULT:     -10.8      2.969      5.636
REMARK  Name = 46892373
REMARK  3 active torsions:
REMARK  status: ('A' for Active; 'I' for Inactive)
REMARK    1  A    between atoms: C_7  and  C_20
REMARK    2  A    between atoms: C_20  and  C_22
REMARK    3  A    between atoms: C_20  and  O_28
REMARK                            x       y       z     vdW  Elec       q    Type
REMARK                         _______ _______ _______ _____ _____    ______ ____
ROOT
ATOM      1  N   UNL     1      34.490 -23.913 -15.382  0.00  0.00    -0.326 NA
ATOM      2  N   UNL     1      36.741 -23.575 -15.976  0.00  0.00    -0.271 N 
ATOM      3  N   UNL     1      32.711 -23.162 -16.824  0.00  0.00    -0.345 NA
ATOM      4  N   UNL     1      37.995 -26.214 -14.100  0.00  0.00    -0.239 N 
ATOM      5  N   UNL     1      36.924 -25.613 -14.645  0.00  0.00    -0.166 NA
ATOM      6  C   UNL     1      34.994 -22.798 -17.466  0.00  0.00    +0.072 C 
ATOM      7  C   UNL     1      33.199 -23.750 -15.713  0.00  0.00    +0.146 C 
ATOM      8  C   UNL     1      35.365 -23.426 -16.281  0.00  0.00    +0.199 C 
ATOM      9  C   UNL     1      33.614 -22.686 -17.701  0.00  0.00    +0.129 C 
ATOM     10  C   UNL     1      35.927 -22.296 -18.389  0.00  0.00    +0.006 C 
ATOM     11  C   UNL     1      33.202 -22.063 -18.878  0.00  0.00    +0.086 C 
ATOM     12  C   UNL     1      37.451 -24.544 -15.247  0.00  0.00    +0.152 C 
ATOM     13  C   UNL     1      35.489 -21.679 -19.556  0.00  0.00    -0.004 C 
ATOM     14  C   UNL     1      34.125 -21.563 -19.800  0.00  0.00    -0.019 C 
ATOM     15  C   UNL     1      38.846 -24.462 -15.088  0.00  0.00    +0.048 C 
ATOM     16  C   UNL     1      39.171 -25.564 -14.335  0.00  0.00    +0.046 C 
ATOM     17  C   UNL     1      40.457 -26.060 -13.821  0.00  0.00    +0.049 C 
ATOM     18  H   UNL     1      37.310 -22.861 -16.345  0.00  0.00    +0.156 HD
ATOM     19  H   UNL     1      37.936 -27.046 -13.577  0.00  0.00    +0.174 HD
ENDROOT
BRANCH   7  20
ATOM     20  C   UNL     1      32.192 -24.275 -14.745  0.00  0.00    +0.243 C 
BRANCH  20  22
ATOM     21  F   UNL     1      26.846 -23.095 -16.157  0.00  0.00    -0.204 F 
ATOM     22  C   UNL     1      30.751 -23.957 -15.126  0.00  0.00    +0.021 C 
ATOM     23  C   UNL     1      29.997 -24.887 -15.842  0.00  0.00    +0.001 C 
ATOM     24  C   UNL     1      30.185 -22.736 -14.758  0.00  0.00    +0.001 C 
ATOM     25  C   UNL     1      28.678 -24.596 -16.190  0.00  0.00    +0.029 C 
ATOM     26  C   UNL     1      28.866 -22.444 -15.107  0.00  0.00    +0.029 C 
ATOM     27  C   UNL     1      28.113 -23.375 -15.823  0.00  0.00    +0.140 C 
ENDBRANCH  20  22
BRANCH  20  28
ATOM     28  O   UNL     1      32.326 -25.692 -14.535  0.00  0.00    -0.366 OA
ATOM     29  H   UNL     1      33.262 -25.913 -14.405  0.00  0.00    +0.212 HD
ENDBRANCH  20  28
ENDBRANCH   7  20
TORSDOF 3
ENDMDL
MODEL 7
REMARK VINA RESULT:     -10.7      2.923      5.814
REMARK  Name = 46892373
REMARK  3 active torsions:
REMARK  status: ('A' for Active; 'I' for Inactive)
REMARK    1  A    between atoms: C_7  and  C_20
REMARK    2  A    between atoms: C_20  and  C_22
REMARK    3  A    between atoms: C_20  and  O_28
REMARK                            x       y       z     vdW  Elec       q    Type
REMARK                         _______ _______ _______ _____ _____    ______ ____
ROOT
ATOM      1  N   UNL     1      33.582 -23.239 -16.807  0.00  0.00    -0.326 NA
ATOM      2  N   UNL     1      35.891 -23.230 -16.354  0.00  0.00    -0.271 N 
ATOM      3  N   UNL     1      32.714 -22.185 -18.793  0.00  0.00    -0.345 NA
ATOM      4  N   UNL     1      35.867 -26.081 -14.373  0.00  0.00    -0.239 N 
ATOM      5  N   UNL     1      35.223 -25.310 -15.264  0.00  0.00    -0.166 NA
ATOM      6  C   UNL     1      35.075 -22.154 -18.367  0.00  0.00    +0.072 C 
ATOM      7  C   UNL     1      32.595 -22.872 -17.639  0.00  0.00    +0.146 C 
ATOM      8  C   UNL     1      34.813 -22.865 -17.200  0.00  0.00    +0.199 C 
ATOM      9  C   UNL     1      33.959 -21.827 -19.155  0.00  0.00    +0.129 C 
ATOM     10  C   UNL     1      36.370 -21.774 -18.756  0.00  0.00    +0.006 C 
ATOM     11  C   UNL     1      34.180 -21.116 -20.333  0.00  0.00    +0.086 C 
ATOM     12  C   UNL     1      36.087 -24.316 -15.485  0.00  0.00    +0.152 C 
ATOM     13  C   UNL     1      36.563 -21.064 -19.937  0.00  0.00    -0.004 C 
ATOM     14  C   UNL     1      35.466 -20.735 -20.726  0.00  0.00    -0.019 C 
ATOM     15  C   UNL     1      37.273 -24.451 -14.740  0.00  0.00    +0.048 C 
ATOM     16  C   UNL     1      37.099 -25.611 -14.025  0.00  0.00    +0.046 C 
ATOM     17  C   UNL     1      37.963 -26.311 -13.061  0.00  0.00    +0.049 C 
ATOM     18  H   UNL     1      36.647 -22.601 -16.379  0.00  0.00    +0.156 HD
ATOM     19  H   UNL     1      35.484 -26.910 -14.003  0.00  0.00    +0.174 HD
ENDROOT
BRANCH   7  20
ATOM     20  C   UNL     1      31.210 -23.266 -17.243  0.00  0.00    +0.243 C 
BRANCH  20  22
ATOM     21  F   UNL     1      30.848 -25.381 -12.013  0.00  0.00    -0.204 F 
ATOM     22  C   UNL     1      31.113 -23.837 -15.833  0.00  0.00    +0.021 C 
ATOM     23  C   UNL     1      30.515 -25.079 -15.624  0.00  0.00    +0.001 C 
ATOM     24  C   UNL     1      31.620 -23.116 -14.752  0.00  0.00    +0.001 C 
ATOM     25  C   UNL     1      30.425 -25.601 -14.333  0.00  0.00    +0.029 C 
ATOM     26  C   UNL     1      31.531 -23.637 -13.461  0.00  0.00    +0.029 C 
ATOM     27  C   UNL     1      30.933 -24.881 -13.252  0.00  0.00    +0.140 C 
ENDBRANCH  20  22
BRANCH  20  28
ATOM     28  O   UNL     1      30.275 -22.181 -17.382  0.00  0.00    -0.366 OA
ATOM     29  H   UNL     1      29.403 -22.462 -17.063  0.00  0.00    +0.212 HD
ENDBRANCH  20  28
ENDBRANCH   7  20
TORSDOF 3
ENDMDL
MODEL 8
REMARK VINA RESULT:     -10.5      2.692      5.521
REMARK  Name = 46892373
REMARK  3 active torsions:
REMARK  status: ('A' for Active; 'I' for Inactive)
REMARK    1  A    between atoms: C_7  and  C_20
REMARK    2  A    between atoms: C_20  and  C_22
REMARK    3  A    between atoms: C_20  and  O_28
REMARK                            x       y       z     vdW  Elec       q    Type
REMARK                         _______ _______ _______ _____ _____    ______ ____
ROOT
ATOM      1  N   UNL     1      33.362 -23.668 -15.204  0.00  0.00    -0.326 NA
ATOM      2  N   UNL     1      32.399 -22.796 -17.166  0.00  0.00    -0.271 N 
ATOM      3  N   UNL     1      32.074 -25.057 -13.714  0.00  0.00    -0.345 NA
ATOM      4  N   UNL     1      35.389 -22.442 -18.893  0.00  0.00    -0.239 N 
ATOM      5  N   UNL     1      34.735 -22.978 -17.849  0.00  0.00    -0.166 NA
ATOM      6  C   UNL     1      31.054 -24.187 -15.704  0.00  0.00    +0.072 C 
ATOM      7  C   UNL     1      33.194 -24.415 -14.101  0.00  0.00    +0.146 C 
ATOM      8  C   UNL     1      32.271 -23.574 -15.987  0.00  0.00    +0.199 C 
ATOM      9  C   UNL     1      31.003 -24.941 -14.520  0.00  0.00    +0.129 C 
ATOM     10  C   UNL     1      29.929 -24.073 -16.537  0.00  0.00    +0.006 C 
ATOM     11  C   UNL     1      29.802 -25.571 -14.202  0.00  0.00    +0.086 C 
ATOM     12  C   UNL     1      33.490 -22.520 -18.006  0.00  0.00    +0.152 C 
ATOM     13  C   UNL     1      28.742 -24.712 -16.196  0.00  0.00    -0.004 C 
ATOM     14  C   UNL     1      28.678 -25.462 -15.027  0.00  0.00    -0.019 C 
ATOM     15  C   UNL     1      33.350 -21.699 -19.140  0.00  0.00    +0.048 C 
ATOM     16  C   UNL     1      34.606 -21.668 -19.696  0.00  0.00    +0.046 C 
ATOM     17  C   UNL     1      35.135 -20.990 -20.891  0.00  0.00    +0.049 C 
ATOM     18  H   UNL     1      31.561 -22.365 -17.450  0.00  0.00    +0.156 HD
ATOM     19  H   UNL     1      36.348 -22.594 -19.062  0.00  0.00    +0.174 HD
ENDROOT
BRANCH   7  20
ATOM     20  C   UNL     1      34.378 -24.548 -13.202  0.00  0.00    +0.243 C 
BRANCH  20  22
ATOM     21  F   UNL     1      39.337 -24.071 -15.873  0.00  0.00    -0.204 F 
ATOM     22  C   UNL     1      35.715 -24.420 -13.922  0.00  0.00    +0.021 C 
ATOM     23  C   UNL     1      36.465 -25.560 -14.209  0.00  0.00    +0.001 C 
ATOM     24  C   UNL     1      36.189 -23.162 -14.293  0.00  0.00    +0.001 C 
ATOM     25  C   UNL     1      37.688 -25.443 -14.869  0.00  0.00    +0.029 C 
ATOM     26  C   UNL     1      37.413 -23.043 -14.952  0.00  0.00    +0.029 C 
ATOM     27  C   UNL     1      38.163 -24.185 -15.240  0.00  0.00    +0.140 C 
ENDBRANCH  20  22
BRANCH  20  28
ATOM     28  O   UNL     1      34.337 -23.615 -12.106  0.00  0.00    -0.366 OA
ATOM     29  H   UNL     1      34.996 -22.918 -12.250  0.00  0.00    +0.212 HD
ENDBRANCH  20  28
ENDBRANCH   7  20
TORSDOF 3
ENDMDL
MODEL 9
REMARK VINA RESULT:     -10.1      3.183      6.654
REMARK  Name = 46892373
REMARK  3 active torsions:
REMARK  status: ('A' for Active; 'I' for Inactive)
REMARK    1  A    between atoms: C_7  and  C_20
REMARK    2  A    between atoms: C_20  and  C_22
REMARK    3  A    between atoms: C_20  and  O_28
REMARK                            x       y       z     vdW  Elec       q    Type
REMARK                         _______ _______ _______ _____ _____    ______ ____
ROOT
ATOM      1  N   UNL     1      32.481 -24.210 -15.495  0.00  0.00    -0.326 NA
ATOM      2  N   UNL     1      34.259 -23.300 -16.740  0.00  0.00    -0.271 N 
ATOM      3  N   UNL     1      32.779 -24.804 -13.179  0.00  0.00    -0.345 NA
ATOM      4  N   UNL     1      32.258 -21.645 -19.044  0.00  0.00    -0.239 N 
ATOM      5  N   UNL     1      32.348 -22.274 -17.861  0.00  0.00    -0.166 NA
ATOM      6  C   UNL     1      34.617 -23.879 -14.413  0.00  0.00    +0.072 C 
ATOM      7  C   UNL     1      32.060 -24.687 -14.314  0.00  0.00    +0.146 C 
ATOM      8  C   UNL     1      33.767 -23.812 -15.513  0.00  0.00    +0.199 C 
ATOM      9  C   UNL     1      34.061 -24.398 -13.232  0.00  0.00    +0.129 C 
ATOM     10  C   UNL     1      35.957 -23.459 -14.456  0.00  0.00    +0.006 C 
ATOM     11  C   UNL     1      34.880 -24.480 -12.109  0.00  0.00    +0.086 C 
ATOM     12  C   UNL     1      33.639 -22.613 -17.796  0.00  0.00    +0.152 C 
ATOM     13  C   UNL     1      36.754 -23.552 -13.320  0.00  0.00    -0.004 C 
ATOM     14  C   UNL     1      36.214 -24.064 -12.145  0.00  0.00    -0.019 C 
ATOM     15  C   UNL     1      34.366 -22.204 -18.929  0.00  0.00    +0.048 C 
ATOM     16  C   UNL     1      33.438 -21.576 -19.724  0.00  0.00    +0.046 C 
ATOM     17  C   UNL     1      33.548 -20.927 -21.040  0.00  0.00    +0.049 C 
ATOM     18  H   UNL     1      35.220 -23.456 -16.879  0.00  0.00    +0.156 HD
ATOM     19  H   UNL     1      31.415 -21.268 -19.389  0.00  0.00    +0.174 HD
ENDROOT
BRANCH   7  20
ATOM     20  C   UNL     1      30.639 -25.139 -14.246  0.00  0.00    +0.243 C 
BRANCH  20  22
ATOM     21  F   UNL     1      27.135 -22.147 -17.522  0.00  0.00    -0.204 F 
ATOM     22  C   UNL     1      29.695 -24.332 -15.130  0.00  0.00    +0.021 C 
ATOM     23  C   UNL     1      29.439 -22.993 -14.836  0.00  0.00    +0.001 C 
ATOM     24  C   UNL     1      29.086 -24.933 -16.231  0.00  0.00    +0.001 C 
ATOM     25  C   UNL     1      28.575 -22.254 -15.644  0.00  0.00    +0.029 C 
ATOM     26  C   UNL     1      28.220 -24.195 -17.039  0.00  0.00    +0.029 C 
ATOM     27  C   UNL     1      27.965 -22.855 -16.745  0.00  0.00    +0.140 C 
ENDBRANCH  20  22
BRANCH  20  28
ATOM     28  O   UNL     1      30.498 -26.538 -14.554  0.00  0.00    -0.366 OA
ATOM     29  H   UNL     1      30.013 -26.639 -15.388  0.00  0.00    +0.212 HD
ENDBRANCH  20  28
ENDBRANCH   7  20
TORSDOF 3
ENDMDL
