MODEL 1
REMARK VINA RESULT:     -12.3      0.000      0.000
REMARK  Name = 15602701
REMARK  5 active torsions:
REMARK  status: ('A' for Active; 'I' for Inactive)
REMARK    1  A    between atoms: N_5  and  C_12
REMARK    2  A    between atoms: C_6  and  C_22
REMARK    3  A    between atoms: C_13  and  C_21
REMARK    4  A    between atoms: C_22  and  C_23
REMARK    5  A    between atoms: C_23  and  N_24
REMARK                            x       y       z     vdW  Elec       q    Type
REMARK                         _______ _______ _______ _____ _____    ______ ____
ROOT
ATOM      1  S   UNL     1      33.953 -23.515 -16.895  0.00  0.00    -0.056 S 
ATOM      2  O   UNL     1      32.570 -20.553 -20.192  0.00  0.00    -0.252 OA
ATOM      3  N   UNL     1      31.899 -22.387 -17.987  0.00  0.00    -0.223 NA
ATOM      4  N   UNL     1      34.060 -21.811 -18.884  0.00  0.00    -0.248 N 
ATOM      5  N   UNL     1      34.874 -20.442 -20.562  0.00  0.00    -0.268 N 
ATOM      6  C   UNL     1      32.405 -23.882 -16.305  0.00  0.00    +0.031 C 
ATOM      7  C   UNL     1      31.437 -23.213 -16.981  0.00  0.00    +0.103 C 
ATOM      8  C   UNL     1      33.210 -22.466 -18.033  0.00  0.00    +0.166 C 
ATOM      9  C   UNL     1      33.713 -20.896 -19.913  0.00  0.00    +0.310 C 
ATOM     10  H   UNL     1      35.021 -21.996 -18.770  0.00  0.00    +0.158 HD
ATOM     11  H   UNL     1      35.726 -20.806 -20.228  0.00  0.00    +0.156 HD
ENDROOT
BRANCH   5  12
ATOM     12  C   UNL     1      34.970 -19.526 -21.637  0.00  0.00    +0.052 C 
ATOM     13  C   UNL     1      34.577 -18.987 -23.942  0.00  0.00    +0.073 C 
ATOM     14  C   UNL     1      34.483 -19.890 -22.882  0.00  0.00    +0.019 C 
ATOM     15  C   UNL     1      35.546 -18.286 -21.421  0.00  0.00    +0.015 C 
ATOM     16  C   UNL     1      35.155 -17.733 -23.741  0.00  0.00    +0.004 C 
ATOM     17  C   UNL     1      35.640 -17.383 -22.481  0.00  0.00    +0.001 C 
BRANCH  13  21
ATOM     18  F   UNL     1      34.454 -20.600 -25.704  0.00  0.00    -0.166 F 
ATOM     19  F   UNL     1      32.694 -19.379 -25.363  0.00  0.00    -0.166 F 
ATOM     20  F   UNL     1      34.466 -18.500 -26.267  0.00  0.00    -0.166 F 
ATOM     21  C   UNL     1      34.058 -19.361 -25.289  0.00  0.00    +0.419 C 
ENDBRANCH  13  21
ENDBRANCH   5  12
BRANCH   6  22
ATOM     22  C   UNL     1      32.254 -24.856 -15.159  0.00  0.00    +0.056 C 
BRANCH  22  23
ATOM     23  C   UNL     1      33.100 -24.472 -13.946  0.00  0.00    +0.093 C 
BRANCH  23  24
ATOM     24  N   UNL     1      34.410 -25.047 -14.027  0.00  0.00    -0.320 N 
ATOM     25  N   UNL     1      37.257 -26.221 -14.070  0.00  0.00    -0.220 N 
ATOM     26  N   UNL     1      38.525 -26.548 -13.758  0.00  0.00    -0.178 NA
ATOM     27  N   UNL     1      35.120 -24.119 -11.942  0.00  0.00    -0.232 NA
ATOM     28  N   UNL     1      37.355 -24.492 -11.040  0.00  0.00    -0.245 NA
ATOM     29  C   UNL     1      36.646 -25.432 -13.141  0.00  0.00    +0.185 C 
ATOM     30  C   UNL     1      35.389 -24.866 -13.037  0.00  0.00    +0.128 C 
ATOM     31  C   UNL     1      37.591 -25.234 -12.147  0.00  0.00    +0.103 C 
ATOM     32  C   UNL     1      38.724 -25.943 -12.582  0.00  0.00    +0.134 C 
ATOM     33  C   UNL     1      36.697 -26.716 -15.307  0.00  0.00    +0.135 C 
ATOM     34  C   UNL     1      36.106 -23.980 -11.024  0.00  0.00    +0.251 C 
ATOM     35  H   UNL     1      34.633 -25.595 -14.814  0.00  0.00    +0.148 HD
ENDBRANCH  23  24
ENDBRANCH  22  23
ENDBRANCH   6  22
TORSDOF 5
ENDMDL
MODEL 2
REMARK VINA RESULT:     -12.2      5.718     12.203
REMARK  Name = 15602701
REMARK  5 active torsions:
REMARK  status: ('A' for Active; 'I' for Inactive)
REMARK    1  A    between atoms: N_5  and  C_12
REMARK    2  A    between atoms: C_6  and  C_22
REMARK    3  A    between atoms: C_13  and  C_21
REMARK    4  A    between atoms: C_22  and  C_23
REMARK    5  A    between atoms: C_23  and  N_24
REMARK                            x       y       z     vdW  Elec       q    Type
REMARK                         _______ _______ _______ _____ _____    ______ ____
ROOT
ATOM      1  S   UNL     1      36.663 -20.629 -19.996  0.00  0.00    -0.056 S 
ATOM      2  O   UNL     1      35.393 -23.434 -16.521  0.00  0.00    -0.252 OA
ATOM      3  N   UNL     1      34.687 -21.928 -18.952  0.00  0.00    -0.223 NA
ATOM      4  N   UNL     1      36.815 -22.106 -17.836  0.00  0.00    -0.248 N 
ATOM      5  N   UNL     1      37.648 -23.183 -15.965  0.00  0.00    -0.268 N 
ATOM      6  C   UNL     1      35.140 -20.542 -20.739  0.00  0.00    +0.031 C 
ATOM      7  C   UNL     1      34.213 -21.274 -20.072  0.00  0.00    +0.103 C 
ATOM      8  C   UNL     1      35.966 -21.661 -18.814  0.00  0.00    +0.166 C 
ATOM      9  C   UNL     1      36.502 -22.961 -16.745  0.00  0.00    +0.310 C 
ATOM     10  H   UNL     1      37.750 -21.798 -17.894  0.00  0.00    +0.158 HD
ATOM     11  H   UNL     1      38.471 -22.735 -16.269  0.00  0.00    +0.156 HD
ENDROOT
BRANCH   5  12
ATOM     12  C   UNL     1      37.767 -23.971 -14.795  0.00  0.00    +0.052 C 
ATOM     13  C   UNL     1      37.090 -24.456 -12.545  0.00  0.00    +0.073 C 
ATOM     14  C   UNL     1      36.973 -23.679 -13.698  0.00  0.00    +0.019 C 
ATOM     15  C   UNL     1      38.673 -25.018 -14.773  0.00  0.00    +0.015 C 
ATOM     16  C   UNL     1      37.998 -25.515 -12.506  0.00  0.00    +0.004 C 
ATOM     17  C   UNL     1      38.790 -25.795 -13.620  0.00  0.00    +0.001 C 
BRANCH  13  21
ATOM     18  F   UNL     1      35.027 -23.618 -11.669  0.00  0.00    -0.166 F 
ATOM     19  F   UNL     1      35.959 -25.257 -10.596  0.00  0.00    -0.166 F 
ATOM     20  F   UNL     1      36.829 -23.266 -10.503  0.00  0.00    -0.166 F 
ATOM     21  C   UNL     1      36.243 -24.157 -11.355  0.00  0.00    +0.419 C 
ENDBRANCH  13  21
ENDBRANCH   5  12
BRANCH   6  22
ATOM     22  C   UNL     1      34.966 -19.711 -21.989  0.00  0.00    +0.056 C 
BRANCH  22  23
ATOM     23  C   UNL     1      36.025 -18.617 -22.120  0.00  0.00    +0.093 C 
BRANCH  23  24
ATOM     24  N   UNL     1      35.429 -17.364 -22.479  0.00  0.00    -0.320 N 
ATOM     25  N   UNL     1      34.107 -14.732 -23.380  0.00  0.00    -0.220 N 
ATOM     26  N   UNL     1      33.459 -13.787 -24.087  0.00  0.00    -0.178 NA
ATOM     27  N   UNL     1      34.710 -18.138 -24.623  0.00  0.00    -0.232 NA
ATOM     28  N   UNL     1      33.502 -16.713 -26.189  0.00  0.00    -0.245 NA
ATOM     29  C   UNL     1      34.221 -15.926 -24.030  0.00  0.00    +0.185 C 
ATOM     30  C   UNL     1      34.787 -17.145 -23.709  0.00  0.00    +0.128 C 
ATOM     31  C   UNL     1      33.596 -15.741 -25.253  0.00  0.00    +0.103 C 
ATOM     32  C   UNL     1      33.148 -14.408 -25.230  0.00  0.00    +0.134 C 
ATOM     33  C   UNL     1      34.597 -14.399 -22.063  0.00  0.00    +0.135 C 
ATOM     34  C   UNL     1      34.081 -17.865 -25.791  0.00  0.00    +0.251 C 
ATOM     35  H   UNL     1      35.470 -16.623 -21.832  0.00  0.00    +0.148 HD
ENDBRANCH  23  24
ENDBRANCH  22  23
ENDBRANCH   6  22
TORSDOF 5
ENDMDL
MODEL 3
REMARK VINA RESULT:     -11.5      5.765     11.957
REMARK  Name = 15602701
REMARK  5 active torsions:
REMARK  status: ('A' for Active; 'I' for Inactive)
REMARK    1  A    between atoms: N_5  and  C_12
REMARK    2  A    between atoms: C_6  and  C_22
REMARK    3  A    between atoms: C_13  and  C_21
REMARK    4  A    between atoms: C_22  and  C_23
REMARK    5  A    between atoms: C_23  and  N_24
REMARK                            x       y       z     vdW  Elec       q    Type
REMARK                         _______ _______ _______ _____ _____    ______ ____
ROOT
ATOM      1  S   UNL     1      36.542 -20.758 -20.218  0.00  0.00    -0.056 S 
ATOM      2  O   UNL     1      35.378 -23.302 -16.512  0.00  0.00    -0.252 OA
ATOM      3  N   UNL     1      34.584 -21.912 -18.985  0.00  0.00    -0.223 NA
ATOM      4  N   UNL     1      36.768 -22.112 -17.985  0.00  0.00    -0.248 N 
ATOM      5  N   UNL     1      37.671 -23.112 -16.105  0.00  0.00    -0.268 N 
ATOM      6  C   UNL     1      34.981 -20.651 -20.875  0.00  0.00    +0.031 C 
ATOM      7  C   UNL     1      34.068 -21.304 -20.113  0.00  0.00    +0.103 C 
ATOM      8  C   UNL     1      35.879 -21.689 -18.938  0.00  0.00    +0.166 C 
ATOM      9  C   UNL     1      36.488 -22.889 -16.829  0.00  0.00    +0.310 C 
ATOM     10  H   UNL     1      37.708 -21.847 -18.116  0.00  0.00    +0.158 HD
ATOM     11  H   UNL     1      38.490 -22.717 -16.482  0.00  0.00    +0.156 HD
ENDROOT
BRANCH   5  12
ATOM     12  C   UNL     1      37.830 -23.835 -14.899  0.00  0.00    +0.052 C 
ATOM     13  C   UNL     1      37.245 -24.184 -12.598  0.00  0.00    +0.073 C 
ATOM     14  C   UNL     1      37.088 -23.471 -13.786  0.00  0.00    +0.019 C 
ATOM     15  C   UNL     1      38.723 -24.893 -14.855  0.00  0.00    +0.015 C 
ATOM     16  C   UNL     1      38.140 -25.252 -12.538  0.00  0.00    +0.004 C 
ATOM     17  C   UNL     1      38.879 -25.606 -13.666  0.00  0.00    +0.001 C 
BRANCH  13  21
ATOM     18  F   UNL     1      36.908 -22.677 -10.770  0.00  0.00    -0.166 F 
ATOM     19  F   UNL     1      35.137 -23.562 -11.655  0.00  0.00    -0.166 F 
ATOM     20  F   UNL     1      36.461 -24.778 -10.433  0.00  0.00    -0.166 F 
ATOM     21  C   UNL     1      36.454 -23.806 -11.391  0.00  0.00    +0.419 C 
ENDBRANCH  13  21
ENDBRANCH   5  12
BRANCH   6  22
ATOM     22  C   UNL     1      34.763 -19.887 -22.161  0.00  0.00    +0.056 C 
BRANCH  22  23
ATOM     23  C   UNL     1      35.679 -18.671 -22.285  0.00  0.00    +0.093 C 
BRANCH  23  24
ATOM     24  N   UNL     1      35.101 -17.675 -23.138  0.00  0.00    -0.320 N 
ATOM     25  N   UNL     1      33.864 -15.438 -24.857  0.00  0.00    -0.220 N 
ATOM     26  N   UNL     1      33.355 -14.267 -25.282  0.00  0.00    -0.178 NA
ATOM     27  N   UNL     1      35.069 -16.002 -21.430  0.00  0.00    -0.232 NA
ATOM     28  N   UNL     1      34.220 -13.751 -21.823  0.00  0.00    -0.245 NA
ATOM     29  C   UNL     1      34.250 -15.429 -23.549  0.00  0.00    +0.185 C 
ATOM     30  C   UNL     1      34.809 -16.371 -22.705  0.00  0.00    +0.128 C 
ATOM     31  C   UNL     1      33.972 -14.151 -23.091  0.00  0.00    +0.103 C 
ATOM     32  C   UNL     1      33.423 -13.484 -24.200  0.00  0.00    +0.134 C 
ATOM     33  C   UNL     1      33.943 -16.540 -25.788  0.00  0.00    +0.135 C 
ATOM     34  C   UNL     1      34.763 -14.733 -21.072  0.00  0.00    +0.251 C 
ATOM     35  H   UNL     1      34.901 -17.916 -24.071  0.00  0.00    +0.148 HD
ENDBRANCH  23  24
ENDBRANCH  22  23
ENDBRANCH   6  22
TORSDOF 5
ENDMDL
MODEL 4
REMARK VINA RESULT:     -11.5      5.479     12.129
REMARK  Name = 15602701
REMARK  5 active torsions:
REMARK  status: ('A' for Active; 'I' for Inactive)
REMARK    1  A    between atoms: N_5  and  C_12
REMARK    2  A    between atoms: C_6  and  C_22
REMARK    3  A    between atoms: C_13  and  C_21
REMARK    4  A    between atoms: C_22  and  C_23
REMARK    5  A    between atoms: C_23  and  N_24
REMARK                            x       y       z     vdW  Elec       q    Type
REMARK                         _______ _______ _______ _____ _____    ______ ____
ROOT
ATOM      1  S   UNL     1      34.066 -21.185 -20.329  0.00  0.00    -0.056 S 
ATOM      2  O   UNL     1      37.020 -22.365 -16.946  0.00  0.00    -0.252 OA
ATOM      3  N   UNL     1      36.492 -20.939 -19.469  0.00  0.00    -0.223 NA
ATOM      4  N   UNL     1      34.995 -22.272 -18.132  0.00  0.00    -0.248 N 
ATOM      5  N   UNL     1      35.122 -23.478 -16.161  0.00  0.00    -0.268 N 
ATOM      6  C   UNL     1      35.166 -20.257 -21.229  0.00  0.00    +0.031 C 
ATOM      7  C   UNL     1      36.392 -20.227 -20.649  0.00  0.00    +0.103 C 
ATOM      8  C   UNL     1      35.327 -21.486 -19.203  0.00  0.00    +0.166 C 
ATOM      9  C   UNL     1      35.840 -22.674 -17.063  0.00  0.00    +0.310 C 
ATOM     10  H   UNL     1      34.065 -22.595 -18.098  0.00  0.00    +0.158 HD
ATOM     11  H   UNL     1      34.178 -23.642 -16.386  0.00  0.00    +0.156 HD
ENDROOT
BRANCH   5  12
ATOM     12  C   UNL     1      35.590 -24.081 -14.969  0.00  0.00    +0.052 C 
ATOM     13  C   UNL     1      37.279 -25.315 -13.795  0.00  0.00    +0.073 C 
ATOM     14  C   UNL     1      36.818 -24.722 -14.970  0.00  0.00    +0.019 C 
ATOM     15  C   UNL     1      34.811 -24.016 -13.826  0.00  0.00    +0.015 C 
ATOM     16  C   UNL     1      36.506 -25.259 -12.635  0.00  0.00    +0.004 C 
ATOM     17  C   UNL     1      35.271 -24.610 -12.651  0.00  0.00    +0.001 C 
BRANCH  13  21
ATOM     18  F   UNL     1      38.644 -27.123 -14.567  0.00  0.00    -0.166 F 
ATOM     19  F   UNL     1      39.633 -25.227 -14.206  0.00  0.00    -0.166 F 
ATOM     20  F   UNL     1      38.954 -26.432 -12.528  0.00  0.00    -0.166 F 
ATOM     21  C   UNL     1      38.599 -26.009 -13.777  0.00  0.00    +0.419 C 
ENDBRANCH  13  21
ENDBRANCH   5  12
BRANCH   6  22
ATOM     22  C   UNL     1      34.711 -19.597 -22.510  0.00  0.00    +0.056 C 
BRANCH  22  23
ATOM     23  C   UNL     1      35.724 -18.583 -23.040  0.00  0.00    +0.093 C 
BRANCH  23  24
ATOM     24  N   UNL     1      35.262 -17.241 -22.842  0.00  0.00    -0.320 N 
ATOM     25  N   UNL     1      34.214 -14.359 -22.557  0.00  0.00    -0.220 N 
ATOM     26  N   UNL     1      33.648 -13.159 -22.792  0.00  0.00    -0.178 NA
ATOM     27  N   UNL     1      34.363 -17.056 -25.050  0.00  0.00    -0.232 NA
ATOM     28  N   UNL     1      33.258 -15.033 -25.845  0.00  0.00    -0.245 NA
ATOM     29  C   UNL     1      34.159 -15.212 -23.619  0.00  0.00    +0.185 C 
ATOM     30  C   UNL     1      34.595 -16.506 -23.837  0.00  0.00    +0.128 C 
ATOM     31  C   UNL     1      33.506 -14.512 -24.621  0.00  0.00    +0.103 C 
ATOM     32  C   UNL     1      33.217 -13.259 -24.054  0.00  0.00    +0.134 C 
ATOM     33  C   UNL     1      34.798 -14.608 -21.260  0.00  0.00    +0.135 C 
ATOM     34  C   UNL     1      33.717 -16.297 -25.966  0.00  0.00    +0.251 C 
ATOM     35  H   UNL     1      35.418 -16.815 -21.969  0.00  0.00    +0.148 HD
ENDBRANCH  23  24
ENDBRANCH  22  23
ENDBRANCH   6  22
TORSDOF 5
ENDMDL
MODEL 5
REMARK VINA RESULT:     -11.4      5.007     11.824
REMARK  Name = 15602701
REMARK  5 active torsions:
REMARK  status: ('A' for Active; 'I' for Inactive)
REMARK    1  A    between atoms: N_5  and  C_12
REMARK    2  A    between atoms: C_6  and  C_22
REMARK    3  A    between atoms: C_13  and  C_21
REMARK    4  A    between atoms: C_22  and  C_23
REMARK    5  A    between atoms: C_23  and  N_24
REMARK                            x       y       z     vdW  Elec       q    Type
REMARK                         _______ _______ _______ _____ _____    ______ ____
ROOT
ATOM      1  S   UNL     1      35.924 -20.863 -20.350  0.00  0.00    -0.056 S 
ATOM      2  O   UNL     1      32.037 -22.281 -18.243  0.00  0.00    -0.252 OA
ATOM      3  N   UNL     1      33.341 -20.795 -20.427  0.00  0.00    -0.223 NA
ATOM      4  N   UNL     1      34.343 -22.038 -18.622  0.00  0.00    -0.248 N 
ATOM      5  N   UNL     1      33.596 -23.272 -16.812  0.00  0.00    -0.268 N 
ATOM      6  C   UNL     1      35.162 -20.003 -21.600  0.00  0.00    +0.031 C 
ATOM      7  C   UNL     1      33.811 -20.062 -21.500  0.00  0.00    +0.103 C 
ATOM      8  C   UNL     1      34.366 -21.264 -19.752  0.00  0.00    +0.166 C 
ATOM      9  C   UNL     1      33.199 -22.508 -17.923  0.00  0.00    +0.310 C 
ATOM     10  H   UNL     1      35.218 -22.297 -18.251  0.00  0.00    +0.158 HD
ATOM     11  H   UNL     1      34.567 -23.369 -16.680  0.00  0.00    +0.156 HD
ENDROOT
BRANCH   5  12
ATOM     12  C   UNL     1      32.773 -23.918 -15.860  0.00  0.00    +0.052 C 
ATOM     13  C   UNL     1      30.596 -24.629 -15.144  0.00  0.00    +0.073 C 
ATOM     14  C   UNL     1      31.407 -23.991 -16.083  0.00  0.00    +0.019 C 
ATOM     15  C   UNL     1      33.349 -24.466 -14.726  0.00  0.00    +0.015 C 
ATOM     16  C   UNL     1      31.161 -25.187 -13.997  0.00  0.00    +0.004 C 
ATOM     17  C   UNL     1      32.538 -25.104 -13.788  0.00  0.00    +0.001 C 
BRANCH  13  21
ATOM     18  F   UNL     1      28.473 -23.527 -15.209  0.00  0.00    -0.166 F 
ATOM     19  F   UNL     1      28.786 -25.144 -16.620  0.00  0.00    -0.166 F 
ATOM     20  F   UNL     1      28.513 -25.585 -14.508  0.00  0.00    -0.166 F 
ATOM     21  C   UNL     1      29.124 -24.718 -15.367  0.00  0.00    +0.419 C 
ENDBRANCH  13  21
ENDBRANCH   5  12
BRANCH   6  22
ATOM     22  C   UNL     1      36.002 -19.295 -22.638  0.00  0.00    +0.056 C 
BRANCH  22  23
ATOM     23  C   UNL     1      35.156 -18.570 -23.684  0.00  0.00    +0.093 C 
BRANCH  23  24
ATOM     24  N   UNL     1      34.865 -17.229 -23.271  0.00  0.00    -0.320 N 
ATOM     25  N   UNL     1      34.186 -14.319 -22.522  0.00  0.00    -0.220 N 
ATOM     26  N   UNL     1      33.776 -13.037 -22.557  0.00  0.00    -0.178 NA
ATOM     27  N   UNL     1      34.002 -16.589 -25.407  0.00  0.00    -0.232 NA
ATOM     28  N   UNL     1      33.162 -14.346 -25.858  0.00  0.00    -0.245 NA
ATOM     29  C   UNL     1      34.028 -14.982 -23.703  0.00  0.00    +0.185 C 
ATOM     30  C   UNL     1      34.298 -16.270 -24.127  0.00  0.00    +0.128 C 
ATOM     31  C   UNL     1      33.470 -14.058 -24.572  0.00  0.00    +0.103 C 
ATOM     32  C   UNL     1      33.339 -12.883 -23.812  0.00  0.00    +0.134 C 
ATOM     33  C   UNL     1      34.731 -14.840 -21.289  0.00  0.00    +0.135 C 
ATOM     34  C   UNL     1      33.460 -15.621 -26.183  0.00  0.00    +0.251 C 
ATOM     35  H   UNL     1      35.071 -16.968 -22.344  0.00  0.00    +0.148 HD
ENDBRANCH  23  24
ENDBRANCH  22  23
ENDBRANCH   6  22
TORSDOF 5
ENDMDL
MODEL 6
REMARK VINA RESULT:     -11.3      5.980     11.703
REMARK  Name = 15602701
REMARK  5 active torsions:
REMARK  status: ('A' for Active; 'I' for Inactive)
REMARK    1  A    between atoms: N_5  and  C_12
REMARK    2  A    between atoms: C_6  and  C_22
REMARK    3  A    between atoms: C_13  and  C_21
REMARK    4  A    between atoms: C_22  and  C_23
REMARK    5  A    between atoms: C_23  and  N_24
REMARK                            x       y       z     vdW  Elec       q    Type
REMARK                         _______ _______ _______ _____ _____    ______ ____
ROOT
ATOM      1  S   UNL     1      34.145 -20.335 -20.700  0.00  0.00    -0.056 S 
ATOM      2  O   UNL     1      33.446 -23.328 -17.219  0.00  0.00    -0.252 OA
ATOM      3  N   UNL     1      35.301 -21.961 -19.056  0.00  0.00    -0.223 NA
ATOM      4  N   UNL     1      32.905 -21.765 -18.887  0.00  0.00    -0.248 N 
ATOM      5  N   UNL     1      31.230 -22.684 -17.581  0.00  0.00    -0.268 N 
ATOM      6  C   UNL     1      35.832 -20.515 -20.771  0.00  0.00    +0.031 C 
ATOM      7  C   UNL     1      36.283 -21.401 -19.849  0.00  0.00    +0.103 C 
ATOM      8  C   UNL     1      34.135 -21.473 -19.415  0.00  0.00    +0.166 C 
ATOM      9  C   UNL     1      32.613 -22.665 -17.827  0.00  0.00    +0.310 C 
ATOM     10  H   UNL     1      32.135 -21.298 -19.287  0.00  0.00    +0.158 HD
ATOM     11  H   UNL     1      30.682 -22.097 -18.152  0.00  0.00    +0.156 HD
ENDROOT
BRANCH   5  12
ATOM     12  C   UNL     1      30.527 -23.441 -16.615  0.00  0.00    +0.052 C 
ATOM     13  C   UNL     1      30.404 -24.395 -14.416  0.00  0.00    +0.073 C 
ATOM     14  C   UNL     1      31.098 -23.649 -15.369  0.00  0.00    +0.019 C 
ATOM     15  C   UNL     1      29.283 -23.959 -16.933  0.00  0.00    +0.015 C 
ATOM     16  C   UNL     1      29.150 -24.923 -14.721  0.00  0.00    +0.004 C 
ATOM     17  C   UNL     1      28.589 -24.705 -15.980  0.00  0.00    +0.001 C 
BRANCH  13  21
ATOM     18  F   UNL     1      31.978 -23.728 -12.741  0.00  0.00    -0.166 F 
ATOM     19  F   UNL     1      30.097 -24.559 -12.050  0.00  0.00    -0.166 F 
ATOM     20  F   UNL     1      31.587 -25.856 -12.960  0.00  0.00    -0.166 F 
ATOM     21  C   UNL     1      31.003 -24.628 -13.070  0.00  0.00    +0.419 C 
ENDBRANCH  13  21
ENDBRANCH   5  12
BRANCH   6  22
ATOM     22  C   UNL     1      36.623 -19.727 -21.789  0.00  0.00    +0.056 C 
BRANCH  22  23
ATOM     23  C   UNL     1      36.252 -18.245 -21.804  0.00  0.00    +0.093 C 
BRANCH  23  24
ATOM     24  N   UNL     1      35.528 -17.907 -22.995  0.00  0.00    -0.320 N 
ATOM     25  N   UNL     1      33.956 -17.042 -25.498  0.00  0.00    -0.220 N 
ATOM     26  N   UNL     1      33.250 -16.335 -26.401  0.00  0.00    -0.178 NA
ATOM     27  N   UNL     1      35.111 -15.660 -22.294  0.00  0.00    -0.232 NA
ATOM     28  N   UNL     1      33.864 -14.074 -23.663  0.00  0.00    -0.245 NA
ATOM     29  C   UNL     1      34.282 -16.336 -24.378  0.00  0.00    +0.185 C 
ATOM     30  C   UNL     1      34.976 -16.635 -23.220  0.00  0.00    +0.128 C 
ATOM     31  C   UNL     1      33.748 -15.072 -24.570  0.00  0.00    +0.103 C 
ATOM     32  C   UNL     1      33.126 -15.132 -25.829  0.00  0.00    +0.134 C 
ATOM     33  C   UNL     1      34.280 -18.418 -25.793  0.00  0.00    +0.135 C 
ATOM     34  C   UNL     1      34.555 -14.456 -22.568  0.00  0.00    +0.251 C 
ATOM     35  H   UNL     1      35.414 -18.598 -23.686  0.00  0.00    +0.148 HD
ENDBRANCH  23  24
ENDBRANCH  22  23
ENDBRANCH   6  22
TORSDOF 5
ENDMDL
MODEL 7
REMARK VINA RESULT:     -11.3      5.437     11.856
REMARK  Name = 15602701
REMARK  5 active torsions:
REMARK  status: ('A' for Active; 'I' for Inactive)
REMARK    1  A    between atoms: N_5  and  C_12
REMARK    2  A    between atoms: C_6  and  C_22
REMARK    3  A    between atoms: C_13  and  C_21
REMARK    4  A    between atoms: C_22  and  C_23
REMARK    5  A    between atoms: C_23  and  N_24
REMARK                            x       y       z     vdW  Elec       q    Type
REMARK                         _______ _______ _______ _____ _____    ______ ____
ROOT
ATOM      1  S   UNL     1      33.974 -21.277 -20.268  0.00  0.00    -0.056 S 
ATOM      2  O   UNL     1      36.949 -22.395 -16.882  0.00  0.00    -0.252 OA
ATOM      3  N   UNL     1      36.396 -20.988 -19.411  0.00  0.00    -0.223 NA
ATOM      4  N   UNL     1      34.921 -22.339 -18.067  0.00  0.00    -0.248 N 
ATOM      5  N   UNL     1      35.069 -23.535 -16.091  0.00  0.00    -0.268 N 
ATOM      6  C   UNL     1      35.059 -20.335 -21.173  0.00  0.00    +0.031 C 
ATOM      7  C   UNL     1      36.284 -20.283 -20.593  0.00  0.00    +0.103 C 
ATOM      8  C   UNL     1      35.240 -21.552 -19.142  0.00  0.00    +0.166 C 
ATOM      9  C   UNL     1      35.773 -22.724 -16.997  0.00  0.00    +0.310 C 
ATOM     10  H   UNL     1      33.996 -22.677 -18.031  0.00  0.00    +0.158 HD
ATOM     11  H   UNL     1      34.127 -23.715 -16.315  0.00  0.00    +0.156 HD
ENDROOT
BRANCH   5  12
ATOM     12  C   UNL     1      35.547 -24.125 -14.897  0.00  0.00    +0.052 C 
ATOM     13  C   UNL     1      37.247 -25.345 -13.724  0.00  0.00    +0.073 C 
ATOM     14  C   UNL     1      36.776 -24.764 -14.901  0.00  0.00    +0.019 C 
ATOM     15  C   UNL     1      34.776 -24.050 -13.749  0.00  0.00    +0.015 C 
ATOM     16  C   UNL     1      36.483 -25.279 -12.558  0.00  0.00    +0.004 C 
ATOM     17  C   UNL     1      35.247 -24.631 -12.571  0.00  0.00    +0.001 C 
BRANCH  13  21
ATOM     18  F   UNL     1      38.961 -26.442 -12.465  0.00  0.00    -0.166 F 
ATOM     19  F   UNL     1      38.604 -27.164 -14.478  0.00  0.00    -0.166 F 
ATOM     20  F   UNL     1      39.580 -25.246 -14.172  0.00  0.00    -0.166 F 
ATOM     21  C   UNL     1      38.569 -26.037 -13.709  0.00  0.00    +0.419 C 
ENDBRANCH  13  21
ENDBRANCH   5  12
BRANCH   6  22
ATOM     22  C   UNL     1      34.593 -19.687 -22.456  0.00  0.00    +0.056 C 
BRANCH  22  23
ATOM     23  C   UNL     1      35.632 -18.733 -23.044  0.00  0.00    +0.093 C 
BRANCH  23  24
ATOM     24  N   UNL     1      35.003 -17.593 -23.644  0.00  0.00    -0.320 N 
ATOM     25  N   UNL     1      33.669 -15.071 -24.803  0.00  0.00    -0.220 N 
ATOM     26  N   UNL     1      33.151 -13.837 -24.958  0.00  0.00    -0.178 NA
ATOM     27  N   UNL     1      35.157 -16.266 -21.661  0.00  0.00    -0.232 NA
ATOM     28  N   UNL     1      34.326 -13.976 -21.555  0.00  0.00    -0.245 NA
ATOM     29  C   UNL     1      34.169 -15.306 -23.556  0.00  0.00    +0.185 C 
ATOM     30  C   UNL     1      34.778 -16.391 -22.953  0.00  0.00    +0.128 C 
ATOM     31  C   UNL     1      33.960 -14.134 -22.848  0.00  0.00    +0.103 C 
ATOM     32  C   UNL     1      33.331 -13.269 -23.760  0.00  0.00    +0.134 C 
ATOM     33  C   UNL     1      33.643 -15.981 -25.924  0.00  0.00    +0.135 C 
ATOM     34  C   UNL     1      34.911 -15.083 -21.050  0.00  0.00    +0.251 C 
ATOM     35  H   UNL     1      34.716 -17.656 -24.583  0.00  0.00    +0.148 HD
ENDBRANCH  23  24
ENDBRANCH  22  23
ENDBRANCH   6  22
TORSDOF 5
ENDMDL
MODEL 8
REMARK VINA RESULT:     -11.1      7.364     13.440
REMARK  Name = 15602701
REMARK  5 active torsions:
REMARK  status: ('A' for Active; 'I' for Inactive)
REMARK    1  A    between atoms: N_5  and  C_12
REMARK    2  A    between atoms: C_6  and  C_22
REMARK    3  A    between atoms: C_13  and  C_21
REMARK    4  A    between atoms: C_22  and  C_23
REMARK    5  A    between atoms: C_23  and  N_24
REMARK                            x       y       z     vdW  Elec       q    Type
REMARK                         _______ _______ _______ _____ _____    ______ ____
ROOT
ATOM      1  S   UNL     1      33.899 -15.381 -25.044  0.00  0.00    -0.056 S 
ATOM      2  O   UNL     1      35.273 -16.978 -20.907  0.00  0.00    -0.252 OA
ATOM      3  N   UNL     1      34.520 -14.708 -22.627  0.00  0.00    -0.223 NA
ATOM      4  N   UNL     1      34.628 -17.055 -23.164  0.00  0.00    -0.248 N 
ATOM      5  N   UNL     1      35.168 -19.011 -22.053  0.00  0.00    -0.268 N 
ATOM      6  C   UNL     1      33.841 -13.741 -24.607  0.00  0.00    +0.031 C 
ATOM      7  C   UNL     1      34.195 -13.553 -23.312  0.00  0.00    +0.103 C 
ATOM      8  C   UNL     1      34.400 -15.733 -23.441  0.00  0.00    +0.166 C 
ATOM      9  C   UNL     1      35.049 -17.617 -21.929  0.00  0.00    +0.310 C 
ATOM     10  H   UNL     1      34.485 -17.688 -23.906  0.00  0.00    +0.158 HD
ATOM     11  H   UNL     1      34.955 -19.386 -22.938  0.00  0.00    +0.156 HD
ENDROOT
BRANCH   5  12
ATOM     12  C   UNL     1      35.559 -19.944 -21.063  0.00  0.00    +0.052 C 
ATOM     13  C   UNL     1      34.982 -21.664 -19.493  0.00  0.00    +0.073 C 
ATOM     14  C   UNL     1      34.597 -20.744 -20.468  0.00  0.00    +0.019 C 
ATOM     15  C   UNL     1      36.895 -20.039 -20.711  0.00  0.00    +0.015 C 
ATOM     16  C   UNL     1      36.324 -21.772 -19.127  0.00  0.00    +0.004 C 
ATOM     17  C   UNL     1      37.280 -20.958 -19.735  0.00  0.00    +0.001 C 
BRANCH  13  21
ATOM     18  F   UNL     1      33.808 -23.748 -19.450  0.00  0.00    -0.166 F 
ATOM     19  F   UNL     1      34.240 -22.822 -17.537  0.00  0.00    -0.166 F 
ATOM     20  F   UNL     1      32.718 -21.970 -18.835  0.00  0.00    -0.166 F 
ATOM     21  C   UNL     1      33.961 -22.534 -18.842  0.00  0.00    +0.419 C 
ENDBRANCH  13  21
ENDBRANCH   5  12
BRANCH   6  22
ATOM     22  C   UNL     1      33.432 -12.710 -25.633  0.00  0.00    +0.056 C 
BRANCH  22  23
ATOM     23  C   UNL     1      33.889 -11.299 -25.264  0.00  0.00    +0.093 C 
BRANCH  23  24
ATOM     24  N   UNL     1      33.267 -10.857 -24.051  0.00  0.00    -0.320 N 
ATOM     25  N   UNL     1      32.003  -9.775 -21.459  0.00  0.00    -0.220 N 
ATOM     26  N   UNL     1      31.663  -8.998 -20.413  0.00  0.00    -0.178 NA
ATOM     27  N   UNL     1      34.343  -8.722 -24.091  0.00  0.00    -0.232 NA
ATOM     28  N   UNL     1      33.975  -7.041 -22.365  0.00  0.00    -0.245 NA
ATOM     29  C   UNL     1      32.886  -9.188 -22.317  0.00  0.00    +0.185 C 
ATOM     30  C   UNL     1      33.499  -9.590 -23.489  0.00  0.00    +0.128 C 
ATOM     31  C   UNL     1      33.136  -7.933 -21.787  0.00  0.00    +0.103 C 
ATOM     32  C   UNL     1      32.358  -7.874 -20.619  0.00  0.00    +0.134 C 
ATOM     33  C   UNL     1      31.425 -11.094 -21.561  0.00  0.00    +0.135 C 
ATOM     34  C   UNL     1      34.527  -7.518 -23.500  0.00  0.00    +0.251 C 
ATOM     35  H   UNL     1      32.649 -11.468 -23.591  0.00  0.00    +0.148 HD
ENDBRANCH  23  24
ENDBRANCH  22  23
ENDBRANCH   6  22
TORSDOF 5
ENDMDL
MODEL 9
REMARK VINA RESULT:     -11.1      7.453     10.647
REMARK  Name = 15602701
REMARK  5 active torsions:
REMARK  status: ('A' for Active; 'I' for Inactive)
REMARK    1  A    between atoms: N_5  and  C_12
REMARK    2  A    between atoms: C_6  and  C_22
REMARK    3  A    between atoms: C_13  and  C_21
REMARK    4  A    between atoms: C_22  and  C_23
REMARK    5  A    between atoms: C_23  and  N_24
REMARK                            x       y       z     vdW  Elec       q    Type
REMARK                         _______ _______ _______ _____ _____    ______ ____
ROOT
ATOM      1  S   UNL     1      34.689 -15.384 -23.045  0.00  0.00    -0.056 S 
ATOM      2  O   UNL     1      33.349 -11.524 -25.251  0.00  0.00    -0.252 OA
ATOM      3  N   UNL     1      33.700 -14.449 -25.243  0.00  0.00    -0.223 NA
ATOM      4  N   UNL     1      34.200 -12.852 -23.510  0.00  0.00    -0.248 N 
ATOM      5  N   UNL     1      34.035 -10.560 -23.236  0.00  0.00    -0.268 N 
ATOM      6  C   UNL     1      34.316 -16.463 -24.302  0.00  0.00    +0.031 C 
ATOM      7  C   UNL     1      33.810 -15.819 -25.383  0.00  0.00    +0.103 C 
ATOM      8  C   UNL     1      34.134 -14.108 -24.051  0.00  0.00    +0.166 C 
ATOM      9  C   UNL     1      33.811 -11.629 -24.120  0.00  0.00    +0.310 C 
ATOM     10  H   UNL     1      34.557 -12.788 -22.594  0.00  0.00    +0.158 HD
ATOM     11  H   UNL     1      34.413 -10.797 -22.359  0.00  0.00    +0.156 HD
ENDROOT
BRANCH   5  12
ATOM     12  C   UNL     1      33.785  -9.184 -23.453  0.00  0.00    +0.052 C 
ATOM     13  C   UNL     1      32.245  -7.347 -23.549  0.00  0.00    +0.073 C 
ATOM     14  C   UNL     1      32.491  -8.704 -23.337  0.00  0.00    +0.019 C 
ATOM     15  C   UNL     1      34.840  -8.346 -23.773  0.00  0.00    +0.015 C 
ATOM     16  C   UNL     1      33.296  -6.489 -23.873  0.00  0.00    +0.004 C 
ATOM     17  C   UNL     1      34.594  -6.989 -23.986  0.00  0.00    +0.001 C 
BRANCH  13  21
ATOM     18  F   UNL     1      29.889  -7.726 -23.734  0.00  0.00    -0.166 F 
ATOM     19  F   UNL     1      30.549  -6.374 -22.172  0.00  0.00    -0.166 F 
ATOM     20  F   UNL     1      30.630  -5.749 -24.254  0.00  0.00    -0.166 F 
ATOM     21  C   UNL     1      30.857  -6.812 -23.428  0.00  0.00    +0.419 C 
ENDBRANCH  13  21
ENDBRANCH   5  12
BRANCH   6  22
ATOM     22  C   UNL     1      34.569 -17.941 -24.117  0.00  0.00    +0.056 C 
BRANCH  22  23
ATOM     23  C   UNL     1      35.360 -18.247 -22.846  0.00  0.00    +0.093 C 
BRANCH  23  24
ATOM     24  N   UNL     1      34.653 -19.172 -22.010  0.00  0.00    -0.320 N 
ATOM     25  N   UNL     1      33.265 -21.196 -20.148  0.00  0.00    -0.220 N 
ATOM     26  N   UNL     1      33.016 -22.132 -19.213  0.00  0.00    -0.178 NA
ATOM     27  N   UNL     1      36.626 -19.893 -20.868  0.00  0.00    -0.232 NA
ATOM     28  N   UNL     1      36.574 -21.578 -19.107  0.00  0.00    -0.245 NA
ATOM     29  C   UNL     1      34.582 -20.857 -20.251  0.00  0.00    +0.185 C 
ATOM     30  C   UNL     1      35.288 -19.971 -21.044  0.00  0.00    +0.128 C 
ATOM     31  C   UNL     1      35.237 -21.632 -19.308  0.00  0.00    +0.103 C 
ATOM     32  C   UNL     1      34.224 -22.395 -18.703  0.00  0.00    +0.134 C 
ATOM     33  C   UNL     1      32.160 -20.670 -20.916  0.00  0.00    +0.135 C 
ATOM     34  C   UNL     1      37.179 -20.690 -19.923  0.00  0.00    +0.251 C 
ATOM     35  H   UNL     1      33.678 -19.251 -22.117  0.00  0.00    +0.148 HD
ENDBRANCH  23  24
ENDBRANCH  22  23
ENDBRANCH   6  22
TORSDOF 5
ENDMDL
