MODEL 1
REMARK VINA RESULT:     -12.5      0.000      0.000
REMARK  Name = 5073
REMARK  4 active torsions:
REMARK  status: ('A' for Active; 'I' for Inactive)
REMARK    1  A    between atoms: N_1  and  C_18
REMARK    2  A    between atoms: C_2  and  C_11
REMARK    3  A    between atoms: C_18  and  C_19
REMARK    4  A    between atoms: C_19  and  C_23
REMARK                            x       y       z     vdW  Elec       q    Type
REMARK                         _______ _______ _______ _____ _____    ______ ____
ROOT
ATOM      1  N   UNL     1      35.767 -19.712 -20.633  0.00  0.00    +0.387 N 
ATOM      2  C   UNL     1      35.236 -18.686 -23.331  0.00  0.00    +0.039 C 
ATOM      3  C   UNL     1      34.183 -19.457 -22.518  0.00  0.00    -0.017 C 
ATOM      4  C   UNL     1      36.246 -18.023 -22.379  0.00  0.00    -0.017 C 
ATOM      5  C   UNL     1      34.841 -20.421 -21.528  0.00  0.00    -0.077 C 
ATOM      6  C   UNL     1      36.829 -19.039 -21.394  0.00  0.00    -0.077 C 
ATOM      7  H   UNL     1      35.237 -18.998 -20.135  0.00  0.00    -0.080 HD
ENDROOT
BRANCH   2  11
ATOM      8  F   UNL     1      33.204 -12.434 -24.747  0.00  0.00    -0.204 F 
ATOM      9  O   UNL     1      33.728 -17.008 -26.139  0.00  0.00    -0.354 OA
ATOM     10  N   UNL     1      34.244 -18.132 -25.508  0.00  0.00    -0.081 NA
ATOM     11  C   UNL     1      34.619 -17.706 -24.303  0.00  0.00    +0.100 A 
ATOM     12  C   UNL     1      34.376 -16.340 -24.103  0.00  0.00    +0.054 A 
ATOM     13  C   UNL     1      33.808 -15.939 -25.300  0.00  0.00    +0.179 A 
ATOM     14  C   UNL     1      34.557 -15.392 -23.084  0.00  0.00    +0.007 C 
ATOM     15  C   UNL     1      33.394 -14.639 -25.576  0.00  0.00    +0.070 C 
ATOM     16  C   UNL     1      34.149 -14.072 -23.327  0.00  0.00    +0.030 C 
ATOM     17  C   UNL     1      33.580 -13.705 -24.551  0.00  0.00    +0.143 C 
ENDBRANCH   2  11
BRANCH   1  18
ATOM     18  C   UNL     1      36.344 -20.636 -19.658  0.00  0.00    -0.076 C 
BRANCH  18  19
ATOM     19  C   UNL     1      35.659 -21.991 -19.761  0.00  0.00    -0.007 C 
BRANCH  19  23
ATOM     20  O   UNL     1      32.951 -22.516 -19.395  0.00  0.00    -0.274 OA
ATOM     21  N   UNL     1      33.138 -23.057 -17.137  0.00  0.00    -0.237 N 
ATOM     22  N   UNL     1      35.252 -22.917 -16.082  0.00  0.00    -0.399 NA
ATOM     23  C   UNL     1      35.110 -22.416 -18.431  0.00  0.00    +0.123 C 
ATOM     24  C   UNL     1      31.685 -23.228 -17.027  0.00  0.00    +0.100 C 
ATOM     25  C   UNL     1      31.227 -23.989 -15.797  0.00  0.00    +0.022 C 
ATOM     26  C   UNL     1      33.977 -23.144 -16.040  0.00  0.00    +0.165 C 
ATOM     27  C   UNL     1      31.908 -23.412 -14.574  0.00  0.00    +0.011 C 
ATOM     28  C   UNL     1      33.405 -23.598 -14.710  0.00  0.00    +0.075 C 
ATOM     29  C   UNL     1      33.635 -22.668 -18.383  0.00  0.00    +0.237 C 
ATOM     30  C   UNL     1      35.807 -22.558 -17.287  0.00  0.00    +0.096 C 
ATOM     31  C   UNL     1      37.299 -22.363 -17.209  0.00  0.00    +0.062 C 
ENDBRANCH  19  23
ENDBRANCH  18  19
ENDBRANCH   1  18
TORSDOF 4
ENDMDL
MODEL 2
REMARK VINA RESULT:     -12.3      2.528      4.315
REMARK  Name = 5073
REMARK  4 active torsions:
REMARK  status: ('A' for Active; 'I' for Inactive)
REMARK    1  A    between atoms: N_1  and  C_18
REMARK    2  A    between atoms: C_2  and  C_11
REMARK    3  A    between atoms: C_18  and  C_19
REMARK    4  A    between atoms: C_19  and  C_23
REMARK                            x       y       z     vdW  Elec       q    Type
REMARK                         _______ _______ _______ _____ _____    ______ ____
ROOT
ATOM      1  N   UNL     1      34.322 -22.205 -18.537  0.00  0.00    +0.387 N 
ATOM      2  C   UNL     1      34.892 -20.555 -20.895  0.00  0.00    +0.039 C 
ATOM      3  C   UNL     1      33.494 -20.632 -20.260  0.00  0.00    -0.017 C 
ATOM      4  C   UNL     1      35.962 -20.890 -19.843  0.00  0.00    -0.017 C 
ATOM      5  C   UNL     1      33.280 -21.970 -19.548  0.00  0.00    -0.077 C 
ATOM      6  C   UNL     1      35.659 -22.219 -19.147  0.00  0.00    -0.077 C 
ATOM      7  H   UNL     1      34.288 -21.437 -17.867  0.00  0.00    -0.080 HD
ENDROOT
BRANCH   2  11
ATOM      8  F   UNL     1      34.202 -16.628 -26.310  0.00  0.00    -0.204 F 
ATOM      9  O   UNL     1      35.878 -17.221 -21.841  0.00  0.00    -0.354 OA
ATOM     10  N   UNL     1      35.819 -18.281 -20.946  0.00  0.00    -0.081 NA
ATOM     11  C   UNL     1      35.146 -19.235 -21.587  0.00  0.00    +0.100 A 
ATOM     12  C   UNL     1      34.750 -18.855 -22.878  0.00  0.00    +0.054 A 
ATOM     13  C   UNL     1      35.239 -17.565 -22.993  0.00  0.00    +0.179 A 
ATOM     14  C   UNL     1      34.052 -19.417 -23.957  0.00  0.00    +0.007 C 
ATOM     15  C   UNL     1      35.086 -16.766 -24.122  0.00  0.00    +0.070 C 
ATOM     16  C   UNL     1      33.879 -18.640 -25.111  0.00  0.00    +0.030 C 
ATOM     17  C   UNL     1      34.387 -17.340 -25.190  0.00  0.00    +0.143 C 
ENDBRANCH   2  11
BRANCH   1  18
ATOM     18  C   UNL     1      34.070 -23.460 -17.828  0.00  0.00    -0.076 C 
BRANCH  18  19
ATOM     19  C   UNL     1      33.082 -23.224 -16.694  0.00  0.00    -0.007 C 
BRANCH  19  23
ATOM     20  O   UNL     1      35.728 -22.648 -16.052  0.00  0.00    -0.274 OA
ATOM     21  N   UNL     1      35.654 -23.618 -13.936  0.00  0.00    -0.237 N 
ATOM     22  N   UNL     1      33.661 -24.667 -13.210  0.00  0.00    -0.399 NA
ATOM     23  C   UNL     1      33.678 -23.618 -15.375  0.00  0.00    +0.123 C 
ATOM     24  C   UNL     1      37.079 -23.343 -13.727  0.00  0.00    +0.100 C 
ATOM     25  C   UNL     1      37.537 -23.426 -12.284  0.00  0.00    +0.022 C 
ATOM     26  C   UNL     1      34.898 -24.333 -13.024  0.00  0.00    +0.165 C 
ATOM     27  C   UNL     1      37.028 -24.715 -11.675  0.00  0.00    +0.011 C 
ATOM     28  C   UNL     1      35.513 -24.701 -11.686  0.00  0.00    +0.075 C 
ATOM     29  C   UNL     1      35.111 -23.239 -15.166  0.00  0.00    +0.237 C 
ATOM     30  C   UNL     1      33.060 -24.299 -14.390  0.00  0.00    +0.096 C 
ATOM     31  C   UNL     1      31.613 -24.711 -14.464  0.00  0.00    +0.062 C 
ENDBRANCH  19  23
ENDBRANCH  18  19
ENDBRANCH   1  18
TORSDOF 4
ENDMDL
MODEL 3
REMARK VINA RESULT:     -12.2      3.558     10.217
REMARK  Name = 5073
REMARK  4 active torsions:
REMARK  status: ('A' for Active; 'I' for Inactive)
REMARK    1  A    between atoms: N_1  and  C_18
REMARK    2  A    between atoms: C_2  and  C_11
REMARK    3  A    between atoms: C_18  and  C_19
REMARK    4  A    between atoms: C_19  and  C_23
REMARK                            x       y       z     vdW  Elec       q    Type
REMARK                         _______ _______ _______ _____ _____    ______ ____
ROOT
ATOM      1  N   UNL     1      34.553 -20.615 -20.487  0.00  0.00    +0.387 N 
ATOM      2  C   UNL     1      34.347 -22.739 -18.473  0.00  0.00    +0.039 C 
ATOM      3  C   UNL     1      35.670 -22.018 -18.782  0.00  0.00    -0.017 C 
ATOM      4  C   UNL     1      33.162 -21.831 -18.840  0.00  0.00    -0.017 C 
ATOM      5  C   UNL     1      35.697 -21.499 -20.221  0.00  0.00    -0.077 C 
ATOM      6  C   UNL     1      33.280 -21.318 -20.278  0.00  0.00    -0.077 C 
ATOM      7  H   UNL     1      34.597 -19.838 -19.828  0.00  0.00    -0.080 HD
ENDROOT
BRANCH   2  11
ATOM      8  F   UNL     1      30.668 -24.466 -13.117  0.00  0.00    -0.204 F 
ATOM      9  O   UNL     1      34.998 -23.966 -15.149  0.00  0.00    -0.354 OA
ATOM     10  N   UNL     1      35.405 -23.537 -16.406  0.00  0.00    -0.081 NA
ATOM     11  C   UNL     1      34.277 -23.245 -17.050  0.00  0.00    +0.100 A 
ATOM     12  C   UNL     1      33.129 -23.461 -16.275  0.00  0.00    +0.054 A 
ATOM     13  C   UNL     1      33.640 -23.921 -15.073  0.00  0.00    +0.179 A 
ATOM     14  C   UNL     1      31.739 -23.336 -16.420  0.00  0.00    +0.007 C 
ATOM     15  C   UNL     1      32.863 -24.275 -13.974  0.00  0.00    +0.070 C 
ATOM     16  C   UNL     1      30.925 -23.682 -15.332  0.00  0.00    +0.030 C 
ATOM     17  C   UNL     1      31.479 -24.144 -14.134  0.00  0.00    +0.143 C 
ENDBRANCH   2  11
BRANCH   1  18
ATOM     18  C   UNL     1      34.625 -20.081 -21.848  0.00  0.00    -0.076 C 
BRANCH  18  19
ATOM     19  C   UNL     1      35.569 -18.888 -21.886  0.00  0.00    -0.007 C 
BRANCH  19  23
ATOM     20  O   UNL     1      35.246 -16.250 -21.061  0.00  0.00    -0.274 OA
ATOM     21  N   UNL     1      34.447 -15.478 -23.108  0.00  0.00    -0.237 N 
ATOM     22  N   UNL     1      34.161 -17.006 -24.892  0.00  0.00    -0.399 NA
ATOM     23  C   UNL     1      35.052 -17.827 -22.814  0.00  0.00    +0.123 C 
ATOM     24  C   UNL     1      34.235 -14.137 -22.553  0.00  0.00    +0.100 C 
ATOM     25  C   UNL     1      34.062 -13.041 -23.588  0.00  0.00    +0.022 C 
ATOM     26  C   UNL     1      34.066 -15.813 -24.395  0.00  0.00    +0.165 C 
ATOM     27  C   UNL     1      33.046 -13.487 -24.618  0.00  0.00    +0.011 C 
ATOM     28  C   UNL     1      33.568 -14.721 -25.324  0.00  0.00    +0.075 C 
ATOM     29  C   UNL     1      34.934 -16.452 -22.234  0.00  0.00    +0.237 C 
ATOM     30  C   UNL     1      34.660 -18.005 -24.091  0.00  0.00    +0.096 C 
ATOM     31  C   UNL     1      34.756 -19.331 -24.799  0.00  0.00    +0.062 C 
ENDBRANCH  19  23
ENDBRANCH  18  19
ENDBRANCH   1  18
TORSDOF 4
ENDMDL
MODEL 4
REMARK VINA RESULT:     -12.2      4.435     10.358
REMARK  Name = 5073
REMARK  4 active torsions:
REMARK  status: ('A' for Active; 'I' for Inactive)
REMARK    1  A    between atoms: N_1  and  C_18
REMARK    2  A    between atoms: C_2  and  C_11
REMARK    3  A    between atoms: C_18  and  C_19
REMARK    4  A    between atoms: C_19  and  C_23
REMARK                            x       y       z     vdW  Elec       q    Type
REMARK                         _______ _______ _______ _____ _____    ______ ____
ROOT
ATOM      1  N   UNL     1      34.335 -15.638 -23.239  0.00  0.00    +0.387 N 
ATOM      2  C   UNL     1      35.917 -17.704 -21.882  0.00  0.00    +0.039 C 
ATOM      3  C   UNL     1      35.138 -16.623 -21.114  0.00  0.00    -0.017 C 
ATOM      4  C   UNL     1      35.275 -17.928 -23.262  0.00  0.00    -0.017 C 
ATOM      5  C   UNL     1      34.983 -15.351 -21.951  0.00  0.00    -0.077 C 
ATOM      6  C   UNL     1      35.115 -16.608 -24.020  0.00  0.00    -0.077 C 
ATOM      7  H   UNL     1      33.422 -16.050 -23.046  0.00  0.00    -0.080 HD
ENDROOT
BRANCH   2  11
ATOM      8  F   UNL     1      33.129 -23.144 -19.080  0.00  0.00    -0.204 F 
ATOM      9  O   UNL     1      37.073 -20.550 -20.001  0.00  0.00    -0.354 OA
ATOM     10  N   UNL     1      37.279 -19.357 -20.681  0.00  0.00    -0.081 NA
ATOM     11  C   UNL     1      36.069 -18.985 -21.094  0.00  0.00    +0.100 A 
ATOM     12  C   UNL     1      35.059 -19.882 -20.717  0.00  0.00    +0.054 A 
ATOM     13  C   UNL     1      35.749 -20.863 -20.024  0.00  0.00    +0.179 A 
ATOM     14  C   UNL     1      33.670 -20.003 -20.866  0.00  0.00    +0.007 C 
ATOM     15  C   UNL     1      35.155 -21.983 -19.451  0.00  0.00    +0.070 C 
ATOM     16  C   UNL     1      33.038 -21.120 -20.300  0.00  0.00    +0.030 C 
ATOM     17  C   UNL     1      33.768 -22.090 -19.606  0.00  0.00    +0.143 C 
ENDBRANCH   2  11
BRANCH   1  18
ATOM     18  C   UNL     1      34.142 -14.404 -24.000  0.00  0.00    -0.076 C 
BRANCH  18  19
ATOM     19  C   UNL     1      32.760 -13.833 -23.717  0.00  0.00    -0.007 C 
BRANCH  19  23
ATOM     20  O   UNL     1      31.711 -12.831 -21.342  0.00  0.00    -0.274 OA
ATOM     21  N   UNL     1      32.324 -10.621 -21.749  0.00  0.00    -0.237 N 
ATOM     22  N   UNL     1      33.403 -10.072 -23.783  0.00  0.00    -0.399 NA
ATOM     23  C   UNL     1      32.845 -12.375 -23.369  0.00  0.00    +0.123 C 
ATOM     24  C   UNL     1      31.667 -10.181 -20.514  0.00  0.00    +0.100 C 
ATOM     25  C   UNL     1      32.080  -8.802 -20.032  0.00  0.00    +0.022 C 
ATOM     26  C   UNL     1      32.889  -9.730 -22.644  0.00  0.00    +0.165 C 
ATOM     27  C   UNL     1      32.007  -7.829 -21.190  0.00  0.00    +0.011 C 
ATOM     28  C   UNL     1      32.986  -8.264 -22.261  0.00  0.00    +0.075 C 
ATOM     29  C   UNL     1      32.241 -11.981 -22.057  0.00  0.00    +0.237 C 
ATOM     30  C   UNL     1      33.379 -11.401 -24.132  0.00  0.00    +0.096 C 
ATOM     31  C   UNL     1      34.042 -11.671 -25.457  0.00  0.00    +0.062 C 
ENDBRANCH  19  23
ENDBRANCH  18  19
ENDBRANCH   1  18
TORSDOF 4
ENDMDL
MODEL 5
REMARK VINA RESULT:     -12.2      3.463     10.139
REMARK  Name = 5073
REMARK  4 active torsions:
REMARK  status: ('A' for Active; 'I' for Inactive)
REMARK    1  A    between atoms: N_1  and  C_18
REMARK    2  A    between atoms: C_2  and  C_11
REMARK    3  A    between atoms: C_18  and  C_19
REMARK    4  A    between atoms: C_19  and  C_23
REMARK                            x       y       z     vdW  Elec       q    Type
REMARK                         _______ _______ _______ _____ _____    ______ ____
ROOT
ATOM      1  N   UNL     1      34.340 -20.024 -21.090  0.00  0.00    +0.387 N 
ATOM      2  C   UNL     1      34.455 -22.257 -19.190  0.00  0.00    +0.039 C 
ATOM      3  C   UNL     1      35.703 -21.458 -19.603  0.00  0.00    -0.017 C 
ATOM      4  C   UNL     1      33.198 -21.390 -19.370  0.00  0.00    -0.017 C 
ATOM      5  C   UNL     1      35.543 -20.864 -21.004  0.00  0.00    -0.077 C 
ATOM      6  C   UNL     1      33.130 -20.797 -20.780  0.00  0.00    -0.077 C 
ATOM      7  H   UNL     1      34.425 -19.281 -20.397  0.00  0.00    -0.080 HD
ENDROOT
BRANCH   2  11
ATOM      8  F   UNL     1      31.487 -24.722 -13.683  0.00  0.00    -0.204 F 
ATOM      9  O   UNL     1      35.532 -23.553 -16.007  0.00  0.00    -0.354 OA
ATOM     10  N   UNL     1      35.775 -23.012 -17.262  0.00  0.00    -0.081 NA
ATOM     11  C   UNL     1      34.569 -22.839 -17.800  0.00  0.00    +0.100 A 
ATOM     12  C   UNL     1      33.527 -23.244 -16.954  0.00  0.00    +0.054 A 
ATOM     13  C   UNL     1      34.191 -23.692 -15.824  0.00  0.00    +0.179 A 
ATOM     14  C   UNL     1      32.125 -23.295 -16.984  0.00  0.00    +0.007 C 
ATOM     15  C   UNL     1      33.559 -24.200 -14.693  0.00  0.00    +0.070 C 
ATOM     16  C   UNL     1      31.456 -23.800 -15.860  0.00  0.00    +0.030 C 
ATOM     17  C   UNL     1      32.162 -24.244 -14.738  0.00  0.00    +0.143 C 
ENDBRANCH   2  11
BRANCH   1  18
ATOM     18  C   UNL     1      34.233 -19.418 -22.418  0.00  0.00    -0.076 C 
BRANCH  18  19
ATOM     19  C   UNL     1      35.405 -18.474 -22.651  0.00  0.00    -0.007 C 
BRANCH  19  23
ATOM     20  O   UNL     1      34.629 -17.660 -25.196  0.00  0.00    -0.274 OA
ATOM     21  N   UNL     1      34.091 -15.481 -24.573  0.00  0.00    -0.237 N 
ATOM     22  N   UNL     1      34.418 -14.802 -22.329  0.00  0.00    -0.399 NA
ATOM     23  C   UNL     1      34.921 -17.079 -22.920  0.00  0.00    +0.123 C 
ATOM     24  C   UNL     1      33.786 -15.127 -25.963  0.00  0.00    +0.100 C 
ATOM     25  C   UNL     1      32.977 -13.855 -26.131  0.00  0.00    +0.022 C 
ATOM     26  C   UNL     1      34.075 -14.547 -23.552  0.00  0.00    +0.165 C 
ATOM     27  C   UNL     1      33.606 -12.754 -25.303  0.00  0.00    +0.011 C 
ATOM     28  C   UNL     1      33.560 -13.149 -23.842  0.00  0.00    +0.075 C 
ATOM     29  C   UNL     1      34.534 -16.784 -24.336  0.00  0.00    +0.237 C 
ATOM     30  C   UNL     1      34.836 -16.075 -22.025  0.00  0.00    +0.096 C 
ATOM     31  C   UNL     1      35.168 -16.250 -20.567  0.00  0.00    +0.062 C 
ENDBRANCH  19  23
ENDBRANCH  18  19
ENDBRANCH   1  18
TORSDOF 4
ENDMDL
MODEL 6
REMARK VINA RESULT:     -11.9      7.182     13.977
REMARK  Name = 5073
REMARK  4 active torsions:
REMARK  status: ('A' for Active; 'I' for Inactive)
REMARK    1  A    between atoms: N_1  and  C_18
REMARK    2  A    between atoms: C_2  and  C_11
REMARK    3  A    between atoms: C_18  and  C_19
REMARK    4  A    between atoms: C_19  and  C_23
REMARK                            x       y       z     vdW  Elec       q    Type
REMARK                         _______ _______ _______ _____ _____    ______ ____
ROOT
ATOM      1  N   UNL     1      32.449  -9.825 -22.292  0.00  0.00    +0.387 N 
ATOM      2  C   UNL     1      32.972 -12.590 -23.124  0.00  0.00    +0.039 C 
ATOM      3  C   UNL     1      33.825 -11.405 -23.610  0.00  0.00    -0.017 C 
ATOM      4  C   UNL     1      32.317 -12.242 -21.777  0.00  0.00    -0.017 C 
ATOM      5  C   UNL     1      33.016 -10.106 -23.619  0.00  0.00    -0.077 C 
ATOM      6  C   UNL     1      31.564 -10.912 -21.853  0.00  0.00    -0.077 C 
ATOM      7  H   UNL     1      33.221  -9.759 -21.628  0.00  0.00    -0.080 HD
ENDROOT
BRANCH   2  11
ATOM      8  F   UNL     1      34.645 -18.436 -25.994  0.00  0.00    -0.204 F 
ATOM      9  O   UNL     1      35.081 -15.391 -22.297  0.00  0.00    -0.354 OA
ATOM     10  N   UNL     1      34.523 -14.148 -22.030  0.00  0.00    -0.081 NA
ATOM     11  C   UNL     1      33.747 -13.887 -23.080  0.00  0.00    +0.100 A 
ATOM     12  C   UNL     1      33.764 -14.907 -24.042  0.00  0.00    +0.054 A 
ATOM     13  C   UNL     1      34.628 -15.842 -23.499  0.00  0.00    +0.179 A 
ATOM     14  C   UNL     1      33.174 -15.168 -25.288  0.00  0.00    +0.007 C 
ATOM     15  C   UNL     1      34.963 -17.047 -24.108  0.00  0.00    +0.070 C 
ATOM     16  C   UNL     1      33.489 -16.374 -25.931  0.00  0.00    +0.030 C 
ATOM     17  C   UNL     1      34.368 -17.294 -25.350  0.00  0.00    +0.143 C 
ENDBRANCH   2  11
BRANCH   1  18
ATOM     18  C   UNL     1      31.729  -8.551 -22.303  0.00  0.00    -0.076 C 
BRANCH  18  19
ATOM     19  C   UNL     1      32.675  -7.419 -21.931  0.00  0.00    -0.007 C 
BRANCH  19  23
ATOM     20  O   UNL     1      34.534  -7.192 -23.990  0.00  0.00    -0.274 OA
ATOM     21  N   UNL     1      33.593  -5.276 -24.922  0.00  0.00    -0.237 N 
ATOM     22  N   UNL     1      31.701  -4.294 -23.893  0.00  0.00    -0.399 NA
ATOM     23  C   UNL     1      32.604  -6.310 -22.941  0.00  0.00    +0.123 C 
ATOM     24  C   UNL     1      34.667  -5.197 -25.918  0.00  0.00    +0.100 C 
ATOM     25  C   UNL     1      34.366  -4.303 -27.107  0.00  0.00    +0.022 C 
ATOM     26  C   UNL     1      32.616  -4.302 -24.811  0.00  0.00    +0.165 C 
ATOM     27  C   UNL     1      33.843  -2.973 -26.607  0.00  0.00    +0.011 C 
ATOM     28  C   UNL     1      32.548  -3.204 -25.856  0.00  0.00    +0.075 C 
ATOM     29  C   UNL     1      33.668  -6.317 -23.994  0.00  0.00    +0.237 C 
ATOM     30  C   UNL     1      31.704  -5.308 -22.965  0.00  0.00    +0.096 C 
ATOM     31  C   UNL     1      30.569  -5.204 -21.981  0.00  0.00    +0.062 C 
ENDBRANCH  19  23
ENDBRANCH  18  19
ENDBRANCH   1  18
TORSDOF 4
ENDMDL
MODEL 7
REMARK VINA RESULT:     -11.9      2.081      3.211
REMARK  Name = 5073
REMARK  4 active torsions:
REMARK  status: ('A' for Active; 'I' for Inactive)
REMARK    1  A    between atoms: N_1  and  C_18
REMARK    2  A    between atoms: C_2  and  C_11
REMARK    3  A    between atoms: C_18  and  C_19
REMARK    4  A    between atoms: C_19  and  C_23
REMARK                            x       y       z     vdW  Elec       q    Type
REMARK                         _______ _______ _______ _____ _____    ______ ____
ROOT
ATOM      1  N   UNL     1      34.742 -21.871 -19.001  0.00  0.00    +0.387 N 
ATOM      2  C   UNL     1      35.066 -20.147 -21.353  0.00  0.00    +0.039 C 
ATOM      3  C   UNL     1      33.703 -20.378 -20.680  0.00  0.00    -0.017 C 
ATOM      4  C   UNL     1      36.196 -20.377 -20.335  0.00  0.00    -0.017 C 
ATOM      5  C   UNL     1      33.653 -21.738 -19.979  0.00  0.00    -0.077 C 
ATOM      6  C   UNL     1      36.054 -21.737 -19.647  0.00  0.00    -0.077 C 
ATOM      7  H   UNL     1      34.647 -21.117 -18.321  0.00  0.00    -0.080 HD
ENDROOT
BRANCH   2  11
ATOM      8  F   UNL     1      33.688 -16.229 -26.641  0.00  0.00    -0.204 F 
ATOM      9  O   UNL     1      35.695 -16.729 -22.299  0.00  0.00    -0.354 OA
ATOM     10  N   UNL     1      35.787 -17.801 -21.421  0.00  0.00    -0.081 NA
ATOM     11  C   UNL     1      35.159 -18.802 -22.036  0.00  0.00    +0.100 A 
ATOM     12  C   UNL     1      34.649 -18.442 -23.291  0.00  0.00    +0.054 A 
ATOM     13  C   UNL     1      35.015 -17.112 -23.414  0.00  0.00    +0.179 A 
ATOM     14  C   UNL     1      33.933 -19.050 -24.334  0.00  0.00    +0.007 C 
ATOM     15  C   UNL     1      34.720 -16.316 -24.516  0.00  0.00    +0.070 C 
ATOM     16  C   UNL     1      33.620 -18.277 -25.461  0.00  0.00    +0.030 C 
ATOM     17  C   UNL     1      34.006 -16.935 -25.548  0.00  0.00    +0.143 C 
ENDBRANCH   2  11
BRANCH   1  18
ATOM     18  C   UNL     1      34.645 -23.151 -18.299  0.00  0.00    -0.076 C 
BRANCH  18  19
ATOM     19  C   UNL     1      34.780 -22.931 -16.800  0.00  0.00    -0.007 C 
BRANCH  19  23
ATOM     20  O   UNL     1      32.130 -22.661 -17.603  0.00  0.00    -0.274 OA
ATOM     21  N   UNL     1      31.251 -23.989 -15.903  0.00  0.00    -0.237 N 
ATOM     22  N   UNL     1      32.707 -24.909 -14.280  0.00  0.00    -0.399 NA
ATOM     23  C   UNL     1      33.659 -23.598 -16.058  0.00  0.00    +0.123 C 
ATOM     24  C   UNL     1      29.883 -23.717 -16.357  0.00  0.00    +0.100 C 
ATOM     25  C   UNL     1      28.834 -24.673 -15.821  0.00  0.00    +0.022 C 
ATOM     26  C   UNL     1      31.518 -24.718 -14.757  0.00  0.00    +0.165 C 
ATOM     27  C   UNL     1      29.008 -24.811 -14.323  0.00  0.00    +0.011 C 
ATOM     28  C   UNL     1      30.372 -25.403 -14.037  0.00  0.00    +0.075 C 
ATOM     29  C   UNL     1      32.285 -23.367 -16.607  0.00  0.00    +0.237 C 
ATOM     30  C   UNL     1      33.771 -24.346 -14.943  0.00  0.00    +0.096 C 
ATOM     31  C   UNL     1      35.097 -24.676 -14.310  0.00  0.00    +0.062 C 
ENDBRANCH  19  23
ENDBRANCH  18  19
ENDBRANCH   1  18
TORSDOF 4
ENDMDL
MODEL 8
REMARK VINA RESULT:     -11.8      1.149      2.029
REMARK  Name = 5073
REMARK  4 active torsions:
REMARK  status: ('A' for Active; 'I' for Inactive)
REMARK    1  A    between atoms: N_1  and  C_18
REMARK    2  A    between atoms: C_2  and  C_11
REMARK    3  A    between atoms: C_18  and  C_19
REMARK    4  A    between atoms: C_19  and  C_23
REMARK                            x       y       z     vdW  Elec       q    Type
REMARK                         _______ _______ _______ _____ _____    ______ ____
ROOT
ATOM      1  N   UNL     1      35.786 -19.448 -20.787  0.00  0.00    +0.387 N 
ATOM      2  C   UNL     1      35.226 -18.454 -23.490  0.00  0.00    +0.039 C 
ATOM      3  C   UNL     1      34.241 -19.348 -22.718  0.00  0.00    -0.017 C 
ATOM      4  C   UNL     1      36.126 -17.695 -22.501  0.00  0.00    -0.017 C 
ATOM      5  C   UNL     1      34.973 -20.244 -21.716  0.00  0.00    -0.077 C 
ATOM      6  C   UNL     1      36.790 -18.652 -21.508  0.00  0.00    -0.077 C 
ATOM      7  H   UNL     1      35.165 -18.803 -20.298  0.00  0.00    -0.080 HD
ENDROOT
BRANCH   2  11
ATOM      8  F   UNL     1      32.977 -12.323 -25.092  0.00  0.00    -0.204 F 
ATOM      9  O   UNL     1      33.525 -16.949 -26.286  0.00  0.00    -0.354 OA
ATOM     10  N   UNL     1      34.101 -18.030 -25.631  0.00  0.00    -0.081 NA
ATOM     11  C   UNL     1      34.534 -17.536 -24.472  0.00  0.00    +0.100 A 
ATOM     12  C   UNL     1      34.272 -16.167 -24.325  0.00  0.00    +0.054 A 
ATOM     13  C   UNL     1      33.628 -15.838 -25.507  0.00  0.00    +0.179 A 
ATOM     14  C   UNL     1      34.488 -15.166 -23.367  0.00  0.00    +0.007 C 
ATOM     15  C   UNL     1      33.170 -14.563 -25.822  0.00  0.00    +0.070 C 
ATOM     16  C   UNL     1      34.038 -13.868 -23.651  0.00  0.00    +0.030 C 
ATOM     17  C   UNL     1      33.392 -13.575 -24.856  0.00  0.00    +0.143 C 
ENDBRANCH   2  11
BRANCH   1  18
ATOM     18  C   UNL     1      36.433 -20.315 -19.801  0.00  0.00    -0.076 C 
BRANCH  18  19
ATOM     19  C   UNL     1      35.966 -21.751 -19.992  0.00  0.00    -0.007 C 
BRANCH  19  23
ATOM     20  O   UNL     1      37.294 -22.514 -17.668  0.00  0.00    -0.274 OA
ATOM     21  N   UNL     1      35.364 -23.064 -16.486  0.00  0.00    -0.237 N 
ATOM     22  N   UNL     1      33.259 -22.877 -17.550  0.00  0.00    -0.399 NA
ATOM     23  C   UNL     1      35.224 -22.237 -18.781  0.00  0.00    +0.123 C 
ATOM     24  C   UNL     1      36.159 -23.521 -15.341  0.00  0.00    +0.100 C 
ATOM     25  C   UNL     1      35.386 -23.656 -14.043  0.00  0.00    +0.022 C 
ATOM     26  C   UNL     1      33.987 -23.192 -16.526  0.00  0.00    +0.165 C 
ATOM     27  C   UNL     1      34.113 -24.435 -14.303  0.00  0.00    +0.011 C 
ATOM     28  C   UNL     1      33.254 -23.662 -15.283  0.00  0.00    +0.075 C 
ATOM     29  C   UNL     1      36.068 -22.609 -17.603  0.00  0.00    +0.237 C 
ATOM     30  C   UNL     1      33.890 -22.395 -18.672  0.00  0.00    +0.096 C 
ATOM     31  C   UNL     1      32.930 -22.030 -19.773  0.00  0.00    +0.062 C 
ENDBRANCH  19  23
ENDBRANCH  18  19
ENDBRANCH   1  18
TORSDOF 4
ENDMDL
MODEL 9
REMARK VINA RESULT:     -11.8      3.456     10.056
REMARK  Name = 5073
REMARK  4 active torsions:
REMARK  status: ('A' for Active; 'I' for Inactive)
REMARK    1  A    between atoms: N_1  and  C_18
REMARK    2  A    between atoms: C_2  and  C_11
REMARK    3  A    between atoms: C_18  and  C_19
REMARK    4  A    between atoms: C_19  and  C_23
REMARK                            x       y       z     vdW  Elec       q    Type
REMARK                         _______ _______ _______ _____ _____    ______ ____
ROOT
ATOM      1  N   UNL     1      34.376 -19.940 -21.141  0.00  0.00    +0.387 N 
ATOM      2  C   UNL     1      34.347 -22.204 -19.273  0.00  0.00    +0.039 C 
ATOM      3  C   UNL     1      35.629 -21.421 -19.602  0.00  0.00    -0.017 C 
ATOM      4  C   UNL     1      33.116 -21.312 -19.510  0.00  0.00    -0.017 C 
ATOM      5  C   UNL     1      35.559 -20.803 -21.001  0.00  0.00    -0.077 C 
ATOM      6  C   UNL     1      33.138 -20.697 -20.912  0.00  0.00    -0.077 C 
ATOM      7  H   UNL     1      34.435 -19.210 -20.431  0.00  0.00    -0.080 HD
ENDROOT
BRANCH   2  11
ATOM      8  F   UNL     1      37.676 -23.484 -13.573  0.00  0.00    -0.204 F 
ATOM      9  O   UNL     1      33.633 -23.855 -16.152  0.00  0.00    -0.354 OA
ATOM     10  N   UNL     1      33.284 -23.421 -17.424  0.00  0.00    -0.081 NA
ATOM     11  C   UNL     1      34.372 -22.809 -17.888  0.00  0.00    +0.100 A 
ATOM     12  C   UNL     1      35.437 -22.815 -16.977  0.00  0.00    +0.054 A 
ATOM     13  C   UNL     1      34.918 -23.492 -15.886  0.00  0.00    +0.179 A 
ATOM     14  C   UNL     1      36.758 -22.346 -16.920  0.00  0.00    +0.007 C 
ATOM     15  C   UNL     1      35.622 -23.748 -14.713  0.00  0.00    +0.070 C 
ATOM     16  C   UNL     1      37.498 -22.587 -15.754  0.00  0.00    +0.030 C 
ATOM     17  C   UNL     1      36.938 -23.274 -14.672  0.00  0.00    +0.143 C 
ENDBRANCH   2  11
BRANCH   1  18
ATOM     18  C   UNL     1      34.355 -19.313 -22.462  0.00  0.00    -0.076 C 
BRANCH  18  19
ATOM     19  C   UNL     1      35.490 -18.304 -22.573  0.00  0.00    -0.007 C 
BRANCH  19  23
ATOM     20  O   UNL     1      34.765 -17.523 -25.144  0.00  0.00    -0.274 OA
ATOM     21  N   UNL     1      34.117 -15.368 -24.542  0.00  0.00    -0.237 N 
ATOM     22  N   UNL     1      34.341 -14.677 -22.290  0.00  0.00    -0.399 NA
ATOM     23  C   UNL     1      34.958 -16.930 -22.861  0.00  0.00    +0.123 C 
ATOM     24  C   UNL     1      33.843 -15.028 -25.942  0.00  0.00    +0.100 C 
ATOM     25  C   UNL     1      32.987 -13.790 -26.138  0.00  0.00    +0.022 C 
ATOM     26  C   UNL     1      34.027 -14.436 -23.523  0.00  0.00    +0.165 C 
ATOM     27  C   UNL     1      33.542 -12.664 -25.292  0.00  0.00    +0.011 C 
ATOM     28  C   UNL     1      33.464 -13.061 -23.832  0.00  0.00    +0.075 C 
ATOM     29  C   UNL     1      34.606 -16.652 -24.289  0.00  0.00    +0.237 C 
ATOM     30  C   UNL     1      34.801 -15.931 -21.970  0.00  0.00    +0.096 C 
ATOM     31  C   UNL     1      35.091 -16.092 -20.501  0.00  0.00    +0.062 C 
ENDBRANCH  19  23
ENDBRANCH  18  19
ENDBRANCH   1  18
TORSDOF 4
ENDMDL
