MODEL 1
REMARK VINA RESULT:     -12.0      0.000      0.000
REMARK  Name = 5243
REMARK  7 active torsions:
REMARK  status: ('A' for Active; 'I' for Inactive)
REMARK    1  A    between atoms: C_1  and  C_3
REMARK    2  A    between atoms: C_1  and  C_8
REMARK    3  A    between atoms: C_1  and  C_19
REMARK    4  A    between atoms: C_13  and  O_14
REMARK    5  A    between atoms: O_14  and  S_15
REMARK    6  A    between atoms: C_24  and  O_25
REMARK    7  A    between atoms: O_25  and  S_26
REMARK                            x       y       z     vdW  Elec       q    Type
REMARK                         _______ _______ _______ _____ _____    ______ ____
ROOT
ATOM      1  C   UNL     1      33.935 -23.573 -17.070  0.00  0.00    +0.085 C 
ENDROOT
BRANCH   1   3
ATOM      2  N   UNL     1      31.529 -23.368 -17.250  0.00  0.00    -0.248 NA
ATOM      3  C   UNL     1      32.558 -23.346 -16.408  0.00  0.00    +0.067 C 
ATOM      4  C   UNL     1      32.535 -23.149 -15.062  0.00  0.00    +0.015 C 
ATOM      5  C   UNL     1      31.280 -22.947 -14.497  0.00  0.00    +0.003 C 
ATOM      6  C   UNL     1      30.327 -23.167 -16.665  0.00  0.00    +0.098 C 
ATOM      7  C   UNL     1      30.150 -22.955 -15.307  0.00  0.00    +0.021 C 
ENDBRANCH   1   3
BRANCH   1   8
ATOM      8  C   UNL     1      35.080 -23.750 -16.131  0.00  0.00    -0.013 C 
ATOM      9  C   UNL     1      35.984 -22.708 -15.929  0.00  0.00    -0.000 C 
ATOM     10  C   UNL     1      35.247 -24.960 -15.456  0.00  0.00    -0.000 C 
ATOM     11  C   UNL     1      37.055 -22.874 -15.052  0.00  0.00    +0.040 C 
ATOM     12  C   UNL     1      36.319 -25.126 -14.578  0.00  0.00    +0.040 C 
ATOM     13  C   UNL     1      37.223 -24.083 -14.376  0.00  0.00    +0.176 C 
BRANCH  13  14
ATOM     14  O   UNL     1      38.268 -24.245 -13.521  0.00  0.00    -0.322 OA
BRANCH  14  15
ATOM     15  S   UNL     1      38.038 -23.958 -11.918  0.00  0.00    +0.282 S 
ATOM     16  O   UNL     1      36.630 -23.135 -11.867  0.00  0.00    -0.105 OA
ATOM     17  O   UNL     1      37.840 -25.223 -11.236  0.00  0.00    -0.012 OA
ATOM     18  O   UNL     1      39.085 -23.053 -11.478  0.00  0.00    -0.105 OA
ENDBRANCH  14  15
ENDBRANCH  13  14
ENDBRANCH   1   8
BRANCH   1  19
ATOM     19  C   UNL     1      34.186 -22.610 -18.254  0.00  0.00    -0.013 C 
ATOM     20  C   UNL     1      35.482 -22.372 -18.623  0.00  0.00    -0.000 C 
ATOM     21  C   UNL     1      33.100 -22.049 -18.867  0.00  0.00    -0.000 C 
ATOM     22  C   UNL     1      35.709 -21.503 -19.691  0.00  0.00    +0.040 C 
ATOM     23  C   UNL     1      33.327 -21.180 -19.935  0.00  0.00    +0.040 C 
ATOM     24  C   UNL     1      34.632 -20.907 -20.347  0.00  0.00    +0.176 C 
BRANCH  24  25
ATOM     25  O   UNL     1      34.854 -20.059 -21.388  0.00  0.00    -0.322 OA
BRANCH  25  26
ATOM     26  S   UNL     1      35.933 -18.832 -21.199  0.00  0.00    +0.282 S 
ATOM     27  O   UNL     1      36.436 -18.517 -22.720  0.00  0.00    -0.105 OA
ATOM     28  O   UNL     1      35.232 -17.659 -20.710  0.00  0.00    -0.012 OA
ATOM     29  O   UNL     1      37.070 -19.354 -20.465  0.00  0.00    -0.105 OA
ENDBRANCH  25  26
ENDBRANCH  24  25
ENDBRANCH   1  19
TORSDOF 7
ENDMDL
MODEL 2
REMARK VINA RESULT:     -11.9      2.065      7.473
REMARK  Name = 5243
REMARK  7 active torsions:
REMARK  status: ('A' for Active; 'I' for Inactive)
REMARK    1  A    between atoms: C_1  and  C_3
REMARK    2  A    between atoms: C_1  and  C_8
REMARK    3  A    between atoms: C_1  and  C_19
REMARK    4  A    between atoms: C_13  and  O_14
REMARK    5  A    between atoms: O_14  and  S_15
REMARK    6  A    between atoms: C_24  and  O_25
REMARK    7  A    between atoms: O_25  and  S_26
REMARK                            x       y       z     vdW  Elec       q    Type
REMARK                         _______ _______ _______ _____ _____    ______ ____
ROOT
ATOM      1  C   UNL     1      34.886 -23.329 -15.614  0.00  0.00    +0.085 C 
ENDROOT
BRANCH   1   3
ATOM      2  N   UNL     1      33.484 -24.668 -14.163  0.00  0.00    -0.248 NA
ATOM      3  C   UNL     1      33.498 -23.902 -15.250  0.00  0.00    +0.067 C 
ATOM      4  C   UNL     1      32.454 -23.575 -16.058  0.00  0.00    +0.015 C 
ATOM      5  C   UNL     1      31.218 -24.107 -15.702  0.00  0.00    +0.003 C 
ATOM      6  C   UNL     1      32.268 -25.168 -13.850  0.00  0.00    +0.098 C 
ATOM      7  C   UNL     1      31.115 -24.919 -14.579  0.00  0.00    +0.021 C 
ENDBRANCH   1   3
BRANCH   1   8
ATOM      8  C   UNL     1      35.028 -22.824 -17.010  0.00  0.00    -0.013 C 
ATOM      9  C   UNL     1      33.968 -22.946 -17.908  0.00  0.00    -0.000 C 
ATOM     10  C   UNL     1      36.224 -22.231 -17.417  0.00  0.00    -0.000 C 
ATOM     11  C   UNL     1      34.103 -22.475 -19.213  0.00  0.00    +0.040 C 
ATOM     12  C   UNL     1      36.358 -21.759 -18.724  0.00  0.00    +0.040 C 
ATOM     13  C   UNL     1      35.298 -21.881 -19.622  0.00  0.00    +0.176 C 
BRANCH  13  14
ATOM     14  O   UNL     1      35.428 -21.422 -20.896  0.00  0.00    -0.322 OA
BRANCH  14  15
ATOM     15  S   UNL     1      34.817 -19.943 -21.277  0.00  0.00    +0.282 S 
ATOM     16  O   UNL     1      35.055 -19.825 -22.887  0.00  0.00    -0.105 OA
ATOM     17  O   UNL     1      33.386 -19.949 -21.037  0.00  0.00    -0.012 OA
ATOM     18  O   UNL     1      35.655 -18.944 -20.640  0.00  0.00    -0.105 OA
ENDBRANCH  14  15
ENDBRANCH  13  14
ENDBRANCH   1   8
BRANCH   1  19
ATOM     19  C   UNL     1      36.043 -24.219 -15.106  0.00  0.00    -0.013 C 
ATOM     20  C   UNL     1      36.963 -23.657 -14.262  0.00  0.00    -0.000 C 
ATOM     21  C   UNL     1      36.087 -25.520 -15.527  0.00  0.00    -0.000 C 
ATOM     22  C   UNL     1      38.008 -24.460 -13.804  0.00  0.00    +0.040 C 
ATOM     23  C   UNL     1      37.132 -26.323 -15.069  0.00  0.00    +0.040 C 
ATOM     24  C   UNL     1      38.092 -25.793 -14.207  0.00  0.00    +0.176 C 
BRANCH  24  25
ATOM     25  O   UNL     1      39.112 -26.575 -13.760  0.00  0.00    -0.322 OA
BRANCH  25  26
ATOM     26  S   UNL     1      40.643 -26.255 -14.268  0.00  0.00    +0.282 S 
ATOM     27  O   UNL     1      40.536 -26.322 -15.895  0.00  0.00    -0.105 OA
ATOM     28  O   UNL     1      40.988 -24.895 -13.898  0.00  0.00    -0.012 OA
ATOM     29  O   UNL     1      41.487 -27.357 -13.843  0.00  0.00    -0.105 OA
ENDBRANCH  25  26
ENDBRANCH  24  25
ENDBRANCH   1  19
TORSDOF 7
ENDMDL
MODEL 3
REMARK VINA RESULT:     -11.3      4.073      5.816
REMARK  Name = 5243
REMARK  7 active torsions:
REMARK  status: ('A' for Active; 'I' for Inactive)
REMARK    1  A    between atoms: C_1  and  C_3
REMARK    2  A    between atoms: C_1  and  C_8
REMARK    3  A    between atoms: C_1  and  C_19
REMARK    4  A    between atoms: C_13  and  O_14
REMARK    5  A    between atoms: O_14  and  S_15
REMARK    6  A    between atoms: C_24  and  O_25
REMARK    7  A    between atoms: O_25  and  S_26
REMARK                            x       y       z     vdW  Elec       q    Type
REMARK                         _______ _______ _______ _____ _____    ______ ____
ROOT
ATOM      1  C   UNL     1      34.531 -23.226 -15.575  0.00  0.00    +0.085 C 
ENDROOT
BRANCH   1   3
ATOM      2  N   UNL     1      35.483 -25.441 -15.793  0.00  0.00    -0.248 NA
ATOM      3  C   UNL     1      35.421 -24.362 -15.021  0.00  0.00    +0.067 C 
ATOM      4  C   UNL     1      36.037 -24.149 -13.827  0.00  0.00    +0.015 C 
ATOM      5  C   UNL     1      36.830 -25.190 -13.357  0.00  0.00    +0.003 C 
ATOM      6  C   UNL     1      36.262 -26.432 -15.304  0.00  0.00    +0.098 C 
ATOM      7  C   UNL     1      36.950 -26.356 -14.103  0.00  0.00    +0.021 C 
ENDBRANCH   1   3
BRANCH   1   8
ATOM      8  C   UNL     1      33.060 -23.447 -15.462  0.00  0.00    -0.013 C 
ATOM      9  C   UNL     1      32.334 -23.889 -16.568  0.00  0.00    -0.000 C 
ATOM     10  C   UNL     1      32.411 -23.210 -14.250  0.00  0.00    -0.000 C 
ATOM     11  C   UNL     1      30.959 -24.094 -16.462  0.00  0.00    +0.040 C 
ATOM     12  C   UNL     1      31.035 -23.416 -14.144  0.00  0.00    +0.040 C 
ATOM     13  C   UNL     1      30.309 -23.858 -15.250  0.00  0.00    +0.176 C 
BRANCH  13  14
ATOM     14  O   UNL     1      28.967 -24.058 -15.148  0.00  0.00    -0.322 OA
BRANCH  14  15
ATOM     15  S   UNL     1      27.982 -23.474 -16.328  0.00  0.00    +0.282 S 
ATOM     16  O   UNL     1      28.839 -22.248 -16.982  0.00  0.00    -0.105 OA
ATOM     17  O   UNL     1      27.812 -24.493 -17.347  0.00  0.00    -0.012 OA
ATOM     18  O   UNL     1      26.818 -22.894 -15.683  0.00  0.00    -0.105 OA
ENDBRANCH  14  15
ENDBRANCH  13  14
ENDBRANCH   1   8
BRANCH   1  19
ATOM     19  C   UNL     1      35.023 -22.706 -16.945  0.00  0.00    -0.013 C 
ATOM     20  C   UNL     1      36.311 -22.249 -17.033  0.00  0.00    -0.000 C 
ATOM     21  C   UNL     1      34.146 -22.729 -17.994  0.00  0.00    -0.000 C 
ATOM     22  C   UNL     1      36.755 -21.778 -18.269  0.00  0.00    +0.040 C 
ATOM     23  C   UNL     1      34.591 -22.258 -19.230  0.00  0.00    +0.040 C 
ATOM     24  C   UNL     1      35.895 -21.783 -19.367  0.00  0.00    +0.176 C 
BRANCH  24  25
ATOM     25  O   UNL     1      36.330 -21.323 -20.573  0.00  0.00    -0.322 OA
BRANCH  25  26
ATOM     26  S   UNL     1      35.951 -19.787 -21.022  0.00  0.00    +0.282 S 
ATOM     27  O   UNL     1      35.991 -19.837 -22.653  0.00  0.00    -0.105 OA
ATOM     28  O   UNL     1      34.588 -19.499 -20.618  0.00  0.00    -0.012 OA
ATOM     29  O   UNL     1      37.033 -18.923 -20.588  0.00  0.00    -0.105 OA
ENDBRANCH  25  26
ENDBRANCH  24  25
ENDBRANCH   1  19
TORSDOF 7
ENDMDL
MODEL 4
REMARK VINA RESULT:     -11.1      4.160      7.850
REMARK  Name = 5243
REMARK  7 active torsions:
REMARK  status: ('A' for Active; 'I' for Inactive)
REMARK    1  A    between atoms: C_1  and  C_3
REMARK    2  A    between atoms: C_1  and  C_8
REMARK    3  A    between atoms: C_1  and  C_19
REMARK    4  A    between atoms: C_13  and  O_14
REMARK    5  A    between atoms: O_14  and  S_15
REMARK    6  A    between atoms: C_24  and  O_25
REMARK    7  A    between atoms: O_25  and  S_26
REMARK                            x       y       z     vdW  Elec       q    Type
REMARK                         _______ _______ _______ _____ _____    ______ ____
ROOT
ATOM      1  C   UNL     1      33.966 -23.507 -17.235  0.00  0.00    +0.085 C 
ENDROOT
BRANCH   1   3
ATOM      2  N   UNL     1      35.735 -22.468 -18.521  0.00  0.00    -0.248 NA
ATOM      3  C   UNL     1      34.417 -22.577 -18.384  0.00  0.00    +0.067 C 
ATOM      4  C   UNL     1      33.445 -21.975 -19.121  0.00  0.00    +0.015 C 
ATOM      5  C   UNL     1      33.884 -21.145 -20.147  0.00  0.00    +0.003 C 
ATOM      6  C   UNL     1      36.124 -21.652 -19.526  0.00  0.00    +0.098 C 
ATOM      7  C   UNL     1      35.248 -20.975 -20.360  0.00  0.00    +0.021 C 
ENDBRANCH   1   3
BRANCH   1   8
ATOM      8  C   UNL     1      32.600 -23.248 -16.696  0.00  0.00    -0.013 C 
ATOM      9  C   UNL     1      31.582 -22.823 -17.548  0.00  0.00    -0.000 C 
ATOM     10  C   UNL     1      32.342 -23.431 -15.336  0.00  0.00    -0.000 C 
ATOM     11  C   UNL     1      30.305 -22.581 -17.042  0.00  0.00    +0.040 C 
ATOM     12  C   UNL     1      31.064 -23.189 -14.830  0.00  0.00    +0.040 C 
ATOM     13  C   UNL     1      30.046 -22.764 -15.684  0.00  0.00    +0.176 C 
BRANCH  13  14
ATOM     14  O   UNL     1      28.800 -22.527 -15.191  0.00  0.00    -0.322 OA
BRANCH  14  15
ATOM     15  S   UNL     1      27.496 -22.803 -16.154  0.00  0.00    +0.282 S 
ATOM     16  O   UNL     1      26.221 -22.592 -15.156  0.00  0.00    -0.105 OA
ATOM     17  O   UNL     1      27.438 -21.774 -17.176  0.00  0.00    -0.012 OA
ATOM     18  O   UNL     1      27.520 -24.203 -16.536  0.00  0.00    -0.105 OA
ENDBRANCH  14  15
ENDBRANCH  13  14
ENDBRANCH   1   8
BRANCH   1  19
ATOM     19  C   UNL     1      35.073 -23.715 -16.176  0.00  0.00    -0.013 C 
ATOM     20  C   UNL     1      35.796 -22.623 -15.780  0.00  0.00    -0.000 C 
ATOM     21  C   UNL     1      35.269 -24.980 -15.692  0.00  0.00    -0.000 C 
ATOM     22  C   UNL     1      36.795 -22.811 -14.824  0.00  0.00    +0.040 C 
ATOM     23  C   UNL     1      36.268 -25.168 -14.737  0.00  0.00    +0.040 C 
ATOM     24  C   UNL     1      37.032 -24.084 -14.303  0.00  0.00    +0.176 C 
BRANCH  24  25
ATOM     25  O   UNL     1      38.007 -24.267 -13.371  0.00  0.00    -0.322 OA
BRANCH  25  26
ATOM     26  S   UNL     1      37.758 -23.718 -11.840  0.00  0.00    +0.282 S 
ATOM     27  O   UNL     1      36.151 -23.445 -11.780  0.00  0.00    -0.105 OA
ATOM     28  O   UNL     1      38.066 -24.782 -10.902  0.00  0.00    -0.012 OA
ATOM     29  O   UNL     1      38.422 -22.434 -11.720  0.00  0.00    -0.105 OA
ENDBRANCH  25  26
ENDBRANCH  24  25
ENDBRANCH   1  19
TORSDOF 7
ENDMDL
MODEL 5
REMARK VINA RESULT:     -10.9      4.152      7.511
REMARK  Name = 5243
REMARK  7 active torsions:
REMARK  status: ('A' for Active; 'I' for Inactive)
REMARK    1  A    between atoms: C_1  and  C_3
REMARK    2  A    between atoms: C_1  and  C_8
REMARK    3  A    between atoms: C_1  and  C_19
REMARK    4  A    between atoms: C_13  and  O_14
REMARK    5  A    between atoms: O_14  and  S_15
REMARK    6  A    between atoms: C_24  and  O_25
REMARK    7  A    between atoms: O_25  and  S_26
REMARK                            x       y       z     vdW  Elec       q    Type
REMARK                         _______ _______ _______ _____ _____    ______ ____
ROOT
ATOM      1  C   UNL     1      34.350 -23.741 -16.757  0.00  0.00    +0.085 C 
ENDROOT
BRANCH   1   3
ATOM      2  N   UNL     1      35.661 -25.264 -15.406  0.00  0.00    -0.248 NA
ATOM      3  C   UNL     1      35.305 -23.993 -15.569  0.00  0.00    +0.067 C 
ATOM      4  C   UNL     1      35.677 -22.917 -14.825  0.00  0.00    +0.015 C 
ATOM      5  C   UNL     1      36.537 -23.178 -13.763  0.00  0.00    +0.003 C 
ATOM      6  C   UNL     1      36.496 -25.479 -14.364  0.00  0.00    +0.098 C 
ATOM      7  C   UNL     1      36.959 -24.480 -13.522  0.00  0.00    +0.021 C 
ENDBRANCH   1   3
BRANCH   1   8
ATOM      8  C   UNL     1      34.877 -22.849 -17.829  0.00  0.00    -0.013 C 
ATOM      9  C   UNL     1      36.194 -22.395 -17.775  0.00  0.00    -0.000 C 
ATOM     10  C   UNL     1      34.050 -22.467 -18.886  0.00  0.00    -0.000 C 
ATOM     11  C   UNL     1      36.685 -21.559 -18.777  0.00  0.00    +0.040 C 
ATOM     12  C   UNL     1      34.542 -21.631 -19.890  0.00  0.00    +0.040 C 
ATOM     13  C   UNL     1      35.860 -21.177 -19.835  0.00  0.00    +0.176 C 
BRANCH  13  14
ATOM     14  O   UNL     1      36.340 -20.362 -20.813  0.00  0.00    -0.322 OA
BRANCH  14  15
ATOM     15  S   UNL     1      35.362 -19.190 -21.424  0.00  0.00    +0.282 S 
ATOM     16  O   UNL     1      36.038 -18.830 -22.866  0.00  0.00    -0.105 OA
ATOM     17  O   UNL     1      34.049 -19.754 -21.675  0.00  0.00    -0.012 OA
ATOM     18  O   UNL     1      35.498 -18.018 -20.577  0.00  0.00    -0.105 OA
ENDBRANCH  14  15
ENDBRANCH  13  14
ENDBRANCH   1   8
BRANCH   1  19
ATOM     19  C   UNL     1      32.903 -23.450 -16.298  0.00  0.00    -0.013 C 
ATOM     20  C   UNL     1      31.990 -23.081 -17.249  0.00  0.00    -0.000 C 
ATOM     21  C   UNL     1      32.612 -23.575 -14.967  0.00  0.00    -0.000 C 
ATOM     22  C   UNL     1      30.684 -22.817 -16.836  0.00  0.00    +0.040 C 
ATOM     23  C   UNL     1      31.306 -23.311 -14.554  0.00  0.00    +0.040 C 
ATOM     24  C   UNL     1      30.342 -22.932 -15.488  0.00  0.00    +0.176 C 
BRANCH  24  25
ATOM     25  O   UNL     1      29.068 -22.674 -15.085  0.00  0.00    -0.322 OA
BRANCH  25  26
ATOM     26  S   UNL     1      27.826 -22.997 -16.114  0.00  0.00    +0.282 S 
ATOM     27  O   UNL     1      26.493 -22.665 -15.233  0.00  0.00    -0.105 OA
ATOM     28  O   UNL     1      27.875 -22.059 -17.221  0.00  0.00    -0.012 OA
ATOM     29  O   UNL     1      27.830 -24.424 -16.375  0.00  0.00    -0.105 OA
ENDBRANCH  25  26
ENDBRANCH  24  25
ENDBRANCH   1  19
TORSDOF 7
ENDMDL
MODEL 6
REMARK VINA RESULT:      -9.3      3.601      8.169
REMARK  Name = 5243
REMARK  7 active torsions:
REMARK  status: ('A' for Active; 'I' for Inactive)
REMARK    1  A    between atoms: C_1  and  C_3
REMARK    2  A    between atoms: C_1  and  C_8
REMARK    3  A    between atoms: C_1  and  C_19
REMARK    4  A    between atoms: C_13  and  O_14
REMARK    5  A    between atoms: O_14  and  S_15
REMARK    6  A    between atoms: C_24  and  O_25
REMARK    7  A    between atoms: O_25  and  S_26
REMARK                            x       y       z     vdW  Elec       q    Type
REMARK                         _______ _______ _______ _____ _____    ______ ____
ROOT
ATOM      1  C   UNL     1      34.803 -23.087 -17.703  0.00  0.00    +0.085 C 
ENDROOT
BRANCH   1   3
ATOM      2  N   UNL     1      36.299 -24.087 -16.083  0.00  0.00    -0.248 NA
ATOM      3  C   UNL     1      36.066 -23.003 -16.817  0.00  0.00    +0.067 C 
ATOM      4  C   UNL     1      36.796 -21.857 -16.874  0.00  0.00    +0.015 C 
ATOM      5  C   UNL     1      37.926 -21.814 -16.064  0.00  0.00    +0.003 C 
ATOM      6  C   UNL     1      37.404 -24.008 -15.309  0.00  0.00    +0.098 C 
ATOM      7  C   UNL     1      38.243 -22.906 -15.264  0.00  0.00    +0.021 C 
ENDBRANCH   1   3
BRANCH   1   8
ATOM      8  C   UNL     1      34.753 -22.130 -18.846  0.00  0.00    -0.013 C 
ATOM      9  C   UNL     1      35.934 -21.705 -19.453  0.00  0.00    -0.000 C 
ATOM     10  C   UNL     1      33.523 -21.659 -19.306  0.00  0.00    -0.000 C 
ATOM     11  C   UNL     1      35.886 -20.809 -20.520  0.00  0.00    +0.040 C 
ATOM     12  C   UNL     1      33.475 -20.762 -20.375  0.00  0.00    +0.040 C 
ATOM     13  C   UNL     1      34.657 -20.338 -20.982  0.00  0.00    +0.176 C 
BRANCH  13  14
ATOM     14  O   UNL     1      34.612 -19.463 -22.023  0.00  0.00    -0.322 OA
BRANCH  14  15
ATOM     15  S   UNL     1      35.563 -18.122 -21.980  0.00  0.00    +0.282 S 
ATOM     16  O   UNL     1      34.954 -17.174 -23.162  0.00  0.00    -0.105 OA
ATOM     17  O   UNL     1      35.363 -17.442 -20.715  0.00  0.00    -0.012 OA
ATOM     18  O   UNL     1      36.899 -18.518 -22.388  0.00  0.00    -0.105 OA
ENDBRANCH  14  15
ENDBRANCH  13  14
ENDBRANCH   1   8
BRANCH   1  19
ATOM     19  C   UNL     1      33.505 -23.200 -16.871  0.00  0.00    -0.013 C 
ATOM     20  C   UNL     1      33.622 -23.322 -15.513  0.00  0.00    -0.000 C 
ATOM     21  C   UNL     1      32.310 -23.171 -17.536  0.00  0.00    -0.000 C 
ATOM     22  C   UNL     1      32.451 -23.425 -14.761  0.00  0.00    +0.040 C 
ATOM     23  C   UNL     1      31.139 -23.274 -16.785  0.00  0.00    +0.040 C 
ATOM     24  C   UNL     1      31.209 -23.400 -15.397  0.00  0.00    +0.176 C 
BRANCH  24  25
ATOM     25  O   UNL     1      30.067 -23.500 -14.664  0.00  0.00    -0.322 OA
BRANCH  25  26
ATOM     26  S   UNL     1      29.753 -24.904 -13.866  0.00  0.00    +0.282 S 
ATOM     27  O   UNL     1      30.743 -25.988 -14.580  0.00  0.00    -0.105 OA
ATOM     28  O   UNL     1      30.169 -24.763 -12.483  0.00  0.00    -0.012 OA
ATOM     29  O   UNL     1      28.390 -25.291 -14.176  0.00  0.00    -0.105 OA
ENDBRANCH  25  26
ENDBRANCH  24  25
ENDBRANCH   1  19
TORSDOF 7
ENDMDL
MODEL 7
REMARK VINA RESULT:      -9.1      5.082      7.853
REMARK  Name = 5243
REMARK  7 active torsions:
REMARK  status: ('A' for Active; 'I' for Inactive)
REMARK    1  A    between atoms: C_1  and  C_3
REMARK    2  A    between atoms: C_1  and  C_8
REMARK    3  A    between atoms: C_1  and  C_19
REMARK    4  A    between atoms: C_13  and  O_14
REMARK    5  A    between atoms: O_14  and  S_15
REMARK    6  A    between atoms: C_24  and  O_25
REMARK    7  A    between atoms: O_25  and  S_26
REMARK                            x       y       z     vdW  Elec       q    Type
REMARK                         _______ _______ _______ _____ _____    ______ ____
ROOT
ATOM      1  C   UNL     1      35.558 -18.541 -22.512  0.00  0.00    +0.085 C 
ENDROOT
BRANCH   1   3
ATOM      2  N   UNL     1      35.207 -20.208 -24.232  0.00  0.00    -0.248 NA
ATOM      3  C   UNL     1      34.930 -18.963 -23.859  0.00  0.00    +0.067 C 
ATOM      4  C   UNL     1      34.174 -18.041 -24.514  0.00  0.00    +0.015 C 
ATOM      5  C   UNL     1      33.624 -18.452 -25.723  0.00  0.00    +0.003 C 
ATOM      6  C   UNL     1      34.656 -20.572 -25.412  0.00  0.00    +0.098 C 
ATOM      7  C   UNL     1      33.864 -19.740 -26.188  0.00  0.00    +0.021 C 
ENDBRANCH   1   3
BRANCH   1   8
ATOM      8  C   UNL     1      35.508 -19.565 -21.429  0.00  0.00    -0.013 C 
ATOM      9  C   UNL     1      36.683 -19.965 -20.792  0.00  0.00    -0.000 C 
ATOM     10  C   UNL     1      34.286 -20.124 -21.054  0.00  0.00    -0.000 C 
ATOM     11  C   UNL     1      36.636 -20.923 -19.781  0.00  0.00    +0.040 C 
ATOM     12  C   UNL     1      34.239 -21.083 -20.041  0.00  0.00    +0.040 C 
ATOM     13  C   UNL     1      35.414 -21.482 -19.404  0.00  0.00    +0.176 C 
BRANCH  13  14
ATOM     14  O   UNL     1      35.369 -22.417 -18.417  0.00  0.00    -0.322 OA
BRANCH  14  15
ATOM     15  S   UNL     1      34.009 -23.324 -18.240  0.00  0.00    +0.282 S 
ATOM     16  O   UNL     1      34.277 -24.168 -16.868  0.00  0.00    -0.105 OA
ATOM     17  O   UNL     1      32.881 -22.441 -18.007  0.00  0.00    -0.012 OA
ATOM     18  O   UNL     1      33.970 -24.277 -19.334  0.00  0.00    -0.105 OA
ENDBRANCH  14  15
ENDBRANCH  13  14
ENDBRANCH   1   8
BRANCH   1  19
ATOM     19  C   UNL     1      35.150 -17.109 -22.094  0.00  0.00    -0.013 C 
ATOM     20  C   UNL     1      35.004 -16.847 -20.759  0.00  0.00    -0.000 C 
ATOM     21  C   UNL     1      34.958 -16.182 -23.081  0.00  0.00    -0.000 C 
ATOM     22  C   UNL     1      34.635 -15.556 -20.382  0.00  0.00    +0.040 C 
ATOM     23  C   UNL     1      34.590 -14.890 -22.704  0.00  0.00    +0.040 C 
ATOM     24  C   UNL     1      34.429 -14.577 -21.354  0.00  0.00    +0.176 C 
BRANCH  24  25
ATOM     25  O   UNL     1      34.069 -13.317 -20.985  0.00  0.00    -0.322 OA
BRANCH  25  26
ATOM     26  S   UNL     1      32.494 -12.866 -21.123  0.00  0.00    +0.282 S 
ATOM     27  O   UNL     1      32.310 -11.731 -19.965  0.00  0.00    -0.105 OA
ATOM     28  O   UNL     1      32.297 -12.225 -22.411  0.00  0.00    -0.012 OA
ATOM     29  O   UNL     1      31.676 -14.005 -20.749  0.00  0.00    -0.105 OA
ENDBRANCH  25  26
ENDBRANCH  24  25
ENDBRANCH   1  19
TORSDOF 7
ENDMDL
MODEL 8
REMARK VINA RESULT:      -9.0      8.851     13.337
REMARK  Name = 5243
REMARK  7 active torsions:
REMARK  status: ('A' for Active; 'I' for Inactive)
REMARK    1  A    between atoms: C_1  and  C_3
REMARK    2  A    between atoms: C_1  and  C_8
REMARK    3  A    between atoms: C_1  and  C_19
REMARK    4  A    between atoms: C_13  and  O_14
REMARK    5  A    between atoms: O_14  and  S_15
REMARK    6  A    between atoms: C_24  and  O_25
REMARK    7  A    between atoms: O_25  and  S_26
REMARK                            x       y       z     vdW  Elec       q    Type
REMARK                         _______ _______ _______ _____ _____    ______ ____
ROOT
ATOM      1  C   UNL     1      32.863 -13.189 -23.314  0.00  0.00    +0.085 C 
ENDROOT
BRANCH   1   3
ATOM      2  N   UNL     1      32.935 -13.748 -25.668  0.00  0.00    -0.248 NA
ATOM      3  C   UNL     1      33.398 -12.920 -24.738  0.00  0.00    +0.067 C 
ATOM      4  C   UNL     1      34.270 -11.887 -24.894  0.00  0.00    +0.015 C 
ATOM      5  C   UNL     1      34.733 -11.671 -26.187  0.00  0.00    +0.003 C 
ATOM      6  C   UNL     1      33.408 -13.509 -26.912  0.00  0.00    +0.098 C 
ATOM      7  C   UNL     1      34.299 -12.493 -27.221  0.00  0.00    +0.021 C 
ENDBRANCH   1   3
BRANCH   1   8
ATOM      8  C   UNL     1      32.543 -11.978 -22.505  0.00  0.00    -0.013 C 
ATOM      9  C   UNL     1      32.022 -12.114 -21.219  0.00  0.00    -0.000 C 
ATOM     10  C   UNL     1      32.764 -10.707 -23.037  0.00  0.00    -0.000 C 
ATOM     11  C   UNL     1      31.722 -10.981 -20.464  0.00  0.00    +0.040 C 
ATOM     12  C   UNL     1      32.464  -9.573 -22.282  0.00  0.00    +0.040 C 
ATOM     13  C   UNL     1      31.943  -9.710 -20.995  0.00  0.00    +0.176 C 
BRANCH  13  14
ATOM     14  O   UNL     1      31.650  -8.605 -20.258  0.00  0.00    -0.322 OA
BRANCH  14  15
ATOM     15  S   UNL     1      32.394  -7.184 -20.622  0.00  0.00    +0.282 S 
ATOM     16  O   UNL     1      32.850  -6.598 -19.168  0.00  0.00    -0.105 OA
ATOM     17  O   UNL     1      33.596  -7.463 -21.386  0.00  0.00    -0.012 OA
ATOM     18  O   UNL     1      31.388  -6.284 -21.156  0.00  0.00    -0.105 OA
ENDBRANCH  14  15
ENDBRANCH  13  14
ENDBRANCH   1   8
BRANCH   1  19
ATOM     19  C   UNL     1      33.667 -14.287 -22.579  0.00  0.00    -0.013 C 
ATOM     20  C   UNL     1      34.363 -15.189 -23.338  0.00  0.00    -0.000 C 
ATOM     21  C   UNL     1      33.639 -14.298 -21.212  0.00  0.00    -0.000 C 
ATOM     22  C   UNL     1      35.087 -16.180 -22.675  0.00  0.00    +0.040 C 
ATOM     23  C   UNL     1      34.364 -15.289 -20.549  0.00  0.00    +0.040 C 
ATOM     24  C   UNL     1      35.088 -16.230 -21.281  0.00  0.00    +0.176 C 
BRANCH  24  25
ATOM     25  O   UNL     1      35.795 -17.198 -20.636  0.00  0.00    -0.322 OA
BRANCH  25  26
ATOM     26  S   UNL     1      35.957 -18.673 -21.344  0.00  0.00    +0.282 S 
ATOM     27  O   UNL     1      36.986 -19.468 -20.358  0.00  0.00    -0.105 OA
ATOM     28  O   UNL     1      34.679 -19.359 -21.303  0.00  0.00    -0.012 OA
ATOM     29  O   UNL     1      36.634 -18.480 -22.613  0.00  0.00    -0.105 OA
ENDBRANCH  25  26
ENDBRANCH  24  25
ENDBRANCH   1  19
TORSDOF 7
ENDMDL
