MODEL 1
REMARK VINA RESULT:     -11.5      0.000      0.000
REMARK  Name = 60795
REMARK  7 active torsions:
REMARK  status: ('A' for Active; 'I' for Inactive)
REMARK    1  A    between atoms: C_1  and  N_2
REMARK    2  A    between atoms: C_1  and  C_17
REMARK    3  A    between atoms: N_3  and  C_11
REMARK    4  A    between atoms: C_17  and  C_18
REMARK    5  A    between atoms: C_18  and  C_19
REMARK    6  A    between atoms: C_19  and  O_20
REMARK    7  A    between atoms: O_20  and  C_26
REMARK                            x       y       z     vdW  Elec       q    Type
REMARK                         _______ _______ _______ _____ _____    ______ ____
ROOT
ATOM      1  C   UNL     1      34.648 -17.530 -24.462  0.00  0.00    -0.077 C 
ENDROOT
BRANCH   1   2
ATOM      2  N   UNL     1      34.605 -16.079 -24.287  0.00  0.00    +0.389 N 
ATOM      3  N   UNL     1      33.504 -13.589 -23.421  0.00  0.00    -0.311 N 
ATOM      4  C   UNL     1      33.427 -15.515 -24.957  0.00  0.00    -0.055 C 
ATOM      5  C   UNL     1      34.581 -15.733 -22.861  0.00  0.00    -0.055 C 
ATOM      6  C   UNL     1      33.400 -13.991 -24.830  0.00  0.00    +0.068 C 
ATOM      7  C   UNL     1      34.591 -14.214 -22.662  0.00  0.00    +0.068 C 
ATOM      8  H   UNL     1      35.444 -15.682 -24.707  0.00  0.00    -0.080 HD
BRANCH   3  11
ATOM      9 CL   UNL     1      31.939 -13.408 -20.856  0.00  0.00    -0.080 Cl
ATOM     10 CL   UNL     1      30.960 -10.435 -20.146  0.00  0.00    -0.081 Cl
ATOM     11  C   UNL     1      33.055 -12.312 -23.066  0.00  0.00    +0.059 C 
ATOM     12  C   UNL     1      32.308 -12.066 -21.894  0.00  0.00    +0.081 C 
ATOM     13  C   UNL     1      33.351 -11.214 -23.900  0.00  0.00    +0.015 C 
ATOM     14  C   UNL     1      31.876 -10.778 -21.572  0.00  0.00    +0.069 C 
ATOM     15  C   UNL     1      32.920  -9.927 -23.578  0.00  0.00    +0.002 C 
ATOM     16  C   UNL     1      32.183  -9.709 -22.414  0.00  0.00    +0.012 C 
ENDBRANCH   3  11
ENDBRANCH   1   2
BRANCH   1  17
ATOM     17  C   UNL     1      35.413 -18.181 -23.311  0.00  0.00    -0.019 C 
BRANCH  17  18
ATOM     18  C   UNL     1      34.857 -19.568 -22.992  0.00  0.00    +0.045 C 
BRANCH  18  19
ATOM     19  C   UNL     1      34.677 -19.771 -21.493  0.00  0.00    +0.205 C 
BRANCH  19  20
ATOM     20  O   UNL     1      35.694 -20.640 -20.998  0.00  0.00    -0.475 OA
BRANCH  20  26
ATOM     21  O   UNL     1      37.885 -23.426 -14.842  0.00  0.00    -0.275 OA
ATOM     22  N   UNL     1      37.174 -22.575 -16.854  0.00  0.00    -0.284 N 
ATOM     23  C   UNL     1      34.841 -22.753 -17.517  0.00  0.00    -0.008 C 
ATOM     24  C   UNL     1      34.580 -23.603 -16.307  0.00  0.00    +0.037 C 
ATOM     25  C   UNL     1      36.143 -22.300 -17.769  0.00  0.00    +0.049 C 
ATOM     26  C   UNL     1      35.417 -21.331 -19.858  0.00  0.00    +0.140 C 
ATOM     27  C   UNL     1      35.516 -23.228 -15.168  0.00  0.00    +0.090 C 
ATOM     28  C   UNL     1      36.435 -21.599 -18.942  0.00  0.00    +0.051 C 
ATOM     29  C   UNL     1      33.832 -22.490 -18.448  0.00  0.00    +0.000 C 
ATOM     30  C   UNL     1      34.118 -21.773 -19.611  0.00  0.00    +0.037 C 
ATOM     31  C   UNL     1      36.966 -23.125 -15.604  0.00  0.00    +0.226 C 
ATOM     32  H   UNL     1      38.099 -22.364 -17.120  0.00  0.00    +0.155 HD
ENDBRANCH  20  26
ENDBRANCH  19  20
ENDBRANCH  18  19
ENDBRANCH  17  18
ENDBRANCH   1  17
TORSDOF 7
ENDMDL
MODEL 2
REMARK VINA RESULT:     -11.5      4.552     11.928
REMARK  Name = 60795
REMARK  7 active torsions:
REMARK  status: ('A' for Active; 'I' for Inactive)
REMARK    1  A    between atoms: C_1  and  N_2
REMARK    2  A    between atoms: C_1  and  C_17
REMARK    3  A    between atoms: N_3  and  C_11
REMARK    4  A    between atoms: C_17  and  C_18
REMARK    5  A    between atoms: C_18  and  C_19
REMARK    6  A    between atoms: C_19  and  O_20
REMARK    7  A    between atoms: O_20  and  C_26
REMARK                            x       y       z     vdW  Elec       q    Type
REMARK                         _______ _______ _______ _____ _____    ______ ____
ROOT
ATOM      1  C   UNL     1      34.613 -16.329 -24.646  0.00  0.00    -0.077 C 
ENDROOT
BRANCH   1   2
ATOM      2  N   UNL     1      35.173 -17.390 -23.810  0.00  0.00    +0.389 N 
ATOM      3  N   UNL     1      35.170 -19.340 -21.723  0.00  0.00    -0.311 N 
ATOM      4  C   UNL     1      35.206 -16.972 -22.403  0.00  0.00    -0.055 C 
ATOM      5  C   UNL     1      34.388 -18.622 -23.946  0.00  0.00    -0.055 C 
ATOM      6  C   UNL     1      35.843 -18.050 -21.524  0.00  0.00    +0.068 C 
ATOM      7  C   UNL     1      34.996 -19.757 -23.118  0.00  0.00    +0.068 C 
ATOM      8  H   UNL     1      36.126 -17.571 -24.122  0.00  0.00    -0.080 HD
BRANCH   3  11
ATOM      9 CL   UNL     1      32.594 -20.519 -20.704  0.00  0.00    -0.080 Cl
ATOM     10 CL   UNL     1      33.000 -22.723 -18.406  0.00  0.00    -0.081 Cl
ATOM     11  C   UNL     1      35.293 -20.308 -20.720  0.00  0.00    +0.059 C 
ATOM     12  C   UNL     1      34.178 -20.952 -20.140  0.00  0.00    +0.081 C 
ATOM     13  C   UNL     1      36.575 -20.670 -20.256  0.00  0.00    +0.015 C 
ATOM     14  C   UNL     1      34.340 -21.912 -19.141  0.00  0.00    +0.069 C 
ATOM     15  C   UNL     1      36.736 -21.630 -19.258  0.00  0.00    +0.002 C 
ATOM     16  C   UNL     1      35.619 -22.251 -18.700  0.00  0.00    +0.012 C 
ENDBRANCH   3  11
ENDBRANCH   1   2
BRANCH   1  17
ATOM     17  C   UNL     1      34.366 -15.072 -23.815  0.00  0.00    -0.019 C 
BRANCH  17  18
ATOM     18  C   UNL     1      33.275 -14.202 -24.438  0.00  0.00    +0.045 C 
BRANCH  18  19
ATOM     19  C   UNL     1      33.701 -12.742 -24.527  0.00  0.00    +0.205 C 
BRANCH  19  20
ATOM     20  O   UNL     1      33.175 -12.017 -23.417  0.00  0.00    -0.475 OA
BRANCH  20  26
ATOM     21  O   UNL     1      30.353  -5.612 -22.206  0.00  0.00    -0.275 OA
ATOM     22  N   UNL     1      31.257  -7.676 -22.651  0.00  0.00    -0.284 N 
ATOM     23  C   UNL     1      33.512  -7.872 -23.541  0.00  0.00    -0.008 C 
ATOM     24  C   UNL     1      33.570  -6.377 -23.675  0.00  0.00    +0.037 C 
ATOM     25  C   UNL     1      32.337  -8.473 -23.068  0.00  0.00    +0.049 C 
ATOM     26  C   UNL     1      33.283 -10.660 -23.457  0.00  0.00    +0.140 C 
ATOM     27  C   UNL     1      32.715  -5.704 -22.612  0.00  0.00    +0.090 C 
ATOM     28  C   UNL     1      32.218  -9.865 -23.036  0.00  0.00    +0.051 C 
ATOM     29  C   UNL     1      34.569  -8.679 -23.974  0.00  0.00    +0.000 C 
ATOM     30  C   UNL     1      34.457 -10.069 -23.923  0.00  0.00    +0.037 C 
ATOM     31  C   UNL     1      31.326  -6.304 -22.503  0.00  0.00    +0.226 C 
ATOM     32  H   UNL     1      30.401  -8.122 -22.453  0.00  0.00    +0.155 HD
ENDBRANCH  20  26
ENDBRANCH  19  20
ENDBRANCH  18  19
ENDBRANCH  17  18
ENDBRANCH   1  17
TORSDOF 7
ENDMDL
MODEL 3
REMARK VINA RESULT:     -11.5      1.254      1.526
REMARK  Name = 60795
REMARK  7 active torsions:
REMARK  status: ('A' for Active; 'I' for Inactive)
REMARK    1  A    between atoms: C_1  and  N_2
REMARK    2  A    between atoms: C_1  and  C_17
REMARK    3  A    between atoms: N_3  and  C_11
REMARK    4  A    between atoms: C_17  and  C_18
REMARK    5  A    between atoms: C_18  and  C_19
REMARK    6  A    between atoms: C_19  and  O_20
REMARK    7  A    between atoms: O_20  and  C_26
REMARK                            x       y       z     vdW  Elec       q    Type
REMARK                         _______ _______ _______ _____ _____    ______ ____
ROOT
ATOM      1  C   UNL     1      34.947 -17.411 -24.379  0.00  0.00    -0.077 C 
ENDROOT
BRANCH   1   2
ATOM      2  N   UNL     1      34.732 -15.982 -24.157  0.00  0.00    +0.389 N 
ATOM      3  N   UNL     1      33.366 -13.672 -23.176  0.00  0.00    -0.311 N 
ATOM      4  C   UNL     1      33.469 -15.550 -24.769  0.00  0.00    -0.055 C 
ATOM      5  C   UNL     1      34.719 -15.681 -22.720  0.00  0.00    -0.055 C 
ATOM      6  C   UNL     1      33.260 -14.045 -24.592  0.00  0.00    +0.068 C 
ATOM      7  C   UNL     1      34.550 -14.179 -22.474  0.00  0.00    +0.068 C 
ATOM      8  H   UNL     1      35.500 -15.473 -24.592  0.00  0.00    -0.080 HD
BRANCH   3  11
ATOM      9 CL   UNL     1      34.366 -11.181 -24.538  0.00  0.00    -0.080 Cl
ATOM     10 CL   UNL     1      32.949  -8.490 -23.512  0.00  0.00    -0.081 Cl
ATOM     11  C   UNL     1      32.778 -12.472 -22.765  0.00  0.00    +0.059 C 
ATOM     12  C   UNL     1      33.141 -11.220 -23.308  0.00  0.00    +0.081 C 
ATOM     13  C   UNL     1      31.780 -12.491 -21.768  0.00  0.00    +0.015 C 
ATOM     14  C   UNL     1      32.533 -10.042 -22.872  0.00  0.00    +0.069 C 
ATOM     15  C   UNL     1      31.172 -11.314 -21.333  0.00  0.00    +0.002 C 
ATOM     16  C   UNL     1      31.548 -10.089 -21.885  0.00  0.00    +0.012 C 
ENDBRANCH   3  11
ENDBRANCH   1   2
BRANCH   1  17
ATOM     17  C   UNL     1      35.416 -18.084 -23.091  0.00  0.00    -0.019 C 
BRANCH  17  18
ATOM     18  C   UNL     1      34.732 -19.436 -22.892  0.00  0.00    +0.045 C 
BRANCH  18  19
ATOM     19  C   UNL     1      34.556 -19.766 -21.416  0.00  0.00    +0.205 C 
BRANCH  19  20
ATOM     20  O   UNL     1      35.528 -20.731 -21.018  0.00  0.00    -0.475 OA
BRANCH  20  26
ATOM     21  O   UNL     1      37.937 -23.389 -14.887  0.00  0.00    -0.275 OA
ATOM     22  N   UNL     1      37.156 -22.580 -16.889  0.00  0.00    -0.284 N 
ATOM     23  C   UNL     1      34.804 -22.787 -17.474  0.00  0.00    -0.008 C 
ATOM     24  C   UNL     1      34.589 -23.617 -16.241  0.00  0.00    +0.037 C 
ATOM     25  C   UNL     1      36.094 -22.329 -17.776  0.00  0.00    +0.049 C 
ATOM     26  C   UNL     1      35.293 -21.404 -19.857  0.00  0.00    +0.140 C 
ATOM     27  C   UNL     1      35.558 -23.214 -15.140  0.00  0.00    +0.090 C 
ATOM     28  C   UNL     1      36.342 -21.647 -18.970  0.00  0.00    +0.051 C 
ATOM     29  C   UNL     1      33.763 -22.550 -18.377  0.00  0.00    +0.000 C 
ATOM     30  C   UNL     1      34.006 -21.851 -19.561  0.00  0.00    +0.037 C 
ATOM     31  C   UNL     1      36.992 -23.108 -15.624  0.00  0.00    +0.226 C 
ATOM     32  H   UNL     1      38.070 -22.366 -17.189  0.00  0.00    +0.155 HD
ENDBRANCH  20  26
ENDBRANCH  19  20
ENDBRANCH  18  19
ENDBRANCH  17  18
ENDBRANCH   1  17
TORSDOF 7
ENDMDL
MODEL 4
REMARK VINA RESULT:     -11.2      2.460      3.080
REMARK  Name = 60795
REMARK  7 active torsions:
REMARK  status: ('A' for Active; 'I' for Inactive)
REMARK    1  A    between atoms: C_1  and  N_2
REMARK    2  A    between atoms: C_1  and  C_17
REMARK    3  A    between atoms: N_3  and  C_11
REMARK    4  A    between atoms: C_17  and  C_18
REMARK    5  A    between atoms: C_18  and  C_19
REMARK    6  A    between atoms: C_19  and  O_20
REMARK    7  A    between atoms: O_20  and  C_26
REMARK                            x       y       z     vdW  Elec       q    Type
REMARK                         _______ _______ _______ _____ _____    ______ ____
ROOT
ATOM      1  C   UNL     1      34.189 -16.554 -25.370  0.00  0.00    -0.077 C 
ENDROOT
BRANCH   1   2
ATOM      2  N   UNL     1      33.543 -15.380 -24.784  0.00  0.00    +0.389 N 
ATOM      3  N   UNL     1      33.375 -12.676 -23.878  0.00  0.00    -0.311 N 
ATOM      4  C   UNL     1      34.245 -14.960 -23.565  0.00  0.00    -0.055 C 
ATOM      5  C   UNL     1      33.511 -14.274 -25.748  0.00  0.00    -0.055 C 
ATOM      6  C   UNL     1      33.545 -13.768 -22.911  0.00  0.00    +0.068 C 
ATOM      7  C   UNL     1      32.788 -13.056 -25.167  0.00  0.00    +0.068 C 
ATOM      8  H   UNL     1      32.585 -15.632 -24.542  0.00  0.00    -0.080 HD
BRANCH   3  11
ATOM      9 CL   UNL     1      35.124 -10.533 -25.065  0.00  0.00    -0.080 Cl
ATOM     10 CL   UNL     1      34.592  -7.610 -23.850  0.00  0.00    -0.081 Cl
ATOM     11  C   UNL     1      33.180 -11.382 -23.383  0.00  0.00    +0.059 C 
ATOM     12  C   UNL     1      33.924 -10.272 -23.838  0.00  0.00    +0.081 C 
ATOM     13  C   UNL     1      32.206 -11.158 -22.387  0.00  0.00    +0.015 C 
ATOM     14  C   UNL     1      33.703  -8.995 -23.319  0.00  0.00    +0.069 C 
ATOM     15  C   UNL     1      31.985  -9.881 -21.870  0.00  0.00    +0.002 C 
ATOM     16  C   UNL     1      32.733  -8.800 -22.336  0.00  0.00    +0.012 C 
ENDBRANCH   3  11
ENDBRANCH   1   2
BRANCH   1  17
ATOM     17  C   UNL     1      34.989 -17.305 -24.307  0.00  0.00    -0.019 C 
BRANCH  17  18
ATOM     18  C   UNL     1      34.490 -18.741 -24.151  0.00  0.00    +0.045 C 
BRANCH  18  19
ATOM     19  C   UNL     1      34.981 -19.369 -22.854  0.00  0.00    +0.205 C 
BRANCH  19  20
ATOM     20  O   UNL     1      33.867 -19.762 -22.055  0.00  0.00    -0.475 OA
BRANCH  20  26
ATOM     21  O   UNL     1      31.509 -23.567 -16.541  0.00  0.00    -0.275 OA
ATOM     22  N   UNL     1      32.286 -22.297 -18.289  0.00  0.00    -0.284 N 
ATOM     23  C   UNL     1      34.673 -22.107 -18.714  0.00  0.00    -0.008 C 
ATOM     24  C   UNL     1      34.941 -22.865 -17.446  0.00  0.00    +0.037 C 
ATOM     25  C   UNL     1      33.350 -21.814 -19.072  0.00  0.00    +0.049 C 
ATOM     26  C   UNL     1      34.128 -20.529 -20.961  0.00  0.00    +0.140 C 
ATOM     27  C   UNL     1      33.813 -23.841 -17.149  0.00  0.00    +0.090 C 
ATOM     28  C   UNL     1      33.076 -21.018 -20.187  0.00  0.00    +0.051 C 
ATOM     29  C   UNL     1      35.720 -21.600 -19.490  0.00  0.00    +0.000 C 
ATOM     30  C   UNL     1      35.447 -20.821 -20.616  0.00  0.00    +0.037 C 
ATOM     31  C   UNL     1      32.439 -23.209 -17.263  0.00  0.00    +0.226 C 
ATOM     32  H   UNL     1      31.379 -21.966 -18.485  0.00  0.00    +0.155 HD
ENDBRANCH  20  26
ENDBRANCH  19  20
ENDBRANCH  18  19
ENDBRANCH  17  18
ENDBRANCH   1  17
TORSDOF 7
ENDMDL
MODEL 5
REMARK VINA RESULT:     -11.1      3.384      6.244
REMARK  Name = 60795
REMARK  7 active torsions:
REMARK  status: ('A' for Active; 'I' for Inactive)
REMARK    1  A    between atoms: C_1  and  N_2
REMARK    2  A    between atoms: C_1  and  C_17
REMARK    3  A    between atoms: N_3  and  C_11
REMARK    4  A    between atoms: C_17  and  C_18
REMARK    5  A    between atoms: C_18  and  C_19
REMARK    6  A    between atoms: C_19  and  O_20
REMARK    7  A    between atoms: O_20  and  C_26
REMARK                            x       y       z     vdW  Elec       q    Type
REMARK                         _______ _______ _______ _____ _____    ______ ____
ROOT
ATOM      1  C   UNL     1      36.860 -21.657 -19.333  0.00  0.00    -0.077 C 
ENDROOT
BRANCH   1   2
ATOM      2  N   UNL     1      36.290 -20.464 -19.956  0.00  0.00    +0.389 N 
ATOM      3  N   UNL     1      35.435 -18.809 -22.122  0.00  0.00    -0.311 N 
ATOM      4  C   UNL     1      37.276 -19.821 -20.834  0.00  0.00    -0.055 C 
ATOM      5  C   UNL     1      35.088 -20.808 -20.724  0.00  0.00    -0.055 C 
ATOM      6  C   UNL     1      36.711 -18.538 -21.448  0.00  0.00    +0.068 C 
ATOM      7  C   UNL     1      34.449 -19.558 -21.337  0.00  0.00    +0.068 C 
ATOM      8  H   UNL     1      36.032 -19.811 -19.217  0.00  0.00    -0.080 HD
BRANCH   3  11
ATOM      9 CL   UNL     1      35.107 -15.955 -21.223  0.00  0.00    -0.080 Cl
ATOM     10 CL   UNL     1      34.105 -13.976 -23.544  0.00  0.00    -0.081 Cl
ATOM     11  C   UNL     1      35.002 -17.905 -23.098  0.00  0.00    +0.059 C 
ATOM     12  C   UNL     1      34.799 -16.533 -22.831  0.00  0.00    +0.081 C 
ATOM     13  C   UNL     1      34.750 -18.364 -24.408  0.00  0.00    +0.015 C 
ATOM     14  C   UNL     1      34.364 -15.661 -23.830  0.00  0.00    +0.069 C 
ATOM     15  C   UNL     1      34.317 -17.492 -25.407  0.00  0.00    +0.002 C 
ATOM     16  C   UNL     1      34.124 -16.141 -25.118  0.00  0.00    +0.012 C 
ENDBRANCH   3  11
ENDBRANCH   1   2
BRANCH   1  17
ATOM     17  C   UNL     1      36.061 -22.039 -18.089  0.00  0.00    -0.019 C 
BRANCH  17  18
ATOM     18  C   UNL     1      36.973 -22.201 -16.873  0.00  0.00    +0.045 C 
BRANCH  18  19
ATOM     19  C   UNL     1      36.275 -22.945 -15.742  0.00  0.00    +0.205 C 
BRANCH  19  20
ATOM     20  O   UNL     1      35.398 -23.931 -16.280  0.00  0.00    -0.475 OA
BRANCH  20  26
ATOM     21  O   UNL     1      28.499 -22.578 -17.293  0.00  0.00    -0.275 OA
ATOM     22  N   UNL     1      30.732 -22.972 -16.933  0.00  0.00    -0.284 N 
ATOM     23  C   UNL     1      31.491 -23.971 -14.849  0.00  0.00    -0.008 C 
ATOM     24  C   UNL     1      30.091 -23.878 -14.315  0.00  0.00    +0.037 C 
ATOM     25  C   UNL     1      31.771 -23.477 -16.130  0.00  0.00    +0.049 C 
ATOM     26  C   UNL     1      34.118 -23.943 -15.814  0.00  0.00    +0.140 C 
ATOM     27  C   UNL     1      29.073 -23.988 -15.440  0.00  0.00    +0.090 C 
ATOM     28  C   UNL     1      33.084 -23.452 -16.609  0.00  0.00    +0.051 C 
ATOM     29  C   UNL     1      32.538 -24.449 -14.055  0.00  0.00    +0.000 C 
ATOM     30  C   UNL     1      33.847 -24.443 -14.541  0.00  0.00    +0.037 C 
ATOM     31  C   UNL     1      29.393 -23.087 -16.617  0.00  0.00    +0.226 C 
ATOM     32  H   UNL     1      30.975 -22.510 -17.768  0.00  0.00    +0.155 HD
ENDBRANCH  20  26
ENDBRANCH  19  20
ENDBRANCH  18  19
ENDBRANCH  17  18
ENDBRANCH   1  17
TORSDOF 7
ENDMDL
MODEL 6
REMARK VINA RESULT:     -11.0      2.235      2.967
REMARK  Name = 60795
REMARK  7 active torsions:
REMARK  status: ('A' for Active; 'I' for Inactive)
REMARK    1  A    between atoms: C_1  and  N_2
REMARK    2  A    between atoms: C_1  and  C_17
REMARK    3  A    between atoms: N_3  and  C_11
REMARK    4  A    between atoms: C_17  and  C_18
REMARK    5  A    between atoms: C_18  and  C_19
REMARK    6  A    between atoms: C_19  and  O_20
REMARK    7  A    between atoms: O_20  and  C_26
REMARK                            x       y       z     vdW  Elec       q    Type
REMARK                         _______ _______ _______ _____ _____    ______ ____
ROOT
ATOM      1  C   UNL     1      33.413 -15.988 -25.232  0.00  0.00    -0.077 C 
ENDROOT
BRANCH   1   2
ATOM      2  N   UNL     1      33.882 -14.642 -24.905  0.00  0.00    +0.389 N 
ATOM      3  N   UNL     1      33.631 -11.935 -24.027  0.00  0.00    -0.311 N 
ATOM      4  C   UNL     1      33.216 -13.645 -25.752  0.00  0.00    -0.055 C 
ATOM      5  C   UNL     1      33.634 -14.340 -23.490  0.00  0.00    -0.055 C 
ATOM      6  C   UNL     1      33.740 -12.238 -25.460  0.00  0.00    +0.068 C 
ATOM      7  C   UNL     1      34.170 -12.953 -23.121  0.00  0.00    +0.068 C 
ATOM      8  H   UNL     1      34.886 -14.604 -25.078  0.00  0.00    -0.080 HD
BRANCH   3  11
ATOM      9 CL   UNL     1      31.542 -11.155 -22.005  0.00  0.00    -0.080 Cl
ATOM     10 CL   UNL     1      31.628  -8.052 -21.189  0.00  0.00    -0.081 Cl
ATOM     11  C   UNL     1      33.627 -10.591 -23.637  0.00  0.00    +0.059 C 
ATOM     12  C   UNL     1      32.709 -10.072 -22.698  0.00  0.00    +0.081 C 
ATOM     13  C   UNL     1      34.572  -9.703 -24.192  0.00  0.00    +0.015 C 
ATOM     14  C   UNL     1      32.734  -8.725 -22.334  0.00  0.00    +0.069 C 
ATOM     15  C   UNL     1      34.598  -8.358 -23.827  0.00  0.00    +0.002 C 
ATOM     16  C   UNL     1      33.679  -7.869 -22.898  0.00  0.00    +0.012 C 
ENDBRANCH   3  11
ENDBRANCH   1   2
BRANCH   1  17
ATOM     17  C   UNL     1      34.481 -17.022 -24.878  0.00  0.00    -0.019 C 
BRANCH  17  18
ATOM     18  C   UNL     1      33.933 -18.444 -24.995  0.00  0.00    +0.045 C 
BRANCH  18  19
ATOM     19  C   UNL     1      34.617 -19.392 -24.018  0.00  0.00    +0.205 C 
BRANCH  19  20
ATOM     20  O   UNL     1      34.549 -18.857 -22.698  0.00  0.00    -0.475 OA
BRANCH  20  26
ATOM     21  O   UNL     1      31.726 -22.911 -17.594  0.00  0.00    -0.275 OA
ATOM     22  N   UNL     1      32.655 -21.565 -19.206  0.00  0.00    -0.284 N 
ATOM     23  C   UNL     1      35.063 -21.526 -19.547  0.00  0.00    -0.008 C 
ATOM     24  C   UNL     1      35.230 -22.405 -18.342  0.00  0.00    +0.037 C 
ATOM     25  C   UNL     1      33.779 -21.103 -19.915  0.00  0.00    +0.049 C 
ATOM     26  C   UNL     1      34.715 -19.731 -21.667  0.00  0.00    +0.140 C 
ATOM     27  C   UNL     1      34.023 -23.311 -18.160  0.00  0.00    +0.090 C 
ATOM     28  C   UNL     1      33.604 -20.198 -20.966  0.00  0.00    +0.051 C 
ATOM     29  C   UNL     1      36.171 -21.039 -20.248  0.00  0.00    +0.000 C 
ATOM     30  C   UNL     1      35.996 -20.151 -21.311  0.00  0.00    +0.037 C 
ATOM     31  C   UNL     1      32.705 -22.567 -18.257  0.00  0.00    +0.226 C 
ATOM     32  H   UNL     1      31.783 -21.149 -19.398  0.00  0.00    +0.155 HD
ENDBRANCH  20  26
ENDBRANCH  19  20
ENDBRANCH  18  19
ENDBRANCH  17  18
ENDBRANCH   1  17
TORSDOF 7
ENDMDL
MODEL 7
REMARK VINA RESULT:     -10.9      4.059      7.295
REMARK  Name = 60795
REMARK  7 active torsions:
REMARK  status: ('A' for Active; 'I' for Inactive)
REMARK    1  A    between atoms: C_1  and  N_2
REMARK    2  A    between atoms: C_1  and  C_17
REMARK    3  A    between atoms: N_3  and  C_11
REMARK    4  A    between atoms: C_17  and  C_18
REMARK    5  A    between atoms: C_18  and  C_19
REMARK    6  A    between atoms: C_19  and  O_20
REMARK    7  A    between atoms: O_20  and  C_26
REMARK                            x       y       z     vdW  Elec       q    Type
REMARK                         _______ _______ _______ _____ _____    ______ ____
ROOT
ATOM      1  C   UNL     1      31.798 -10.663 -20.361  0.00  0.00    -0.077 C 
ENDROOT
BRANCH   1   2
ATOM      2  N   UNL     1      32.350  -9.641 -21.249  0.00  0.00    +0.389 N 
ATOM      3  N   UNL     1      32.336  -7.220 -22.765  0.00  0.00    -0.311 N 
ATOM      4  C   UNL     1      31.551  -9.537 -22.476  0.00  0.00    -0.055 C 
ATOM      5  C   UNL     1      32.395  -8.339 -20.571  0.00  0.00    -0.055 C 
ATOM      6  C   UNL     1      32.152  -8.512 -23.438  0.00  0.00    +0.068 C 
ATOM      7  C   UNL     1      33.023  -7.271 -21.471  0.00  0.00    +0.068 C 
ATOM      8  H   UNL     1      33.300  -9.915 -21.497  0.00  0.00    -0.080 HD
BRANCH   3  11
ATOM      9 CL   UNL     1      30.428  -4.986 -22.107  0.00  0.00    -0.080 Cl
ATOM     10 CL   UNL     1      30.754  -2.410 -23.995  0.00  0.00    -0.081 Cl
ATOM     11  C   UNL     1      32.439  -6.072 -23.559  0.00  0.00    +0.059 C 
ATOM     12  C   UNL     1      31.614  -4.942 -23.375  0.00  0.00    +0.081 C 
ATOM     13  C   UNL     1      33.400  -6.024 -24.591  0.00  0.00    +0.015 C 
ATOM     14  C   UNL     1      31.744  -3.815 -24.188  0.00  0.00    +0.069 C 
ATOM     15  C   UNL     1      33.530  -4.898 -25.402  0.00  0.00    +0.002 C 
ATOM     16  C   UNL     1      32.703  -3.793 -25.201  0.00  0.00    +0.012 C 
ENDBRANCH   3  11
ENDBRANCH   1   2
BRANCH   1  17
ATOM     17  C   UNL     1      31.287 -11.851 -21.173  0.00  0.00    -0.019 C 
BRANCH  17  18
ATOM     18  C   UNL     1      32.350 -12.944 -21.283  0.00  0.00    +0.045 C 
BRANCH  18  19
ATOM     19  C   UNL     1      32.853 -13.098 -22.711  0.00  0.00    +0.205 C 
BRANCH  19  20
ATOM     20  O   UNL     1      34.217 -13.517 -22.701  0.00  0.00    -0.475 OA
BRANCH  20  26
ATOM     21  O   UNL     1      36.245 -19.840 -20.180  0.00  0.00    -0.275 OA
ATOM     22  N   UNL     1      35.637 -17.791 -21.020  0.00  0.00    -0.284 N 
ATOM     23  C   UNL     1      34.957 -17.560 -23.344  0.00  0.00    -0.008 C 
ATOM     24  C   UNL     1      35.332 -18.995 -23.578  0.00  0.00    +0.037 C 
ATOM     25  C   UNL     1      35.161 -16.996 -22.078  0.00  0.00    +0.049 C 
ATOM     26  C   UNL     1      34.460 -14.841 -22.909  0.00  0.00    +0.140 C 
ATOM     27  C   UNL     1      35.146 -19.818 -22.312  0.00  0.00    +0.090 C 
ATOM     28  C   UNL     1      34.923 -15.636 -21.862  0.00  0.00    +0.051 C 
ATOM     29  C   UNL     1      34.506 -16.751 -24.391  0.00  0.00    +0.000 C 
ATOM     30  C   UNL     1      34.249 -15.396 -24.170  0.00  0.00    +0.037 C 
ATOM     31  C   UNL     1      35.760 -19.165 -21.088  0.00  0.00    +0.226 C 
ATOM     32  H   UNL     1      35.898 -17.342 -20.183  0.00  0.00    +0.155 HD
ENDBRANCH  20  26
ENDBRANCH  19  20
ENDBRANCH  18  19
ENDBRANCH  17  18
ENDBRANCH   1  17
TORSDOF 7
ENDMDL
MODEL 8
REMARK VINA RESULT:     -10.7      2.936      4.922
REMARK  Name = 60795
REMARK  7 active torsions:
REMARK  status: ('A' for Active; 'I' for Inactive)
REMARK    1  A    between atoms: C_1  and  N_2
REMARK    2  A    between atoms: C_1  and  C_17
REMARK    3  A    between atoms: N_3  and  C_11
REMARK    4  A    between atoms: C_17  and  C_18
REMARK    5  A    between atoms: C_18  and  C_19
REMARK    6  A    between atoms: C_19  and  O_20
REMARK    7  A    between atoms: O_20  and  C_26
REMARK                            x       y       z     vdW  Elec       q    Type
REMARK                         _______ _______ _______ _____ _____    ______ ____
ROOT
ATOM      1  C   UNL     1      35.877 -20.846 -20.319  0.00  0.00    -0.077 C 
ENDROOT
BRANCH   1   2
ATOM      2  N   UNL     1      35.746 -19.997 -21.503  0.00  0.00    +0.389 N 
ATOM      3  N   UNL     1      34.815 -17.762 -23.019  0.00  0.00    -0.311 N 
ATOM      4  C   UNL     1      34.343 -19.921 -21.929  0.00  0.00    -0.055 C 
ATOM      5  C   UNL     1      36.259 -18.650 -21.230  0.00  0.00    -0.055 C 
ATOM      6  C   UNL     1      34.200 -19.083 -23.200  0.00  0.00    +0.068 C 
ATOM      7  C   UNL     1      36.179 -17.767 -22.479  0.00  0.00    +0.068 C 
ATOM      8  H   UNL     1      36.296 -20.413 -22.254  0.00  0.00    -0.080 HD
BRANCH   3  11
ATOM      9 CL   UNL     1      34.681 -15.024 -21.775  0.00  0.00    -0.080 Cl
ATOM     10 CL   UNL     1      33.732 -12.727 -23.806  0.00  0.00    -0.081 Cl
ATOM     11  C   UNL     1      34.409 -16.724 -23.864  0.00  0.00    +0.059 C 
ATOM     12  C   UNL     1      34.294 -15.386 -23.429  0.00  0.00    +0.081 C 
ATOM     13  C   UNL     1      34.094 -17.006 -25.210  0.00  0.00    +0.015 C 
ATOM     14  C   UNL     1      33.884 -14.377 -24.301  0.00  0.00    +0.069 C 
ATOM     15  C   UNL     1      33.684 -15.997 -26.082  0.00  0.00    +0.002 C 
ATOM     16  C   UNL     1      33.579 -14.683 -25.627  0.00  0.00    +0.012 C 
ENDBRANCH   3  11
ENDBRANCH   1   2
BRANCH   1  17
ATOM     17  C   UNL     1      34.504 -21.336 -19.863  0.00  0.00    -0.019 C 
BRANCH  17  18
ATOM     18  C   UNL     1      34.593 -22.731 -19.244  0.00  0.00    +0.045 C 
BRANCH  18  19
ATOM     19  C   UNL     1      33.949 -22.776 -17.865  0.00  0.00    +0.205 C 
BRANCH  19  20
ATOM     20  O   UNL     1      34.356 -23.959 -17.180  0.00  0.00    -0.475 OA
BRANCH  20  26
ATOM     21  O   UNL     1      35.382 -25.388 -10.298  0.00  0.00    -0.275 OA
ATOM     22  N   UNL     1      35.033 -24.876 -12.509  0.00  0.00    -0.284 N 
ATOM     23  C   UNL     1      36.601 -23.459 -13.713  0.00  0.00    -0.008 C 
ATOM     24  C   UNL     1      37.334 -23.208 -12.427  0.00  0.00    +0.037 C 
ATOM     25  C   UNL     1      35.448 -24.256 -13.701  0.00  0.00    +0.049 C 
ATOM     26  C   UNL     1      35.089 -23.797 -16.044  0.00  0.00    +0.140 C 
ATOM     27  C   UNL     1      37.214 -24.402 -11.492  0.00  0.00    +0.090 C 
ATOM     28  C   UNL     1      34.687 -24.417 -14.862  0.00  0.00    +0.051 C 
ATOM     29  C   UNL     1      36.987 -22.830 -14.901  0.00  0.00    +0.000 C 
ATOM     30  C   UNL     1      36.238 -23.007 -16.065  0.00  0.00    +0.037 C 
ATOM     31  C   UNL     1      35.789 -24.904 -11.354  0.00  0.00    +0.226 C 
ATOM     32  H   UNL     1      34.152 -25.317 -12.499  0.00  0.00    +0.155 HD
ENDBRANCH  20  26
ENDBRANCH  19  20
ENDBRANCH  18  19
ENDBRANCH  17  18
ENDBRANCH   1  17
TORSDOF 7
ENDMDL
MODEL 9
REMARK VINA RESULT:     -10.7      3.041      4.758
REMARK  Name = 60795
REMARK  7 active torsions:
REMARK  status: ('A' for Active; 'I' for Inactive)
REMARK    1  A    between atoms: C_1  and  N_2
REMARK    2  A    between atoms: C_1  and  C_17
REMARK    3  A    between atoms: N_3  and  C_11
REMARK    4  A    between atoms: C_17  and  C_18
REMARK    5  A    between atoms: C_18  and  C_19
REMARK    6  A    between atoms: C_19  and  O_20
REMARK    7  A    between atoms: O_20  and  C_26
REMARK                            x       y       z     vdW  Elec       q    Type
REMARK                         _______ _______ _______ _____ _____    ______ ____
ROOT
ATOM      1  C   UNL     1      35.363 -20.407 -21.095  0.00  0.00    -0.077 C 
ENDROOT
BRANCH   1   2
ATOM      2  N   UNL     1      35.422 -19.317 -22.067  0.00  0.00    +0.389 N 
ATOM      3  N   UNL     1      34.476 -17.006 -23.455  0.00  0.00    -0.311 N 
ATOM      4  C   UNL     1      34.324 -19.429 -23.035  0.00  0.00    -0.055 C 
ATOM      5  C   UNL     1      35.358 -18.017 -21.388  0.00  0.00    -0.055 C 
ATOM      6  C   UNL     1      34.408 -18.327 -24.093  0.00  0.00    +0.068 C 
ATOM      7  C   UNL     1      35.475 -16.865 -22.391  0.00  0.00    +0.068 C 
ATOM      8  H   UNL     1      36.309 -19.383 -22.566  0.00  0.00    -0.080 HD
BRANCH   3  11
ATOM      9 CL   UNL     1      34.381 -14.383 -21.981  0.00  0.00    -0.080 Cl
ATOM     10 CL   UNL     1      33.527 -11.896 -23.822  0.00  0.00    -0.081 Cl
ATOM     11  C   UNL     1      34.111 -15.889 -24.215  0.00  0.00    +0.059 C 
ATOM     12  C   UNL     1      34.019 -14.591 -23.666  0.00  0.00    +0.081 C 
ATOM     13  C   UNL     1      33.817 -16.046 -25.585  0.00  0.00    +0.015 C 
ATOM     14  C   UNL     1      33.650 -13.500 -24.455  0.00  0.00    +0.069 C 
ATOM     15  C   UNL     1      33.449 -14.956 -26.373  0.00  0.00    +0.002 C 
ATOM     16  C   UNL     1      33.366 -13.683 -25.808  0.00  0.00    +0.012 C 
ENDBRANCH   3  11
ENDBRANCH   1   2
BRANCH   1  17
ATOM     17  C   UNL     1      36.652 -20.460 -20.277  0.00  0.00    -0.019 C 
BRANCH  17  18
ATOM     18  C   UNL     1      36.689 -21.699 -19.383  0.00  0.00    +0.045 C 
BRANCH  18  19
ATOM     19  C   UNL     1      35.298 -22.085 -18.898  0.00  0.00    +0.205 C 
BRANCH  19  20
ATOM     20  O   UNL     1      35.402 -23.000 -17.809  0.00  0.00    -0.475 OA
BRANCH  20  26
ATOM     21  O   UNL     1      28.344 -22.686 -17.070  0.00  0.00    -0.275 OA
ATOM     22  N   UNL     1      30.631 -22.743 -17.278  0.00  0.00    -0.284 N 
ATOM     23  C   UNL     1      32.021 -23.528 -15.443  0.00  0.00    -0.008 C 
ATOM     24  C   UNL     1      30.798 -23.609 -14.575  0.00  0.00    +0.037 C 
ATOM     25  C   UNL     1      31.899 -23.058 -16.757  0.00  0.00    +0.049 C 
ATOM     26  C   UNL     1      34.294 -23.172 -17.036  0.00  0.00    +0.140 C 
ATOM     27  C   UNL     1      29.562 -23.915 -15.407  0.00  0.00    +0.090 C 
ATOM     28  C   UNL     1      33.034 -22.870 -17.551  0.00  0.00    +0.051 C 
ATOM     29  C   UNL     1      33.291 -23.814 -14.933  0.00  0.00    +0.000 C 
ATOM     30  C   UNL     1      34.423 -23.645 -15.732  0.00  0.00    +0.037 C 
ATOM     31  C   UNL     1      29.443 -23.032 -16.635  0.00  0.00    +0.226 C 
ATOM     32  H   UNL     1      30.588 -22.290 -18.152  0.00  0.00    +0.155 HD
ENDBRANCH  20  26
ENDBRANCH  19  20
ENDBRANCH  18  19
ENDBRANCH  17  18
ENDBRANCH   1  17
TORSDOF 7
ENDMDL
