MODEL 1
REMARK VINA RESULT:     -10.9      0.000      0.000
REMARK  Name = 10125830
REMARK  4 active torsions:
REMARK  status: ('A' for Active; 'I' for Inactive)
REMARK    1  A    between atoms: C_6  and  C_19
REMARK    2  A    between atoms: C_11  and  C_14
REMARK    3  A    between atoms: C_22  and  O_25
REMARK    4  A    between atoms: C_24  and  O_27
REMARK                            x       y       z     vdW  Elec       q    Type
REMARK                         _______ _______ _______ _____ _____    ______ ____
ROOT
ATOM      1  O   UNL     1      32.833 -23.474 -17.190  0.00  0.00    -0.270 OA
ATOM      2  N   UNL     1      32.894 -22.105 -19.115  0.00  0.00    -0.280 N 
ATOM      3  C   UNL     1      35.122 -21.539 -19.140  0.00  0.00    +0.018 C 
ATOM      4  C   UNL     1      33.891 -21.387 -19.784  0.00  0.00    +0.051 C 
ATOM      5  C   UNL     1      34.867 -22.407 -17.995  0.00  0.00    +0.056 C 
ATOM      6  C   UNL     1      34.883 -19.989 -21.424  0.00  0.00    +0.001 C 
ATOM      7  C   UNL     1      33.742 -20.623 -20.924  0.00  0.00    +0.015 C 
ATOM      8  C   UNL     1      36.255 -20.915 -19.628  0.00  0.00    +0.001 C 
ATOM      9  C   UNL     1      33.409 -22.767 -17.996  0.00  0.00    +0.250 C 
ATOM     10  C   UNL     1      36.127 -20.135 -20.782  0.00  0.00    +0.000 C 
ATOM     11  C   UNL     1      35.729 -22.846 -17.076  0.00  0.00    +0.019 C 
ATOM     12  H   UNL     1      31.951 -22.140 -19.396  0.00  0.00    +0.155 HD
ENDROOT
BRANCH  11  14
ATOM     13  N   UNL     1      34.845 -23.146 -14.886  0.00  0.00    -0.312 N 
ATOM     14  C   UNL     1      35.465 -23.707 -15.948  0.00  0.00    +0.049 C 
ATOM     15  C   UNL     1      35.713 -25.013 -15.717  0.00  0.00    +0.016 C 
ATOM     16  C   UNL     1      34.682 -24.114 -13.929  0.00  0.00    +0.062 C 
ATOM     17  C   UNL     1      35.214 -25.285 -14.419  0.00  0.00    +0.017 C 
ATOM     18  H   UNL     1      34.561 -22.206 -14.812  0.00  0.00    +0.152 HD
ENDBRANCH  11  14
BRANCH   6  19
ATOM     19  C   UNL     1      34.786 -19.174 -22.615  0.00  0.00    +0.003 C 
ATOM     20  C   UNL     1      35.108 -17.819 -22.559  0.00  0.00    +0.040 C 
ATOM     21  C   UNL     1      34.372 -19.745 -23.818  0.00  0.00    +0.003 C 
ATOM     22  C   UNL     1      35.016 -17.032 -23.708  0.00  0.00    +0.172 C 
ATOM     23  C   UNL     1      34.280 -18.959 -24.967  0.00  0.00    +0.040 C 
ATOM     24  C   UNL     1      34.602 -17.603 -24.912  0.00  0.00    +0.168 C 
BRANCH  22  25
ATOM     25  O   UNL     1      35.332 -15.709 -23.642  0.00  0.00    -0.468 OA
ATOM     26  C   UNL     1      34.566 -14.903 -22.749  0.00  0.00    +0.253 C 
ENDBRANCH  22  25
BRANCH  24  27
ATOM     27  O   UNL     1      34.509 -16.846 -26.041  0.00  0.00    -0.503 OA
ATOM     28  H   UNL     1      34.745 -15.940 -26.017  0.00  0.00    +0.292 HD
ENDBRANCH  24  27
ENDBRANCH   6  19
TORSDOF 4
ENDMDL
MODEL 2
REMARK VINA RESULT:     -10.6      2.636      9.148
REMARK  Name = 10125830
REMARK  4 active torsions:
REMARK  status: ('A' for Active; 'I' for Inactive)
REMARK    1  A    between atoms: C_6  and  C_19
REMARK    2  A    between atoms: C_11  and  C_14
REMARK    3  A    between atoms: C_22  and  O_25
REMARK    4  A    between atoms: C_24  and  O_27
REMARK                            x       y       z     vdW  Elec       q    Type
REMARK                         _______ _______ _______ _____ _____    ______ ____
ROOT
ATOM      1  O   UNL     1      37.058 -18.744 -22.166  0.00  0.00    -0.270 OA
ATOM      2  N   UNL     1      37.135 -20.104 -20.235  0.00  0.00    -0.280 N 
ATOM      3  C   UNL     1      34.968 -20.871 -20.193  0.00  0.00    +0.018 C 
ATOM      4  C   UNL     1      36.212 -20.905 -19.555  0.00  0.00    +0.051 C 
ATOM      5  C   UNL     1      35.136 -19.989 -21.343  0.00  0.00    +0.056 C 
ATOM      6  C   UNL     1      35.362 -22.380 -17.903  0.00  0.00    +0.001 C 
ATOM      7  C   UNL     1      36.438 -21.649 -18.414  0.00  0.00    +0.015 C 
ATOM      8  C   UNL     1      33.899 -21.592 -19.694  0.00  0.00    +0.001 C 
ATOM      9  C   UNL     1      36.555 -19.499 -21.355  0.00  0.00    +0.250 C 
ATOM     10  C   UNL     1      34.106 -22.352 -18.538  0.00  0.00    +0.000 C 
ATOM     11  C   UNL     1      34.233 -19.641 -22.262  0.00  0.00    +0.019 C 
ATOM     12  H   UNL     1      38.073 -19.982 -19.962  0.00  0.00    +0.155 HD
ENDROOT
BRANCH  11  14
ATOM     13  N   UNL     1      34.752 -17.486 -23.132  0.00  0.00    -0.312 N 
ATOM     14  C   UNL     1      34.412 -18.767 -23.397  0.00  0.00    +0.049 C 
ATOM     15  C   UNL     1      34.308 -18.965 -24.728  0.00  0.00    +0.016 C 
ATOM     16  C   UNL     1      34.876 -16.824 -24.326  0.00  0.00    +0.062 C 
ATOM     17  C   UNL     1      34.604 -17.720 -25.335  0.00  0.00    +0.017 C 
ATOM     18  H   UNL     1      34.887 -17.097 -22.238  0.00  0.00    +0.152 HD
ENDBRANCH  11  14
BRANCH   6  19
ATOM     19  C   UNL     1      35.540 -23.177 -16.709  0.00  0.00    +0.003 C 
ATOM     20  C   UNL     1      36.795 -23.258 -16.107  0.00  0.00    +0.040 C 
ATOM     21  C   UNL     1      34.457 -23.863 -16.161  0.00  0.00    +0.003 C 
ATOM     22  C   UNL     1      36.968 -24.026 -14.955  0.00  0.00    +0.172 C 
ATOM     23  C   UNL     1      34.629 -24.629 -15.008  0.00  0.00    +0.040 C 
ATOM     24  C   UNL     1      35.884 -24.711 -14.405  0.00  0.00    +0.168 C 
BRANCH  22  25
ATOM     25  O   UNL     1      38.198 -24.098 -14.375  0.00  0.00    -0.468 OA
ATOM     26  C   UNL     1      39.063 -25.142 -14.817  0.00  0.00    +0.253 C 
ENDBRANCH  22  25
BRANCH  24  27
ATOM     27  O   UNL     1      36.039 -25.463 -13.280  0.00  0.00    -0.503 OA
ATOM     28  H   UNL     1      36.738 -25.277 -12.685  0.00  0.00    +0.292 HD
ENDBRANCH  24  27
ENDBRANCH   6  19
TORSDOF 4
ENDMDL
MODEL 3
REMARK VINA RESULT:     -10.2      1.366      2.189
REMARK  Name = 10125830
REMARK  4 active torsions:
REMARK  status: ('A' for Active; 'I' for Inactive)
REMARK    1  A    between atoms: C_6  and  C_19
REMARK    2  A    between atoms: C_11  and  C_14
REMARK    3  A    between atoms: C_22  and  O_25
REMARK    4  A    between atoms: C_24  and  O_27
REMARK                            x       y       z     vdW  Elec       q    Type
REMARK                         _______ _______ _______ _____ _____    ______ ____
ROOT
ATOM      1  O   UNL     1      34.534 -23.473 -17.282  0.00  0.00    -0.270 OA
ATOM      2  N   UNL     1      34.184 -22.150 -19.207  0.00  0.00    -0.280 N 
ATOM      3  C   UNL     1      36.174 -21.000 -19.277  0.00  0.00    +0.018 C 
ATOM      4  C   UNL     1      34.936 -21.192 -19.897  0.00  0.00    +0.051 C 
ATOM      5  C   UNL     1      36.186 -21.899 -18.128  0.00  0.00    +0.056 C 
ATOM      6  C   UNL     1      35.480 -19.586 -21.555  0.00  0.00    +0.001 C 
ATOM      7  C   UNL     1      34.563 -20.502 -21.033  0.00  0.00    +0.015 C 
ATOM      8  C   UNL     1      37.086 -20.095 -19.787  0.00  0.00    +0.001 C 
ATOM      9  C   UNL     1      34.881 -22.641 -18.099  0.00  0.00    +0.250 C 
ATOM     10  C   UNL     1      36.729 -19.385 -20.938  0.00  0.00    +0.000 C 
ATOM     11  C   UNL     1      37.153 -22.083 -17.226  0.00  0.00    +0.019 C 
ATOM     12  H   UNL     1      33.281 -22.440 -19.470  0.00  0.00    +0.155 HD
ENDROOT
BRANCH  11  14
ATOM     13  N   UNL     1      36.199 -22.775 -15.157  0.00  0.00    -0.312 N 
ATOM     14  C   UNL     1      37.153 -22.978 -16.093  0.00  0.00    +0.049 C 
ATOM     15  C   UNL     1      37.938 -24.022 -15.754  0.00  0.00    +0.016 C 
ATOM     16  C   UNL     1      36.363 -23.716 -14.174  0.00  0.00    +0.062 C 
ATOM     17  C   UNL     1      37.438 -24.504 -14.519  0.00  0.00    +0.017 C 
ATOM     18  H   UNL     1      35.508 -22.074 -15.178  0.00  0.00    +0.152 HD
ENDBRANCH  11  14
BRANCH   6  19
ATOM     19  C   UNL     1      35.143 -18.834 -22.745  0.00  0.00    +0.003 C 
ATOM     20  C   UNL     1      34.473 -19.458 -23.797  0.00  0.00    +0.040 C 
ATOM     21  C   UNL     1      35.488 -17.486 -22.838  0.00  0.00    +0.003 C 
ATOM     22  C   UNL     1      34.148 -18.733 -24.943  0.00  0.00    +0.172 C 
ATOM     23  C   UNL     1      35.161 -16.761 -23.984  0.00  0.00    +0.040 C 
ATOM     24  C   UNL     1      34.492 -17.385 -25.037  0.00  0.00    +0.168 C 
BRANCH  22  25
ATOM     25  O   UNL     1      33.494 -19.353 -25.965  0.00  0.00    -0.468 OA
ATOM     26  C   UNL     1      32.069 -19.352 -25.918  0.00  0.00    +0.253 C 
ENDBRANCH  22  25
BRANCH  24  27
ATOM     27  O   UNL     1      34.179 -16.666 -26.151  0.00  0.00    -0.503 OA
ATOM     28  H   UNL     1      33.420 -16.117 -26.156  0.00  0.00    +0.292 HD
ENDBRANCH  24  27
ENDBRANCH   6  19
TORSDOF 4
ENDMDL
MODEL 4
REMARK VINA RESULT:     -10.0      2.322      9.091
REMARK  Name = 10125830
REMARK  4 active torsions:
REMARK  status: ('A' for Active; 'I' for Inactive)
REMARK    1  A    between atoms: C_6  and  C_19
REMARK    2  A    between atoms: C_11  and  C_14
REMARK    3  A    between atoms: C_22  and  O_25
REMARK    4  A    between atoms: C_24  and  O_27
REMARK                            x       y       z     vdW  Elec       q    Type
REMARK                         _______ _______ _______ _____ _____    ______ ____
ROOT
ATOM      1  O   UNL     1      32.592 -20.133 -21.758  0.00  0.00    -0.270 OA
ATOM      2  N   UNL     1      32.965 -21.347 -19.765  0.00  0.00    -0.280 N 
ATOM      3  C   UNL     1      35.255 -21.197 -19.622  0.00  0.00    +0.018 C 
ATOM      4  C   UNL     1      34.096 -21.698 -19.021  0.00  0.00    +0.051 C 
ATOM      5  C   UNL     1      34.808 -20.490 -20.817  0.00  0.00    +0.056 C 
ATOM      6  C   UNL     1      35.379 -22.662 -17.274  0.00  0.00    +0.001 C 
ATOM      7  C   UNL     1      34.127 -22.430 -17.851  0.00  0.00    +0.015 C 
ATOM      8  C   UNL     1      36.496 -21.422 -19.057  0.00  0.00    +0.001 C 
ATOM      9  C   UNL     1      33.313 -20.598 -20.895  0.00  0.00    +0.250 C 
ATOM     10  C   UNL     1      36.552 -22.162 -17.872  0.00  0.00    +0.000 C 
ATOM     11  C   UNL     1      35.543 -19.839 -21.722  0.00  0.00    +0.019 C 
ATOM     12  H   UNL     1      32.043 -21.595 -19.525  0.00  0.00    +0.155 HD
ENDROOT
BRANCH  11  14
ATOM     13  N   UNL     1      34.636 -19.905 -23.922  0.00  0.00    -0.312 N 
ATOM     14  C   UNL     1      35.088 -19.143 -22.902  0.00  0.00    +0.049 C 
ATOM     15  C   UNL     1      35.013 -17.833 -23.217  0.00  0.00    +0.016 C 
ATOM     16  C   UNL     1      34.252 -19.069 -24.938  0.00  0.00    +0.062 C 
ATOM     17  C   UNL     1      34.477 -17.774 -24.527  0.00  0.00    +0.017 C 
ATOM     18  H   UNL     1      34.591 -20.888 -23.934  0.00  0.00    +0.152 HD
ENDBRANCH  11  14
BRANCH   6  19
ATOM     19  C   UNL     1      35.472 -23.425 -16.048  0.00  0.00    +0.003 C 
ATOM     20  C   UNL     1      34.332 -23.644 -15.275  0.00  0.00    +0.040 C 
ATOM     21  C   UNL     1      36.702 -23.940 -15.640  0.00  0.00    +0.003 C 
ATOM     22  C   UNL     1      34.422 -24.379 -14.093  0.00  0.00    +0.172 C 
ATOM     23  C   UNL     1      36.792 -24.677 -14.459  0.00  0.00    +0.040 C 
ATOM     24  C   UNL     1      35.652 -24.896 -13.685  0.00  0.00    +0.168 C 
BRANCH  22  25
ATOM     25  O   UNL     1      33.302 -24.586 -13.346  0.00  0.00    -0.468 OA
ATOM     26  C   UNL     1      32.136 -25.031 -14.036  0.00  0.00    +0.253 C 
ENDBRANCH  22  25
BRANCH  24  27
ATOM     27  O   UNL     1      35.752 -25.616 -12.533  0.00  0.00    -0.503 OA
ATOM     28  H   UNL     1      35.063 -25.584 -11.900  0.00  0.00    +0.292 HD
ENDBRANCH  24  27
ENDBRANCH   6  19
TORSDOF 4
ENDMDL
MODEL 5
REMARK VINA RESULT:      -9.9      6.194     11.889
REMARK  Name = 10125830
REMARK  4 active torsions:
REMARK  status: ('A' for Active; 'I' for Inactive)
REMARK    1  A    between atoms: C_6  and  C_19
REMARK    2  A    between atoms: C_11  and  C_14
REMARK    3  A    between atoms: C_22  and  O_25
REMARK    4  A    between atoms: C_24  and  O_27
REMARK                            x       y       z     vdW  Elec       q    Type
REMARK                         _______ _______ _______ _____ _____    ______ ____
ROOT
ATOM      1  O   UNL     1      31.555  -9.216 -20.975  0.00  0.00    -0.270 OA
ATOM      2  N   UNL     1      32.126 -11.433 -21.558  0.00  0.00    -0.280 N 
ATOM      3  C   UNL     1      33.053 -11.081 -23.632  0.00  0.00    +0.018 C 
ATOM      4  C   UNL     1      32.727 -12.038 -22.667  0.00  0.00    +0.051 C 
ATOM      5  C   UNL     1      32.624  -9.800 -23.082  0.00  0.00    +0.056 C 
ATOM      6  C   UNL     1      33.602 -13.766 -24.036  0.00  0.00    +0.001 C 
ATOM      7  C   UNL     1      32.989 -13.383 -22.841  0.00  0.00    +0.015 C 
ATOM      8  C   UNL     1      33.659 -11.453 -24.818  0.00  0.00    +0.001 C 
ATOM      9  C   UNL     1      32.022 -10.049 -21.729  0.00  0.00    +0.250 C 
ATOM     10  C   UNL     1      33.934 -12.810 -25.015  0.00  0.00    +0.000 C 
ATOM     11  C   UNL     1      32.722  -8.586 -23.628  0.00  0.00    +0.019 C 
ATOM     12  H   UNL     1      31.816 -11.919 -20.760  0.00  0.00    +0.155 HD
ENDROOT
BRANCH  11  14
ATOM     13  N   UNL     1      30.968  -7.062 -23.108  0.00  0.00    -0.312 N 
ATOM     14  C   UNL     1      32.293  -7.324 -23.072  0.00  0.00    +0.049 C 
ATOM     15  C   UNL     1      32.964  -6.305 -22.497  0.00  0.00    +0.016 C 
ATOM     16  C   UNL     1      30.763  -5.832 -22.538  0.00  0.00    +0.062 C 
ATOM     17  C   UNL     1      31.988  -5.338 -22.150  0.00  0.00    +0.017 C 
ATOM     18  H   UNL     1      30.272  -7.651 -23.480  0.00  0.00    +0.152 HD
ENDBRANCH  11  14
BRANCH   6  19
ATOM     19  C   UNL     1      33.900 -15.162 -24.273  0.00  0.00    +0.003 C 
ATOM     20  C   UNL     1      34.725 -15.858 -23.390  0.00  0.00    +0.040 C 
ATOM     21  C   UNL     1      33.361 -15.811 -25.384  0.00  0.00    +0.003 C 
ATOM     22  C   UNL     1      35.012 -17.204 -23.617  0.00  0.00    +0.172 C 
ATOM     23  C   UNL     1      33.647 -17.157 -25.611  0.00  0.00    +0.040 C 
ATOM     24  C   UNL     1      34.473 -17.854 -24.728  0.00  0.00    +0.168 C 
BRANCH  22  25
ATOM     25  O   UNL     1      35.819 -17.873 -22.748  0.00  0.00    -0.468 OA
ATOM     26  C   UNL     1      35.479 -17.808 -21.365  0.00  0.00    +0.253 C 
ENDBRANCH  22  25
BRANCH  24  27
ATOM     27  O   UNL     1      34.745 -19.168 -24.961  0.00  0.00    -0.503 OA
ATOM     28  H   UNL     1      34.930 -19.460 -25.831  0.00  0.00    +0.292 HD
ENDBRANCH  24  27
ENDBRANCH   6  19
TORSDOF 4
ENDMDL
MODEL 6
REMARK VINA RESULT:      -9.9      6.514     12.167
REMARK  Name = 10125830
REMARK  4 active torsions:
REMARK  status: ('A' for Active; 'I' for Inactive)
REMARK    1  A    between atoms: C_6  and  C_19
REMARK    2  A    between atoms: C_11  and  C_14
REMARK    3  A    between atoms: C_22  and  O_25
REMARK    4  A    between atoms: C_24  and  O_27
REMARK                            x       y       z     vdW  Elec       q    Type
REMARK                         _______ _______ _______ _____ _____    ______ ____
ROOT
ATOM      1  O   UNL     1      33.788  -7.662 -23.855  0.00  0.00    -0.270 OA
ATOM      2  N   UNL     1      34.243  -9.943 -24.271  0.00  0.00    -0.280 N 
ATOM      3  C   UNL     1      32.775 -10.924 -22.799  0.00  0.00    +0.018 C 
ATOM      4  C   UNL     1      33.756 -11.154 -23.768  0.00  0.00    +0.051 C 
ATOM      5  C   UNL     1      32.649  -9.474 -22.697  0.00  0.00    +0.056 C 
ATOM      6  C   UNL     1      33.521 -13.499 -23.499  0.00  0.00    +0.001 C 
ATOM      7  C   UNL     1      34.147 -12.426 -24.138  0.00  0.00    +0.015 C 
ATOM      8  C   UNL     1      32.151 -11.981 -22.163  0.00  0.00    +0.001 C 
ATOM      9  C   UNL     1      33.613  -8.851 -23.665  0.00  0.00    +0.250 C 
ATOM     10  C   UNL     1      32.532 -13.278 -22.521  0.00  0.00    +0.000 C 
ATOM     11  C   UNL     1      31.839  -8.763 -21.910  0.00  0.00    +0.019 C 
ATOM     12  H   UNL     1      34.939  -9.869 -24.964  0.00  0.00    +0.155 HD
ENDROOT
BRANCH  11  14
ATOM     13  N   UNL     1      30.968  -6.717 -22.759  0.00  0.00    -0.312 N 
ATOM     14  C   UNL     1      31.723  -7.327 -21.819  0.00  0.00    +0.049 C 
ATOM     15  C   UNL     1      32.230  -6.423 -20.955  0.00  0.00    +0.016 C 
ATOM     16  C   UNL     1      30.979  -5.370 -22.503  0.00  0.00    +0.062 C 
ATOM     17  C   UNL     1      31.757  -5.159 -21.388  0.00  0.00    +0.017 C 
ATOM     18  H   UNL     1      30.493  -7.161 -23.498  0.00  0.00    +0.152 HD
ENDBRANCH  11  14
BRANCH   6  19
ATOM     19  C   UNL     1      33.892 -14.854 -23.845  0.00  0.00    +0.003 C 
ATOM     20  C   UNL     1      34.746 -15.576 -23.013  0.00  0.00    +0.040 C 
ATOM     21  C   UNL     1      33.394 -15.436 -25.010  0.00  0.00    +0.003 C 
ATOM     22  C   UNL     1      35.103 -16.883 -23.346  0.00  0.00    +0.172 C 
ATOM     23  C   UNL     1      33.750 -16.743 -25.343  0.00  0.00    +0.040 C 
ATOM     24  C   UNL     1      34.605 -17.467 -24.511  0.00  0.00    +0.168 C 
BRANCH  22  25
ATOM     25  O   UNL     1      35.939 -17.579 -22.526  0.00  0.00    -0.468 OA
ATOM     26  C   UNL     1      35.464 -17.873 -21.214  0.00  0.00    +0.253 C 
ENDBRANCH  22  25
BRANCH  24  27
ATOM     27  O   UNL     1      34.946 -18.742 -24.847  0.00  0.00    -0.503 OA
ATOM     28  H   UNL     1      35.480 -19.251 -24.270  0.00  0.00    +0.292 HD
ENDBRANCH  24  27
ENDBRANCH   6  19
TORSDOF 4
ENDMDL
MODEL 7
REMARK VINA RESULT:      -9.7      6.765     11.896
REMARK  Name = 10125830
REMARK  4 active torsions:
REMARK  status: ('A' for Active; 'I' for Inactive)
REMARK    1  A    between atoms: C_6  and  C_19
REMARK    2  A    between atoms: C_11  and  C_14
REMARK    3  A    between atoms: C_22  and  O_25
REMARK    4  A    between atoms: C_24  and  O_27
REMARK                            x       y       z     vdW  Elec       q    Type
REMARK                         _______ _______ _______ _____ _____    ______ ____
ROOT
ATOM      1  O   UNL     1      31.214  -9.225 -21.066  0.00  0.00    -0.270 OA
ATOM      2  N   UNL     1      31.977 -11.438 -21.391  0.00  0.00    -0.280 N 
ATOM      3  C   UNL     1      33.101 -11.191 -23.381  0.00  0.00    +0.018 C 
ATOM      4  C   UNL     1      32.730 -12.087 -22.375  0.00  0.00    +0.051 C 
ATOM      5  C   UNL     1      32.538  -9.902 -22.992  0.00  0.00    +0.056 C 
ATOM      6  C   UNL     1      33.850 -13.856 -23.491  0.00  0.00    +0.001 C 
ATOM      7  C   UNL     1      33.089 -13.420 -22.403  0.00  0.00    +0.015 C 
ATOM      8  C   UNL     1      33.853 -11.614 -24.461  0.00  0.00    +0.001 C 
ATOM      9  C   UNL     1      31.810 -10.082 -21.692  0.00  0.00    +0.250 C 
ATOM     10  C   UNL     1      34.228 -12.961 -24.510  0.00  0.00    +0.000 C 
ATOM     11  C   UNL     1      32.622  -8.732 -23.629  0.00  0.00    +0.019 C 
ATOM     12  H   UNL     1      31.612 -11.878 -20.590  0.00  0.00    +0.155 HD
ENDROOT
BRANCH  11  14
ATOM     13  N   UNL     1      32.759  -6.746 -22.323  0.00  0.00    -0.312 N 
ATOM     14  C   UNL     1      32.061  -7.462 -23.233  0.00  0.00    +0.049 C 
ATOM     15  C   UNL     1      30.939  -6.807 -23.595  0.00  0.00    +0.016 C 
ATOM     16  C   UNL     1      32.072  -5.584 -22.082  0.00  0.00    +0.062 C 
ATOM     17  C   UNL     1      30.936  -5.596 -22.858  0.00  0.00    +0.017 C 
ATOM     18  H   UNL     1      33.610  -7.012 -21.907  0.00  0.00    +0.152 HD
ENDBRANCH  11  14
BRANCH   6  19
ATOM     19  C   UNL     1      34.254 -15.242 -23.573  0.00  0.00    +0.003 C 
ATOM     20  C   UNL     1      33.949 -15.990 -24.709  0.00  0.00    +0.040 C 
ATOM     21  C   UNL     1      34.949 -15.829 -22.516  0.00  0.00    +0.003 C 
ATOM     22  C   UNL     1      34.340 -17.327 -24.789  0.00  0.00    +0.172 C 
ATOM     23  C   UNL     1      35.341 -17.166 -22.596  0.00  0.00    +0.040 C 
ATOM     24  C   UNL     1      35.036 -17.915 -23.733  0.00  0.00    +0.168 C 
BRANCH  22  25
ATOM     25  O   UNL     1      34.036 -18.049 -25.904  0.00  0.00    -0.468 OA
ATOM     26  C   UNL     1      32.841 -18.826 -25.868  0.00  0.00    +0.253 C 
ENDBRANCH  22  25
BRANCH  24  27
ATOM     27  O   UNL     1      35.423 -19.219 -23.799  0.00  0.00    -0.503 OA
ATOM     28  H   UNL     1      34.984 -19.865 -23.282  0.00  0.00    +0.292 HD
ENDBRANCH  24  27
ENDBRANCH   6  19
TORSDOF 4
ENDMDL
MODEL 8
REMARK VINA RESULT:      -9.4      2.498      9.124
REMARK  Name = 10125830
REMARK  4 active torsions:
REMARK  status: ('A' for Active; 'I' for Inactive)
REMARK    1  A    between atoms: C_6  and  C_19
REMARK    2  A    between atoms: C_11  and  C_14
REMARK    3  A    between atoms: C_22  and  O_25
REMARK    4  A    between atoms: C_24  and  O_27
REMARK                            x       y       z     vdW  Elec       q    Type
REMARK                         _______ _______ _______ _____ _____    ______ ____
ROOT
ATOM      1  O   UNL     1      36.953 -18.418 -22.382  0.00  0.00    -0.270 OA
ATOM      2  N   UNL     1      37.242 -19.664 -20.396  0.00  0.00    -0.280 N 
ATOM      3  C   UNL     1      35.231 -20.775 -20.318  0.00  0.00    +0.018 C 
ATOM      4  C   UNL     1      36.459 -20.577 -19.681  0.00  0.00    +0.051 C 
ATOM      5  C   UNL     1      35.257 -19.927 -21.505  0.00  0.00    +0.056 C 
ATOM      6  C   UNL     1      35.854 -22.101 -17.967  0.00  0.00    +0.001 C 
ATOM      7  C   UNL     1      36.797 -21.225 -18.509  0.00  0.00    +0.015 C 
ATOM      8  C   UNL     1      34.292 -21.640 -19.787  0.00  0.00    +0.001 C 
ATOM      9  C   UNL     1      36.576 -19.211 -21.539  0.00  0.00    +0.250 C 
ATOM     10  C   UNL     1      34.614 -22.307 -18.600  0.00  0.00    +0.000 C 
ATOM     11  C   UNL     1      34.315 -19.771 -22.437  0.00  0.00    +0.019 C 
ATOM     12  H   UNL     1      38.145 -19.378 -20.128  0.00  0.00    +0.155 HD
ENDROOT
BRANCH  11  14
ATOM     13  N   UNL     1      34.749 -17.649 -23.425  0.00  0.00    -0.312 N 
ATOM     14  C   UNL     1      34.354 -18.928 -23.608  0.00  0.00    +0.049 C 
ATOM     15  C   UNL     1      34.068 -19.156 -24.907  0.00  0.00    +0.016 C 
ATOM     16  C   UNL     1      34.722 -17.018 -24.642  0.00  0.00    +0.062 C 
ATOM     17  C   UNL     1      34.301 -17.932 -25.581  0.00  0.00    +0.017 C 
ATOM     18  H   UNL     1      35.010 -17.241 -22.567  0.00  0.00    +0.152 HD
ENDBRANCH  11  14
BRANCH   6  19
ATOM     19  C   UNL     1      36.154 -22.806 -16.740  0.00  0.00    +0.003 C 
ATOM     20  C   UNL     1      35.118 -23.214 -15.900  0.00  0.00    +0.040 C 
ATOM     21  C   UNL     1      37.478 -23.078 -16.397  0.00  0.00    +0.003 C 
ATOM     22  C   UNL     1      35.406 -23.895 -14.717  0.00  0.00    +0.172 C 
ATOM     23  C   UNL     1      37.766 -23.760 -15.215  0.00  0.00    +0.040 C 
ATOM     24  C   UNL     1      36.731 -24.168 -14.375  0.00  0.00    +0.168 C 
BRANCH  22  25
ATOM     25  O   UNL     1      34.386 -24.288 -13.905  0.00  0.00    -0.468 OA
ATOM     26  C   UNL     1      33.105 -24.457 -14.507  0.00  0.00    +0.253 C 
ENDBRANCH  22  25
BRANCH  24  27
ATOM     27  O   UNL     1      37.025 -24.833 -13.223  0.00  0.00    -0.503 OA
ATOM     28  H   UNL     1      36.376 -25.368 -12.812  0.00  0.00    +0.292 HD
ENDBRANCH  24  27
ENDBRANCH   6  19
TORSDOF 4
ENDMDL
MODEL 9
REMARK VINA RESULT:      -8.8      7.930     12.492
REMARK  Name = 10125830
REMARK  4 active torsions:
REMARK  status: ('A' for Active; 'I' for Inactive)
REMARK    1  A    between atoms: C_6  and  C_19
REMARK    2  A    between atoms: C_11  and  C_14
REMARK    3  A    between atoms: C_22  and  O_25
REMARK    4  A    between atoms: C_24  and  O_27
REMARK                            x       y       z     vdW  Elec       q    Type
REMARK                         _______ _______ _______ _____ _____    ______ ____
ROOT
ATOM      1  O   UNL     1      32.120 -13.758 -21.726  0.00  0.00    -0.270 OA
ATOM      2  N   UNL     1      31.561 -11.463 -21.682  0.00  0.00    -0.280 N 
ATOM      3  C   UNL     1      33.058 -10.651 -23.226  0.00  0.00    +0.018 C 
ATOM      4  C   UNL     1      32.026 -10.321 -22.342  0.00  0.00    +0.051 C 
ATOM      5  C   UNL     1      33.242 -12.093 -23.101  0.00  0.00    +0.056 C 
ATOM      6  C   UNL     1      32.185  -8.036 -22.956  0.00  0.00    +0.001 C 
ATOM      7  C   UNL     1      31.570  -9.027 -22.188  0.00  0.00    +0.015 C 
ATOM      8  C   UNL     1      33.672  -9.675 -23.989  0.00  0.00    +0.001 C 
ATOM      9  C   UNL     1      32.257 -12.605 -22.090  0.00  0.00    +0.250 C 
ATOM     10  C   UNL     1      33.225  -8.357 -23.849  0.00  0.00    +0.000 C 
ATOM     11  C   UNL     1      34.109 -12.879 -23.743  0.00  0.00    +0.019 C 
ATOM     12  H   UNL     1      30.836 -11.463 -21.015  0.00  0.00    +0.155 HD
ENDROOT
BRANCH  11  14
ATOM     13  N   UNL     1      34.839 -14.748 -22.462  0.00  0.00    -0.312 N 
ATOM     14  C   UNL     1      34.281 -14.306 -23.611  0.00  0.00    +0.049 C 
ATOM     15  C   UNL     1      33.989 -15.340 -24.427  0.00  0.00    +0.016 C 
ATOM     16  C   UNL     1      34.915 -16.116 -22.526  0.00  0.00    +0.062 C 
ATOM     17  C   UNL     1      34.394 -16.510 -23.738  0.00  0.00    +0.017 C 
ATOM     18  H   UNL     1      35.139 -14.187 -21.711  0.00  0.00    +0.152 HD
ENDBRANCH  11  14
BRANCH   6  19
ATOM     19  C   UNL     1      31.748  -6.661 -22.835  0.00  0.00    +0.003 C 
ATOM     20  C   UNL     1      32.161  -5.715 -23.772  0.00  0.00    +0.040 C 
ATOM     21  C   UNL     1      30.915  -6.285 -21.783  0.00  0.00    +0.003 C 
ATOM     22  C   UNL     1      31.740  -4.390 -23.657  0.00  0.00    +0.172 C 
ATOM     23  C   UNL     1      30.493  -4.960 -21.667  0.00  0.00    +0.040 C 
ATOM     24  C   UNL     1      30.906  -4.013 -22.604  0.00  0.00    +0.168 C 
BRANCH  22  25
ATOM     25  O   UNL     1      32.150  -3.473 -24.577  0.00  0.00    -0.468 OA
ATOM     26  C   UNL     1      32.682  -3.977 -25.801  0.00  0.00    +0.253 C 
ENDBRANCH  22  25
BRANCH  24  27
ATOM     27  O   UNL     1      30.487  -2.722 -22.481  0.00  0.00    -0.503 OA
ATOM     28  H   UNL     1      29.992  -2.323 -23.168  0.00  0.00    +0.292 HD
ENDBRANCH  24  27
ENDBRANCH   6  19
TORSDOF 4
ENDMDL
