MODEL 1
REMARK VINA RESULT:     -11.0      0.000      0.000
REMARK  Name = 11689883
REMARK  5 active torsions:
REMARK  status: ('A' for Active; 'I' for Inactive)
REMARK    1  A    between atoms: C_2  and  C_21
REMARK    2  A    between atoms: C_5  and  N_9
REMARK    3  A    between atoms: N_10  and  C_15
REMARK    4  A    between atoms: C_21  and  N_23
REMARK    5  A    between atoms: C_29  and  O_31
REMARK                            x       y       z     vdW  Elec       q    Type
REMARK                         _______ _______ _______ _____ _____    ______ ____
ROOT
ATOM      1  F   UNL     1      35.718 -17.092 -21.700  0.00  0.00    -0.203 F 
ATOM      2  C   UNL     1      34.772 -16.638 -23.825  0.00  0.00    -0.014 C 
ATOM      3  C   UNL     1      35.183 -17.535 -22.849  0.00  0.00    +0.147 C 
ATOM      4  C   UNL     1      34.216 -17.084 -25.016  0.00  0.00    -0.004 C 
ATOM      5  C   UNL     1      35.036 -18.905 -23.068  0.00  0.00    +0.079 C 
ATOM      6  C   UNL     1      34.069 -18.454 -25.236  0.00  0.00    +0.001 C 
ATOM      7  C   UNL     1      34.479 -19.364 -24.262  0.00  0.00    +0.017 C 
ENDROOT
BRANCH   5   9
ATOM      8  O   UNL     1      33.556 -20.012 -20.722  0.00  0.00    -0.252 OA
ATOM      9  N   UNL     1      35.445 -19.817 -22.095  0.00  0.00    -0.266 N 
ATOM     10  N   UNL     1      35.504 -21.222 -20.262  0.00  0.00    -0.267 N 
ATOM     11  C   UNL     1      34.712 -20.322 -20.993  0.00  0.00    +0.308 C 
ATOM     12  H   UNL     1      36.365 -20.156 -22.186  0.00  0.00    +0.156 HD
ATOM     13  H   UNL     1      36.416 -21.370 -20.603  0.00  0.00    +0.156 HD
BRANCH  10  15
ATOM     14  N   UNL     1      35.812 -22.823 -16.964  0.00  0.00    -0.247 NA
ATOM     15  C   UNL     1      35.153 -21.942 -19.096  0.00  0.00    +0.071 C 
ATOM     16  C   UNL     1      33.879 -22.448 -18.948  0.00  0.00    +0.018 C 
ATOM     17  C   UNL     1      36.080 -22.144 -18.101  0.00  0.00    +0.113 C 
ATOM     18  C   UNL     1      33.564 -23.152 -17.791  0.00  0.00    +0.016 C 
ATOM     19  C   UNL     1      34.557 -23.311 -16.839  0.00  0.00    +0.059 C 
ATOM     20  C   UNL     1      34.254 -24.062 -15.585  0.00  0.00    +0.052 C 
ENDBRANCH  10  15
ENDBRANCH   5   9
BRANCH   2  21
ATOM     21  C   UNL     1      34.929 -15.159 -23.592  0.00  0.00    -0.047 C 
BRANCH  21  23
ATOM     22  O   UNL     1      31.827 -11.213 -19.859  0.00  0.00    -0.226 OA
ATOM     23  N   UNL     1      33.718 -14.566 -23.025  0.00  0.00    +0.392 N 
ATOM     24  N   UNL     1      32.171 -12.534 -21.739  0.00  0.00    -0.250 N 
ATOM     25  C   UNL     1      33.904 -14.283 -21.594  0.00  0.00    -0.055 C 
ATOM     26  C   UNL     1      33.357 -13.338 -23.750  0.00  0.00    -0.055 C 
ATOM     27  C   UNL     1      32.629 -13.699 -20.987  0.00  0.00    +0.074 C 
ATOM     28  C   UNL     1      32.071 -12.730 -23.187  0.00  0.00    +0.074 C 
ATOM     29  C   UNL     1      31.745 -11.382 -21.075  0.00  0.00    +0.405 C 
ATOM     30  H   UNL     1      32.956 -15.236 -23.124  0.00  0.00    -0.079 HD
BRANCH  29  31
ATOM     31  O   UNL     1      31.218 -10.446 -21.925  0.00  0.00    -0.430 OA
ATOM     32  C   UNL     1      31.850  -9.161 -21.918  0.00  0.00    +0.257 C 
ENDBRANCH  29  31
ENDBRANCH  21  23
ENDBRANCH   2  21
TORSDOF 5
ENDMDL
MODEL 2
REMARK VINA RESULT:     -10.9      2.022      9.742
REMARK  Name = 11689883
REMARK  5 active torsions:
REMARK  status: ('A' for Active; 'I' for Inactive)
REMARK    1  A    between atoms: C_2  and  C_21
REMARK    2  A    between atoms: C_5  and  N_9
REMARK    3  A    between atoms: N_10  and  C_15
REMARK    4  A    between atoms: C_21  and  N_23
REMARK    5  A    between atoms: C_29  and  O_31
REMARK                            x       y       z     vdW  Elec       q    Type
REMARK                         _______ _______ _______ _____ _____    ______ ____
ROOT
ATOM      1  F   UNL     1      35.713 -16.206 -22.080  0.00  0.00    -0.203 F 
ATOM      2  C   UNL     1      35.215 -18.402 -22.816  0.00  0.00    -0.014 C 
ATOM      3  C   UNL     1      35.193 -17.028 -23.005  0.00  0.00    +0.147 C 
ATOM      4  C   UNL     1      34.682 -19.262 -23.767  0.00  0.00    -0.004 C 
ATOM      5  C   UNL     1      34.626 -16.502 -24.166  0.00  0.00    +0.079 C 
ATOM      6  C   UNL     1      34.114 -18.737 -24.927  0.00  0.00    +0.001 C 
ATOM      7  C   UNL     1      34.086 -17.357 -25.127  0.00  0.00    +0.017 C 
ENDROOT
BRANCH   5   9
ATOM      8  O   UNL     1      33.283 -14.353 -22.586  0.00  0.00    -0.252 OA
ATOM      9  N   UNL     1      34.596 -15.122 -24.368  0.00  0.00    -0.266 N 
ATOM     10  N   UNL     1      34.172 -12.861 -24.152  0.00  0.00    -0.267 N 
ATOM     11  C   UNL     1      33.945 -14.129 -23.594  0.00  0.00    +0.308 C 
ATOM     12  H   UNL     1      35.092 -14.793 -25.152  0.00  0.00    +0.156 HD
ATOM     13  H   UNL     1      34.727 -12.840 -24.965  0.00  0.00    +0.156 HD
BRANCH  10  15
ATOM     14  N   UNL     1      32.139 -10.385 -22.343  0.00  0.00    -0.247 NA
ATOM     15  C   UNL     1      33.703 -11.609 -23.689  0.00  0.00    +0.071 C 
ATOM     16  C   UNL     1      34.310 -10.443 -24.103  0.00  0.00    +0.018 C 
ATOM     17  C   UNL     1      32.638 -11.547 -22.822  0.00  0.00    +0.113 C 
ATOM     18  C   UNL     1      33.826  -9.227 -23.631  0.00  0.00    +0.016 C 
ATOM     19  C   UNL     1      32.748  -9.253 -22.761  0.00  0.00    +0.059 C 
ATOM     20  C   UNL     1      32.202  -7.967 -22.235  0.00  0.00    +0.052 C 
ENDBRANCH  10  15
ENDBRANCH   5   9
BRANCH   2  21
ATOM     21  C   UNL     1      35.827 -18.973 -21.565  0.00  0.00    -0.047 C 
BRANCH  21  23
ATOM     22  O   UNL     1      34.256 -23.436 -17.473  0.00  0.00    -0.226 OA
ATOM     23  N   UNL     1      35.194 -20.232 -21.174  0.00  0.00    +0.392 N 
ATOM     24  N   UNL     1      34.014 -22.100 -19.359  0.00  0.00    -0.250 N 
ATOM     25  C   UNL     1      36.027 -20.948 -20.197  0.00  0.00    -0.055 C 
ATOM     26  C   UNL     1      33.852 -19.986 -20.625  0.00  0.00    -0.055 C 
ATOM     27  C   UNL     1      35.390 -22.282 -19.814  0.00  0.00    +0.074 C 
ATOM     28  C   UNL     1      33.167 -21.300 -20.246  0.00  0.00    +0.074 C 
ATOM     29  C   UNL     1      33.548 -22.764 -18.222  0.00  0.00    +0.405 C 
ATOM     30  H   UNL     1      35.100 -20.816 -22.005  0.00  0.00    -0.079 HD
BRANCH  29  31
ATOM     31  O   UNL     1      32.204 -22.591 -18.023  0.00  0.00    -0.430 OA
ATOM     32  C   UNL     1      31.669 -23.144 -16.815  0.00  0.00    +0.257 C 
ENDBRANCH  29  31
ENDBRANCH  21  23
ENDBRANCH   2  21
TORSDOF 5
ENDMDL
MODEL 3
REMARK VINA RESULT:     -10.8      3.915     11.316
REMARK  Name = 11689883
REMARK  5 active torsions:
REMARK  status: ('A' for Active; 'I' for Inactive)
REMARK    1  A    between atoms: C_2  and  C_21
REMARK    2  A    between atoms: C_5  and  N_9
REMARK    3  A    between atoms: N_10  and  C_15
REMARK    4  A    between atoms: C_21  and  N_23
REMARK    5  A    between atoms: C_29  and  O_31
REMARK                            x       y       z     vdW  Elec       q    Type
REMARK                         _______ _______ _______ _____ _____    ______ ____
ROOT
ATOM      1  F   UNL     1      37.191 -21.151 -18.882  0.00  0.00    -0.203 F 
ATOM      2  C   UNL     1      35.694 -22.418 -17.553  0.00  0.00    -0.014 C 
ATOM      3  C   UNL     1      35.988 -21.724 -18.717  0.00  0.00    +0.147 C 
ATOM      4  C   UNL     1      34.454 -23.016 -17.372  0.00  0.00    -0.004 C 
ATOM      5  C   UNL     1      35.024 -21.624 -19.721  0.00  0.00    +0.079 C 
ATOM      6  C   UNL     1      33.490 -22.916 -18.374  0.00  0.00    +0.001 C 
ATOM      7  C   UNL     1      33.774 -22.220 -19.549  0.00  0.00    +0.017 C 
ENDROOT
BRANCH   5   9
ATOM      8  O   UNL     1      33.525 -19.413 -21.057  0.00  0.00    -0.252 OA
ATOM      9  N   UNL     1      35.306 -20.928 -20.896  0.00  0.00    -0.266 N 
ATOM     10  N   UNL     1      35.209 -19.462 -22.680  0.00  0.00    -0.267 N 
ATOM     11  C   UNL     1      34.569 -19.880 -21.502  0.00  0.00    +0.308 C 
ATOM     12  H   UNL     1      36.126 -21.200 -21.369  0.00  0.00    +0.156 HD
ATOM     13  H   UNL     1      36.042 -19.934 -22.909  0.00  0.00    +0.156 HD
BRANCH  10  15
ATOM     14  N   UNL     1      33.689 -17.848 -25.616  0.00  0.00    -0.247 NA
ATOM     15  C   UNL     1      34.803 -18.447 -23.577  0.00  0.00    +0.071 C 
ATOM     16  C   UNL     1      35.106 -17.127 -23.317  0.00  0.00    +0.018 C 
ATOM     17  C   UNL     1      34.105 -18.768 -24.717  0.00  0.00    +0.113 C 
ATOM     18  C   UNL     1      34.695 -16.151 -24.218  0.00  0.00    +0.016 C 
ATOM     19  C   UNL     1      33.996 -16.560 -25.342  0.00  0.00    +0.059 C 
ATOM     20  C   UNL     1      33.540 -15.540 -26.331  0.00  0.00    +0.052 C 
ENDBRANCH  10  15
ENDBRANCH   5   9
BRANCH   2  21
ATOM     21  C   UNL     1      36.731 -22.529 -16.468  0.00  0.00    -0.047 C 
BRANCH  21  23
ATOM     22  O   UNL     1      38.019 -26.296 -11.643  0.00  0.00    -0.226 OA
ATOM     23  N   UNL     1      36.528 -23.717 -15.638  0.00  0.00    +0.392 N 
ATOM     24  N   UNL     1      36.683 -25.282 -13.251  0.00  0.00    -0.250 N 
ATOM     25  C   UNL     1      37.819 -24.256 -15.185  0.00  0.00    -0.055 C 
ATOM     26  C   UNL     1      35.668 -23.401 -14.488  0.00  0.00    -0.055 C 
ATOM     27  C   UNL     1      37.615 -25.519 -14.350  0.00  0.00    +0.074 C 
ATOM     28  C   UNL     1      35.420 -24.646 -13.634  0.00  0.00    +0.074 C 
ATOM     29  C   UNL     1      36.960 -25.761 -11.969  0.00  0.00    +0.405 C 
ATOM     30  H   UNL     1      36.064 -24.427 -16.204  0.00  0.00    -0.079 HD
BRANCH  29  31
ATOM     31  O   UNL     1      35.918 -25.575 -11.099  0.00  0.00    -0.430 OA
ATOM     32  C   UNL     1      35.958 -24.377 -10.315  0.00  0.00    +0.257 C 
ENDBRANCH  29  31
ENDBRANCH  21  23
ENDBRANCH   2  21
TORSDOF 5
ENDMDL
MODEL 4
REMARK VINA RESULT:     -10.2      2.364     10.495
REMARK  Name = 11689883
REMARK  5 active torsions:
REMARK  status: ('A' for Active; 'I' for Inactive)
REMARK    1  A    between atoms: C_2  and  C_21
REMARK    2  A    between atoms: C_5  and  N_9
REMARK    3  A    between atoms: N_10  and  C_15
REMARK    4  A    between atoms: C_21  and  N_23
REMARK    5  A    between atoms: C_29  and  O_31
REMARK                            x       y       z     vdW  Elec       q    Type
REMARK                         _______ _______ _______ _____ _____    ______ ____
ROOT
ATOM      1  F   UNL     1      34.951 -14.690 -21.535  0.00  0.00    -0.203 F 
ATOM      2  C   UNL     1      35.159 -16.514 -23.033  0.00  0.00    -0.014 C 
ATOM      3  C   UNL     1      34.648 -15.265 -22.710  0.00  0.00    +0.147 C 
ATOM      4  C   UNL     1      34.854 -17.119 -24.245  0.00  0.00    -0.004 C 
ATOM      5  C   UNL     1      33.816 -14.607 -23.616  0.00  0.00    +0.079 C 
ATOM      6  C   UNL     1      34.022 -16.462 -25.150  0.00  0.00    +0.001 C 
ATOM      7  C   UNL     1      33.502 -15.206 -24.836  0.00  0.00    +0.017 C 
ENDROOT
BRANCH   5   9
ATOM      8  O   UNL     1      34.623 -11.896 -24.573  0.00  0.00    -0.252 OA
ATOM      9  N   UNL     1      33.295 -13.351 -23.304  0.00  0.00    -0.266 N 
ATOM     10  N   UNL     1      32.910 -11.075 -23.209  0.00  0.00    -0.267 N 
ATOM     11  C   UNL     1      33.706 -12.081 -23.780  0.00  0.00    +0.308 C 
ATOM     12  H   UNL     1      32.543 -13.345 -22.668  0.00  0.00    +0.156 HD
ATOM     13  H   UNL     1      32.210 -11.379 -22.587  0.00  0.00    +0.156 HD
BRANCH  10  15
ATOM     14  N   UNL     1      31.861  -7.565 -23.551  0.00  0.00    -0.247 NA
ATOM     15  C   UNL     1      32.990  -9.678 -23.418  0.00  0.00    +0.071 C 
ATOM     16  C   UNL     1      34.205  -9.083 -23.682  0.00  0.00    +0.018 C 
ATOM     17  C   UNL     1      31.856  -8.904 -23.360  0.00  0.00    +0.113 C 
ATOM     18  C   UNL     1      34.252  -7.708 -23.884  0.00  0.00    +0.016 C 
ATOM     19  C   UNL     1      33.062  -7.001 -23.809  0.00  0.00    +0.059 C 
ATOM     20  C   UNL     1      33.075  -5.524 -24.020  0.00  0.00    +0.052 C 
ENDBRANCH  10  15
ENDBRANCH   5   9
BRANCH   2  21
ATOM     21  C   UNL     1      36.057 -17.227 -22.058  0.00  0.00    -0.047 C 
BRANCH  21  23
ATOM     22  O   UNL     1      35.498 -22.513 -18.760  0.00  0.00    -0.226 OA
ATOM     23  N   UNL     1      35.661 -18.623 -21.871  0.00  0.00    +0.392 N 
ATOM     24  N   UNL     1      34.920 -20.940 -20.370  0.00  0.00    -0.250 N 
ATOM     25  C   UNL     1      36.662 -19.340 -21.068  0.00  0.00    -0.055 C 
ATOM     26  C   UNL     1      34.337 -18.703 -21.237  0.00  0.00    -0.055 C 
ATOM     27  C   UNL     1      36.274 -20.808 -20.902  0.00  0.00    +0.074 C 
ATOM     28  C   UNL     1      33.898 -20.159 -21.071  0.00  0.00    +0.074 C 
ATOM     29  C   UNL     1      34.643 -21.855 -19.351  0.00  0.00    +0.405 C 
ATOM     30  H   UNL     1      35.607 -19.066 -22.788  0.00  0.00    -0.079 HD
BRANCH  29  31
ATOM     31  O   UNL     1      33.305 -21.947 -19.074  0.00  0.00    -0.430 OA
ATOM     32  C   UNL     1      32.947 -22.768 -17.956  0.00  0.00    +0.257 C 
ENDBRANCH  29  31
ENDBRANCH  21  23
ENDBRANCH   2  21
TORSDOF 5
ENDMDL
MODEL 5
REMARK VINA RESULT:     -10.0      2.859      4.395
REMARK  Name = 11689883
REMARK  5 active torsions:
REMARK  status: ('A' for Active; 'I' for Inactive)
REMARK    1  A    between atoms: C_2  and  C_21
REMARK    2  A    between atoms: C_5  and  N_9
REMARK    3  A    between atoms: N_10  and  C_15
REMARK    4  A    between atoms: C_21  and  N_23
REMARK    5  A    between atoms: C_29  and  O_31
REMARK                            x       y       z     vdW  Elec       q    Type
REMARK                         _______ _______ _______ _____ _____    ______ ____
ROOT
ATOM      1  F   UNL     1      37.567 -19.449 -20.575  0.00  0.00    -0.203 F 
ATOM      2  C   UNL     1      35.451 -19.411 -21.641  0.00  0.00    -0.014 C 
ATOM      3  C   UNL     1      36.302 -19.890 -20.655  0.00  0.00    +0.147 C 
ATOM      4  C   UNL     1      34.140 -19.858 -21.732  0.00  0.00    -0.004 C 
ATOM      5  C   UNL     1      35.834 -20.836 -19.743  0.00  0.00    +0.079 C 
ATOM      6  C   UNL     1      33.672 -20.804 -20.821  0.00  0.00    +0.001 C 
ATOM      7  C   UNL     1      34.518 -21.293 -19.826  0.00  0.00    +0.017 C 
ENDROOT
BRANCH   5   9
ATOM      8  O   UNL     1      35.257 -22.678 -17.464  0.00  0.00    -0.252 OA
ATOM      9  N   UNL     1      36.678 -21.327 -18.747  0.00  0.00    -0.266 N 
ATOM     10  N   UNL     1      37.515 -22.442 -16.905  0.00  0.00    -0.267 N 
ATOM     11  C   UNL     1      36.368 -22.203 -17.677  0.00  0.00    +0.308 C 
ATOM     12  H   UNL     1      37.614 -21.024 -18.792  0.00  0.00    +0.156 HD
ATOM     13  H   UNL     1      38.338 -21.988 -17.201  0.00  0.00    +0.156 HD
BRANCH  10  15
ATOM     14  N   UNL     1      38.879 -24.913 -14.545  0.00  0.00    -0.247 NA
ATOM     15  C   UNL     1      37.636 -23.254 -15.753  0.00  0.00    +0.071 C 
ATOM     16  C   UNL     1      36.684 -23.195 -14.757  0.00  0.00    +0.018 C 
ATOM     17  C   UNL     1      38.704 -24.110 -15.618  0.00  0.00    +0.113 C 
ATOM     18  C   UNL     1      36.830 -24.006 -13.637  0.00  0.00    +0.016 C 
ATOM     19  C   UNL     1      37.934 -24.841 -13.581  0.00  0.00    +0.059 C 
ATOM     20  C   UNL     1      38.123 -25.725 -12.393  0.00  0.00    +0.052 C 
ENDBRANCH  10  15
ENDBRANCH   5   9
BRANCH   2  21
ATOM     21  C   UNL     1      35.953 -18.389 -22.626  0.00  0.00    -0.047 C 
BRANCH  21  23
ATOM     22  O   UNL     1      33.918 -12.709 -24.277  0.00  0.00    -0.226 OA
ATOM     23  N   UNL     1      34.919 -17.414 -22.975  0.00  0.00    +0.392 N 
ATOM     24  N   UNL     1      33.884 -15.030 -24.165  0.00  0.00    -0.250 N 
ATOM     25  C   UNL     1      35.236 -16.099 -22.401  0.00  0.00    -0.055 C 
ATOM     26  C   UNL     1      34.772 -17.318 -24.435  0.00  0.00    -0.055 C 
ATOM     27  C   UNL     1      34.141 -15.085 -22.728  0.00  0.00    +0.074 C 
ATOM     28  C   UNL     1      33.668 -16.328 -24.808  0.00  0.00    +0.074 C 
ATOM     29  C   UNL     1      33.736 -13.801 -24.813  0.00  0.00    +0.405 C 
ATOM     30  H   UNL     1      34.034 -17.732 -22.581  0.00  0.00    -0.079 HD
BRANCH  29  31
ATOM     31  O   UNL     1      33.361 -13.937 -26.123  0.00  0.00    -0.430 OA
ATOM     32  C   UNL     1      33.349 -12.737 -26.904  0.00  0.00    +0.257 C 
ENDBRANCH  29  31
ENDBRANCH  21  23
ENDBRANCH   2  21
TORSDOF 5
ENDMDL
MODEL 6
REMARK VINA RESULT:     -10.0      5.089     12.924
REMARK  Name = 11689883
REMARK  5 active torsions:
REMARK  status: ('A' for Active; 'I' for Inactive)
REMARK    1  A    between atoms: C_2  and  C_21
REMARK    2  A    between atoms: C_5  and  N_9
REMARK    3  A    between atoms: N_10  and  C_15
REMARK    4  A    between atoms: C_21  and  N_23
REMARK    5  A    between atoms: C_29  and  O_31
REMARK                            x       y       z     vdW  Elec       q    Type
REMARK                         _______ _______ _______ _____ _____    ______ ____
ROOT
ATOM      1  F   UNL     1      32.656 -10.171 -23.461  0.00  0.00    -0.203 F 
ATOM      2  C   UNL     1      31.816 -10.972 -21.396  0.00  0.00    -0.014 C 
ATOM      3  C   UNL     1      32.341  -9.951 -22.175  0.00  0.00    +0.147 C 
ATOM      4  C   UNL     1      31.485 -10.756 -20.065  0.00  0.00    -0.004 C 
ATOM      5  C   UNL     1      32.539  -8.690 -21.614  0.00  0.00    +0.079 C 
ATOM      6  C   UNL     1      31.684  -9.495 -19.503  0.00  0.00    +0.001 C 
ATOM      7  C   UNL     1      32.211  -8.462 -20.277  0.00  0.00    +0.017 C 
ENDROOT
BRANCH   5   9
ATOM      8  O   UNL     1      31.273  -7.060 -23.773  0.00  0.00    -0.252 OA
ATOM      9  N   UNL     1      33.067  -7.654 -22.386  0.00  0.00    -0.266 N 
ATOM     10  N   UNL     1      33.328  -5.954 -23.928  0.00  0.00    -0.267 N 
ATOM     11  C   UNL     1      32.433  -6.901 -23.406  0.00  0.00    +0.308 C 
ATOM     12  H   UNL     1      34.003  -7.415 -22.199  0.00  0.00    +0.156 HD
ATOM     13  H   UNL     1      34.229  -5.945 -23.530  0.00  0.00    +0.156 HD
BRANCH  10  15
ATOM     14  N   UNL     1      31.972  -3.017 -25.681  0.00  0.00    -0.247 NA
ATOM     15  C   UNL     1      33.094  -5.009 -24.955  0.00  0.00    +0.071 C 
ATOM     16  C   UNL     1      33.722  -5.140 -26.176  0.00  0.00    +0.018 C 
ATOM     17  C   UNL     1      32.240  -3.954 -24.743  0.00  0.00    +0.113 C 
ATOM     18  C   UNL     1      33.472  -4.196 -27.166  0.00  0.00    +0.016 C 
ATOM     19  C   UNL     1      32.596  -3.164 -26.871  0.00  0.00    +0.059 C 
ATOM     20  C   UNL     1      32.305  -2.132 -27.910  0.00  0.00    +0.052 C 
ENDBRANCH  10  15
ENDBRANCH   5   9
BRANCH   2  21
ATOM     21  C   UNL     1      31.600 -12.334 -21.998  0.00  0.00    -0.047 C 
BRANCH  21  23
ATOM     22  O   UNL     1      35.443 -17.265 -22.210  0.00  0.00    -0.226 OA
ATOM     23  N   UNL     1      32.864 -13.001 -22.307  0.00  0.00    +0.392 N 
ATOM     24  N   UNL     1      34.558 -15.229 -22.894  0.00  0.00    -0.250 N 
ATOM     25  C   UNL     1      33.203 -13.975 -21.258  0.00  0.00    -0.055 C 
ATOM     26  C   UNL     1      32.793 -13.661 -23.619  0.00  0.00    -0.055 C 
ATOM     27  C   UNL     1      34.543 -14.647 -21.555  0.00  0.00    +0.074 C 
ATOM     28  C   UNL     1      34.124 -14.330 -23.967  0.00  0.00    +0.074 C 
ATOM     29  C   UNL     1      35.078 -16.508 -23.108  0.00  0.00    +0.405 C 
ATOM     30  H   UNL     1      33.599 -12.295 -22.340  0.00  0.00    -0.079 HD
BRANCH  29  31
ATOM     31  O   UNL     1      35.143 -16.836 -24.436  0.00  0.00    -0.430 OA
ATOM     32  C   UNL     1      34.391 -17.987 -24.839  0.00  0.00    +0.257 C 
ENDBRANCH  29  31
ENDBRANCH  21  23
ENDBRANCH   2  21
TORSDOF 5
ENDMDL
MODEL 7
REMARK VINA RESULT:      -9.7      2.516      4.161
REMARK  Name = 11689883
REMARK  5 active torsions:
REMARK  status: ('A' for Active; 'I' for Inactive)
REMARK    1  A    between atoms: C_2  and  C_21
REMARK    2  A    between atoms: C_5  and  N_9
REMARK    3  A    between atoms: N_10  and  C_15
REMARK    4  A    between atoms: C_21  and  N_23
REMARK    5  A    between atoms: C_29  and  O_31
REMARK                            x       y       z     vdW  Elec       q    Type
REMARK                         _______ _______ _______ _____ _____    ______ ____
ROOT
ATOM      1  F   UNL     1      37.565 -19.746 -20.725  0.00  0.00    -0.203 F 
ATOM      2  C   UNL     1      35.465 -19.551 -21.806  0.00  0.00    -0.014 C 
ATOM      3  C   UNL     1      36.253 -20.029 -20.768  0.00  0.00    +0.147 C 
ATOM      4  C   UNL     1      34.108 -19.836 -21.861  0.00  0.00    -0.004 C 
ATOM      5  C   UNL     1      35.673 -20.806 -19.766  0.00  0.00    +0.079 C 
ATOM      6  C   UNL     1      33.527 -20.613 -20.859  0.00  0.00    +0.001 C 
ATOM      7  C   UNL     1      34.309 -21.099 -19.811  0.00  0.00    +0.017 C 
ENDROOT
BRANCH   5   9
ATOM      8  O   UNL     1      35.022 -22.814 -17.653  0.00  0.00    -0.252 OA
ATOM      9  N   UNL     1      36.453 -21.293 -18.717  0.00  0.00    -0.266 N 
ATOM     10  N   UNL     1      37.192 -22.452 -16.860  0.00  0.00    -0.267 N 
ATOM     11  C   UNL     1      36.109 -22.250 -17.730  0.00  0.00    +0.308 C 
ATOM     12  H   UNL     1      37.363 -20.923 -18.653  0.00  0.00    +0.156 HD
ATOM     13  H   UNL     1      38.003 -21.924 -17.049  0.00  0.00    +0.156 HD
BRANCH  10  15
ATOM     14  N   UNL     1      36.214 -24.214 -13.782  0.00  0.00    -0.247 NA
ATOM     15  C   UNL     1      37.264 -23.320 -15.745  0.00  0.00    +0.071 C 
ATOM     16  C   UNL     1      38.391 -24.084 -15.530  0.00  0.00    +0.018 C 
ATOM     17  C   UNL     1      36.210 -23.407 -14.867  0.00  0.00    +0.113 C 
ATOM     18  C   UNL     1      38.433 -24.928 -14.425  0.00  0.00    +0.016 C 
ATOM     19  C   UNL     1      37.328 -24.955 -13.589  0.00  0.00    +0.059 C 
ATOM     20  C   UNL     1      37.337 -25.849 -12.394  0.00  0.00    +0.052 C 
ENDBRANCH  10  15
ENDBRANCH   5   9
BRANCH   2  21
ATOM     21  C   UNL     1      36.088 -18.711 -22.889  0.00  0.00    -0.047 C 
BRANCH  21  23
ATOM     22  O   UNL     1      32.630 -13.505 -23.144  0.00  0.00    -0.226 OA
ATOM     23  N   UNL     1      35.845 -17.284 -22.679  0.00  0.00    +0.392 N 
ATOM     24  N   UNL     1      34.250 -14.942 -22.301  0.00  0.00    -0.250 N 
ATOM     25  C   UNL     1      35.073 -16.722 -23.797  0.00  0.00    -0.055 C 
ATOM     26  C   UNL     1      35.145 -17.061 -21.405  0.00  0.00    -0.055 C 
ATOM     27  C   UNL     1      34.851 -15.223 -23.603  0.00  0.00    +0.074 C 
ATOM     28  C   UNL     1      34.920 -15.568 -21.160  0.00  0.00    +0.074 C 
ATOM     29  C   UNL     1      33.195 -14.033 -22.187  0.00  0.00    +0.405 C 
ATOM     30  H   UNL     1      36.747 -16.808 -22.639  0.00  0.00    -0.079 HD
BRANCH  29  31
ATOM     31  O   UNL     1      32.851 -13.785 -20.885  0.00  0.00    -0.430 OA
ATOM     32  C   UNL     1      32.034 -12.631 -20.658  0.00  0.00    +0.257 C 
ENDBRANCH  29  31
ENDBRANCH  21  23
ENDBRANCH   2  21
TORSDOF 5
ENDMDL
MODEL 8
REMARK VINA RESULT:      -9.5      5.367      8.989
REMARK  Name = 11689883
REMARK  5 active torsions:
REMARK  status: ('A' for Active; 'I' for Inactive)
REMARK    1  A    between atoms: C_2  and  C_21
REMARK    2  A    between atoms: C_5  and  N_9
REMARK    3  A    between atoms: N_10  and  C_15
REMARK    4  A    between atoms: C_21  and  N_23
REMARK    5  A    between atoms: C_29  and  O_31
REMARK                            x       y       z     vdW  Elec       q    Type
REMARK                         _______ _______ _______ _____ _____    ______ ____
ROOT
ATOM      1  F   UNL     1      34.075  -9.280 -23.934  0.00  0.00    -0.203 F 
ATOM      2  C   UNL     1      32.832  -8.560 -22.050  0.00  0.00    -0.014 C 
ATOM      3  C   UNL     1      33.218  -9.554 -22.938  0.00  0.00    +0.147 C 
ATOM      4  C   UNL     1      31.948  -8.831 -21.015  0.00  0.00    -0.004 C 
ATOM      5  C   UNL     1      32.711 -10.844 -22.789  0.00  0.00    +0.079 C 
ATOM      6  C   UNL     1      31.440 -10.121 -20.866  0.00  0.00    +0.001 C 
ATOM      7  C   UNL     1      31.821 -11.128 -21.752  0.00  0.00    +0.017 C 
ENDROOT
BRANCH   5   9
ATOM      8  O   UNL     1      32.855 -13.801 -22.393  0.00  0.00    -0.252 OA
ATOM      9  N   UNL     1      33.090 -11.853 -23.675  0.00  0.00    -0.266 N 
ATOM     10  N   UNL     1      33.583 -13.906 -24.613  0.00  0.00    -0.267 N 
ATOM     11  C   UNL     1      33.147 -13.251 -23.450  0.00  0.00    +0.308 C 
ATOM     12  H   UNL     1      33.354 -11.555 -24.575  0.00  0.00    +0.156 HD
ATOM     13  H   UNL     1      33.780 -13.328 -25.386  0.00  0.00    +0.156 HD
BRANCH  10  15
ATOM     14  N   UNL     1      33.308 -17.255 -26.110  0.00  0.00    -0.247 NA
ATOM     15  C   UNL     1      33.776 -15.293 -24.811  0.00  0.00    +0.071 C 
ATOM     16  C   UNL     1      34.574 -16.014 -23.948  0.00  0.00    +0.018 C 
ATOM     17  C   UNL     1      33.168 -15.933 -25.864  0.00  0.00    +0.113 C 
ATOM     18  C   UNL     1      34.744 -17.377 -24.168  0.00  0.00    +0.016 C 
ATOM     19  C   UNL     1      34.095 -17.944 -25.253  0.00  0.00    +0.059 C 
ATOM     20  C   UNL     1      34.254 -19.404 -25.519  0.00  0.00    +0.052 C 
ENDBRANCH  10  15
ENDBRANCH   5   9
BRANCH   2  21
ATOM     21  C   UNL     1      33.378  -7.166 -22.207  0.00  0.00    -0.047 C 
BRANCH  21  23
ATOM     22  O   UNL     1      31.193  -1.865 -24.707  0.00  0.00    -0.226 OA
ATOM     23  N   UNL     1      32.624  -6.392 -23.193  0.00  0.00    +0.392 N 
ATOM     24  N   UNL     1      31.940  -4.065 -24.706  0.00  0.00    -0.250 N 
ATOM     25  C   UNL     1      31.944  -5.259 -22.548  0.00  0.00    -0.055 C 
ATOM     26  C   UNL     1      33.510  -5.919 -24.266  0.00  0.00    -0.055 C 
ATOM     27  C   UNL     1      31.122  -4.470 -23.566  0.00  0.00    +0.074 C 
ATOM     28  C   UNL     1      32.723  -5.139 -25.321  0.00  0.00    +0.074 C 
ATOM     29  C   UNL     1      31.850  -2.769 -25.220  0.00  0.00    +0.405 C 
ATOM     30  H   UNL     1      31.916  -7.000 -23.604  0.00  0.00    -0.079 HD
BRANCH  29  31
ATOM     31  O   UNL     1      32.576  -2.607 -26.370  0.00  0.00    -0.430 OA
ATOM     32  C   UNL     1      31.847  -2.157 -27.518  0.00  0.00    +0.257 C 
ENDBRANCH  29  31
ENDBRANCH  21  23
ENDBRANCH   2  21
TORSDOF 5
ENDMDL
MODEL 9
REMARK VINA RESULT:      -9.1      3.744     12.196
REMARK  Name = 11689883
REMARK  5 active torsions:
REMARK  status: ('A' for Active; 'I' for Inactive)
REMARK    1  A    between atoms: C_2  and  C_21
REMARK    2  A    between atoms: C_5  and  N_9
REMARK    3  A    between atoms: N_10  and  C_15
REMARK    4  A    between atoms: C_21  and  N_23
REMARK    5  A    between atoms: C_29  and  O_31
REMARK                            x       y       z     vdW  Elec       q    Type
REMARK                         _______ _______ _______ _____ _____    ______ ____
ROOT
ATOM      1  F   UNL     1      33.182 -11.087 -24.113  0.00  0.00    -0.203 F 
ATOM      2  C   UNL     1      33.166 -12.778 -22.453  0.00  0.00    -0.014 C 
ATOM      3  C   UNL     1      32.705 -11.569 -22.955  0.00  0.00    +0.147 C 
ATOM      4  C   UNL     1      32.679 -13.287 -21.257  0.00  0.00    -0.004 C 
ATOM      5  C   UNL     1      31.738 -10.855 -22.247  0.00  0.00    +0.079 C 
ATOM      6  C   UNL     1      31.713 -12.573 -20.549  0.00  0.00    +0.001 C 
ATOM      7  C   UNL     1      31.242 -11.357 -21.043  0.00  0.00    +0.017 C 
ENDROOT
BRANCH   5   9
ATOM      8  O   UNL     1      32.788  -8.085 -21.863  0.00  0.00    -0.252 OA
ATOM      9  N   UNL     1      31.266  -9.638 -22.739  0.00  0.00    -0.266 N 
ATOM     10  N   UNL     1      31.008  -7.391 -23.213  0.00  0.00    -0.267 N 
ATOM     11  C   UNL     1      31.793  -8.338 -22.535  0.00  0.00    +0.308 C 
ATOM     12  H   UNL     1      30.461  -9.688 -23.303  0.00  0.00    +0.156 HD
ATOM     13  H   UNL     1      30.238  -7.747 -23.713  0.00  0.00    +0.156 HD
BRANCH  10  15
ATOM     14  N   UNL     1      30.672  -3.827 -22.365  0.00  0.00    -0.247 NA
ATOM     15  C   UNL     1      31.189  -5.989 -23.267  0.00  0.00    +0.071 C 
ATOM     16  C   UNL     1      32.011  -5.431 -24.223  0.00  0.00    +0.018 C 
ATOM     17  C   UNL     1      30.545  -5.173 -22.368  0.00  0.00    +0.113 C 
ATOM     18  C   UNL     1      32.169  -4.049 -24.251  0.00  0.00    +0.016 C 
ATOM     19  C   UNL     1      31.483  -3.299 -23.310  0.00  0.00    +0.059 C 
ATOM     20  C   UNL     1      31.628  -1.814 -23.311  0.00  0.00    +0.052 C 
ENDBRANCH  10  15
ENDBRANCH   5   9
BRANCH   2  21
ATOM     21  C   UNL     1      34.209 -13.552 -23.214  0.00  0.00    -0.047 C 
BRANCH  21  23
ATOM     22  O   UNL     1      36.764 -19.254 -22.920  0.00  0.00    -0.226 OA
ATOM     23  N   UNL     1      34.232 -14.962 -22.826  0.00  0.00    +0.392 N 
ATOM     24  N   UNL     1      35.454 -17.472 -22.208  0.00  0.00    -0.250 N 
ATOM     25  C   UNL     1      34.830 -15.780 -23.891  0.00  0.00    -0.055 C 
ATOM     26  C   UNL     1      34.969 -15.138 -21.566  0.00  0.00    -0.055 C 
ATOM     27  C   UNL     1      34.822 -17.260 -23.508  0.00  0.00    +0.074 C 
ATOM     28  C   UNL     1      34.968 -16.605 -21.133  0.00  0.00    +0.074 C 
ATOM     29  C   UNL     1      36.354 -18.523 -22.020  0.00  0.00    +0.405 C 
ATOM     30  H   UNL     1      33.271 -15.271 -22.684  0.00  0.00    -0.079 HD
BRANCH  29  31
ATOM     31  O   UNL     1      36.738 -18.661 -20.712  0.00  0.00    -0.430 OA
ATOM     32  C   UNL     1      36.852 -20.004 -20.227  0.00  0.00    +0.257 C 
ENDBRANCH  29  31
ENDBRANCH  21  23
ENDBRANCH   2  21
TORSDOF 5
ENDMDL
