MODEL 1
REMARK VINA RESULT:     -12.5      0.000      0.000
REMARK  Name = 5287728
REMARK  9 active torsions:
REMARK  status: ('A' for Active; 'I' for Inactive)
REMARK    1  A    between atoms: S_1  and  N_4
REMARK    2  A    between atoms: S_1  and  N_22
REMARK    3  A    between atoms: C_5  and  N_10
REMARK    4  A    between atoms: N_10  and  C_13
REMARK    5  A    between atoms: C_13  and  C_14
REMARK    6  A    between atoms: C_15  and  O_20
REMARK    7  A    between atoms: N_22  and  C_24
REMARK    8  A    between atoms: C_27  and  O_30
REMARK    9  A    between atoms: O_30  and  C_32
REMARK                            x       y       z     vdW  Elec       q    Type
REMARK                         _______ _______ _______ _____ _____    ______ ____
ROOT
ATOM      1  S   UNL     1      36.145 -18.911 -21.111  0.00  0.00    +0.113 S 
ATOM      2  O   UNL     1      35.543 -17.664 -20.676  0.00  0.00    -0.138 OA
ATOM      3  O   UNL     1      37.582 -19.098 -21.015  0.00  0.00    -0.138 OA
ENDROOT
BRANCH   1   4
ATOM      4  N   UNL     1      35.371 -20.195 -20.279  0.00  0.00    -0.143 NA
ATOM      5  C   UNL     1      34.163 -22.707 -19.450  0.00  0.00    -0.059 C 
ATOM      6  C   UNL     1      33.319 -21.479 -19.807  0.00  0.00    -0.002 C 
ATOM      7  C   UNL     1      35.549 -22.273 -18.960  0.00  0.00    -0.002 C 
ATOM      8  C   UNL     1      34.040 -20.594 -20.821  0.00  0.00    +0.095 C 
ATOM      9  C   UNL     1      36.236 -21.376 -19.985  0.00  0.00    +0.095 C 
BRANCH   5  10
ATOM     10  N   UNL     1      33.491 -23.495 -18.420  0.00  0.00    +0.388 N 
ATOM     11  H   UNL     1      33.702 -24.483 -18.564  0.00  0.00    -0.084 HD
ATOM     12  H   UNL     1      32.486 -23.333 -18.486  0.00  0.00    -0.084 HD
BRANCH  10  13
ATOM     13  C   UNL     1      33.941 -23.100 -17.093  0.00  0.00    -0.051 C 
BRANCH  13  14
ATOM     14  C   UNL     1      32.970 -23.523 -16.023  0.00  0.00    -0.010 C 
ATOM     15  C   UNL     1      31.610 -23.287 -16.177  0.00  0.00    +0.128 C 
ATOM     16  C   UNL     1      33.460 -24.151 -14.885  0.00  0.00    -0.003 C 
ATOM     17  C   UNL     1      30.725 -23.685 -15.176  0.00  0.00    +0.036 C 
ATOM     18  C   UNL     1      32.574 -24.549 -13.883  0.00  0.00    -0.000 C 
ATOM     19  C   UNL     1      31.207 -24.316 -14.029  0.00  0.00    +0.003 C 
BRANCH  15  20
ATOM     20  O   UNL     1      31.123 -22.671 -17.291  0.00  0.00    -0.506 OA
ATOM     21  H   UNL     1      30.407 -22.071 -17.220  0.00  0.00    +0.292 HD
ENDBRANCH  15  20
ENDBRANCH  13  14
ENDBRANCH  10  13
ENDBRANCH   5  10
ENDBRANCH   1   4
BRANCH   1  22
ATOM     22  N   UNL     1      35.615 -19.211 -22.726  0.00  0.00    -0.205 N 
ATOM     23  H   UNL     1      35.689 -20.104 -23.136  0.00  0.00    +0.175 HD
BRANCH  22  24
ATOM     24  C   UNL     1      35.061 -18.094 -23.446  0.00  0.00    +0.069 C 
ATOM     25  C   UNL     1      35.302 -16.801 -22.998  0.00  0.00    +0.053 C 
ATOM     26  C   UNL     1      34.291 -18.323 -24.580  0.00  0.00    +0.016 C 
ATOM     27  C   UNL     1      34.763 -15.720 -23.695  0.00  0.00    +0.147 C 
ATOM     28  C   UNL     1      33.753 -17.241 -25.277  0.00  0.00    +0.004 C 
ATOM     29  C   UNL     1      33.990 -15.940 -24.835  0.00  0.00    +0.038 C 
BRANCH  27  30
ATOM     30  O   UNL     1      34.992 -14.450 -23.263  0.00  0.00    -0.453 OA
BRANCH  30  32
ATOM     31  F   UNL     1      30.795 -11.727 -21.002  0.00  0.00    -0.204 F 
ATOM     32  C   UNL     1      33.934 -13.763 -22.692  0.00  0.00    +0.145 C 
ATOM     33  C   UNL     1      33.378 -14.237 -21.518  0.00  0.00    +0.040 C 
ATOM     34  C   UNL     1      33.460 -12.621 -23.312  0.00  0.00    +0.040 C 
ATOM     35  C   UNL     1      32.312 -13.545 -20.943  0.00  0.00    +0.033 C 
ATOM     36  C   UNL     1      32.393 -11.929 -22.739  0.00  0.00    +0.033 C 
ATOM     37  C   UNL     1      31.819 -12.391 -21.554  0.00  0.00    +0.140 C 
ENDBRANCH  30  32
ENDBRANCH  27  30
ENDBRANCH  22  24
ENDBRANCH   1  22
TORSDOF 9
ENDMDL
MODEL 2
REMARK VINA RESULT:     -12.5      3.746      6.761
REMARK  Name = 5287728
REMARK  9 active torsions:
REMARK  status: ('A' for Active; 'I' for Inactive)
REMARK    1  A    between atoms: S_1  and  N_4
REMARK    2  A    between atoms: S_1  and  N_22
REMARK    3  A    between atoms: C_5  and  N_10
REMARK    4  A    between atoms: N_10  and  C_13
REMARK    5  A    between atoms: C_13  and  C_14
REMARK    6  A    between atoms: C_15  and  O_20
REMARK    7  A    between atoms: N_22  and  C_24
REMARK    8  A    between atoms: C_27  and  O_30
REMARK    9  A    between atoms: O_30  and  C_32
REMARK                            x       y       z     vdW  Elec       q    Type
REMARK                         _______ _______ _______ _____ _____    ______ ____
ROOT
ATOM      1  S   UNL     1      33.257 -13.502 -23.364  0.00  0.00    +0.113 S 
ATOM      2  O   UNL     1      34.191 -12.404 -23.189  0.00  0.00    -0.138 OA
ATOM      3  O   UNL     1      32.780 -13.847 -24.691  0.00  0.00    -0.138 OA
ENDROOT
BRANCH   1   4
ATOM      4  N   UNL     1      33.944 -14.903 -22.651  0.00  0.00    -0.143 NA
ATOM      5  C   UNL     1      35.694 -16.942 -21.538  0.00  0.00    -0.059 C 
ATOM      6  C   UNL     1      35.053 -17.089 -22.923  0.00  0.00    -0.002 C 
ATOM      7  C   UNL     1      34.831 -16.039 -20.649  0.00  0.00    -0.002 C 
ATOM      8  C   UNL     1      34.799 -15.724 -23.557  0.00  0.00    +0.095 C 
ATOM      9  C   UNL     1      34.580 -14.691 -21.317  0.00  0.00    +0.095 C 
BRANCH   5  10
ATOM     10  N   UNL     1      35.852 -18.254 -20.917  0.00  0.00    +0.388 N 
ATOM     11  H   UNL     1      35.531 -18.208 -19.950  0.00  0.00    -0.084 HD
ATOM     12  H   UNL     1      36.837 -18.517 -20.953  0.00  0.00    -0.084 HD
BRANCH  10  13
ATOM     13  C   UNL     1      35.075 -19.258 -21.629  0.00  0.00    -0.051 C 
BRANCH  13  14
ATOM     14  C   UNL     1      34.607 -20.357 -20.713  0.00  0.00    -0.010 C 
ATOM     15  C   UNL     1      35.527 -21.150 -20.040  0.00  0.00    +0.128 C 
ATOM     16  C   UNL     1      33.241 -20.561 -20.555  0.00  0.00    -0.003 C 
ATOM     17  C   UNL     1      35.076 -22.163 -19.195  0.00  0.00    +0.036 C 
ATOM     18  C   UNL     1      32.790 -21.575 -19.710  0.00  0.00    -0.000 C 
ATOM     19  C   UNL     1      33.707 -22.376 -19.030  0.00  0.00    +0.003 C 
BRANCH  15  20
ATOM     20  O   UNL     1      36.868 -20.955 -20.189  0.00  0.00    -0.506 OA
ATOM     21  H   UNL     1      37.186 -20.371 -20.849  0.00  0.00    +0.292 HD
ENDBRANCH  15  20
ENDBRANCH  13  14
ENDBRANCH  10  13
ENDBRANCH   5  10
ENDBRANCH   1   4
BRANCH   1  22
ATOM     22  N   UNL     1      31.921 -13.227 -22.307  0.00  0.00    -0.205 N 
ATOM     23  H   UNL     1      31.224 -13.907 -22.168  0.00  0.00    +0.175 HD
BRANCH  22  24
ATOM     24  C   UNL     1      31.876 -11.953 -21.637  0.00  0.00    +0.069 C 
ATOM     25  C   UNL     1      31.568 -10.808 -22.361  0.00  0.00    +0.053 C 
ATOM     26  C   UNL     1      32.139 -11.884 -20.275  0.00  0.00    +0.016 C 
ATOM     27  C   UNL     1      31.525  -9.574 -21.711  0.00  0.00    +0.147 C 
ATOM     28  C   UNL     1      32.096 -10.651 -19.626  0.00  0.00    +0.004 C 
ATOM     29  C   UNL     1      31.789  -9.496 -20.344  0.00  0.00    +0.038 C 
BRANCH  27  30
ATOM     30  O   UNL     1      31.227  -8.446 -22.413  0.00  0.00    -0.453 OA
BRANCH  30  32
ATOM     31  F   UNL     1      35.372  -5.754 -24.804  0.00  0.00    -0.204 F 
ATOM     32  C   UNL     1      32.272  -7.767 -23.016  0.00  0.00    +0.145 C 
ATOM     33  C   UNL     1      33.570  -8.192 -22.793  0.00  0.00    +0.040 C 
ATOM     34  C   UNL     1      31.992  -6.683 -23.827  0.00  0.00    +0.040 C 
ATOM     35  C   UNL     1      34.622  -7.508 -23.400  0.00  0.00    +0.033 C 
ATOM     36  C   UNL     1      33.045  -5.998 -24.434  0.00  0.00    +0.033 C 
ATOM     37  C   UNL     1      34.360  -6.411 -24.221  0.00  0.00    +0.140 C 
ENDBRANCH  30  32
ENDBRANCH  27  30
ENDBRANCH  22  24
ENDBRANCH   1  22
TORSDOF 9
ENDMDL
MODEL 3
REMARK VINA RESULT:     -11.9      3.241     10.454
REMARK  Name = 5287728
REMARK  9 active torsions:
REMARK  status: ('A' for Active; 'I' for Inactive)
REMARK    1  A    between atoms: S_1  and  N_4
REMARK    2  A    between atoms: S_1  and  N_22
REMARK    3  A    between atoms: C_5  and  N_10
REMARK    4  A    between atoms: N_10  and  C_13
REMARK    5  A    between atoms: C_13  and  C_14
REMARK    6  A    between atoms: C_15  and  O_20
REMARK    7  A    between atoms: N_22  and  C_24
REMARK    8  A    between atoms: C_27  and  O_30
REMARK    9  A    between atoms: O_30  and  C_32
REMARK                            x       y       z     vdW  Elec       q    Type
REMARK                         _______ _______ _______ _____ _____    ______ ____
ROOT
ATOM      1  S   UNL     1      33.694 -23.273 -18.121  0.00  0.00    +0.113 S 
ATOM      2  O   UNL     1      32.475 -22.819 -17.476  0.00  0.00    -0.138 OA
ATOM      3  O   UNL     1      33.780 -24.623 -18.648  0.00  0.00    -0.138 OA
ENDROOT
BRANCH   1   4
ATOM      4  N   UNL     1      34.070 -22.172 -19.381  0.00  0.00    -0.143 NA
ATOM      5  C   UNL     1      34.726 -19.852 -21.008  0.00  0.00    -0.059 C 
ATOM      6  C   UNL     1      33.319 -20.458 -20.989  0.00  0.00    -0.002 C 
ATOM      7  C   UNL     1      35.768 -20.922 -20.662  0.00  0.00    -0.002 C 
ATOM      8  C   UNL     1      33.031 -21.134 -19.651  0.00  0.00    +0.095 C 
ATOM      9  C   UNL     1      35.445 -21.591 -19.329  0.00  0.00    +0.095 C 
BRANCH   5  10
ATOM     10  N   UNL     1      35.009 -19.283 -22.323  0.00  0.00    +0.388 N 
ATOM     11  H   UNL     1      34.147 -18.907 -22.718  0.00  0.00    -0.084 HD
ATOM     12  H   UNL     1      35.385 -20.017 -22.924  0.00  0.00    -0.084 HD
BRANCH  10  13
ATOM     13  C   UNL     1      35.992 -18.214 -22.221  0.00  0.00    -0.051 C 
BRANCH  13  14
ATOM     14  C   UNL     1      35.349 -16.855 -22.279  0.00  0.00    -0.010 C 
ATOM     15  C   UNL     1      35.011 -16.289 -23.502  0.00  0.00    +0.128 C 
ATOM     16  C   UNL     1      35.101 -16.180 -21.089  0.00  0.00    -0.003 C 
ATOM     17  C   UNL     1      34.416 -15.029 -23.537  0.00  0.00    +0.036 C 
ATOM     18  C   UNL     1      34.506 -14.919 -21.125  0.00  0.00    -0.000 C 
ATOM     19  C   UNL     1      34.163 -14.344 -22.348  0.00  0.00    +0.003 C 
BRANCH  15  20
ATOM     20  O   UNL     1      35.251 -16.945 -24.672  0.00  0.00    -0.506 OA
ATOM     21  H   UNL     1      35.862 -16.594 -25.289  0.00  0.00    +0.292 HD
ENDBRANCH  15  20
ENDBRANCH  13  14
ENDBRANCH  10  13
ENDBRANCH   5  10
ENDBRANCH   1   4
BRANCH   1  22
ATOM     22  N   UNL     1      35.002 -22.976 -17.035  0.00  0.00    -0.205 N 
ATOM     23  H   UNL     1      35.799 -22.469 -17.313  0.00  0.00    +0.175 HD
BRANCH  22  24
ATOM     24  C   UNL     1      34.873 -23.507 -15.703  0.00  0.00    +0.069 C 
ATOM     25  C   UNL     1      33.619 -23.563 -15.106  0.00  0.00    +0.053 C 
ATOM     26  C   UNL     1      36.003 -23.955 -15.030  0.00  0.00    +0.016 C 
ATOM     27  C   UNL     1      33.496 -24.076 -13.814  0.00  0.00    +0.147 C 
ATOM     28  C   UNL     1      35.878 -24.467 -13.740  0.00  0.00    +0.004 C 
ATOM     29  C   UNL     1      34.625 -24.528 -13.132  0.00  0.00    +0.038 C 
BRANCH  27  30
ATOM     30  O   UNL     1      32.272 -24.134 -13.221  0.00  0.00    -0.453 OA
BRANCH  30  32
ATOM     31  F   UNL     1      27.863 -24.390 -16.482  0.00  0.00    -0.204 F 
ATOM     32  C   UNL     1      31.159 -24.199 -14.043  0.00  0.00    +0.145 C 
ATOM     33  C   UNL     1      30.643 -25.436 -14.382  0.00  0.00    +0.040 C 
ATOM     34  C   UNL     1      30.594 -23.024 -14.504  0.00  0.00    +0.040 C 
ATOM     35  C   UNL     1      29.523 -25.501 -15.210  0.00  0.00    +0.033 C 
ATOM     36  C   UNL     1      29.474 -23.088 -15.333  0.00  0.00    +0.033 C 
ATOM     37  C   UNL     1      28.939 -24.327 -15.686  0.00  0.00    +0.140 C 
ENDBRANCH  30  32
ENDBRANCH  27  30
ENDBRANCH  22  24
ENDBRANCH   1  22
TORSDOF 9
ENDMDL
MODEL 4
REMARK VINA RESULT:     -11.8      3.511     10.689
REMARK  Name = 5287728
REMARK  9 active torsions:
REMARK  status: ('A' for Active; 'I' for Inactive)
REMARK    1  A    between atoms: S_1  and  N_4
REMARK    2  A    between atoms: S_1  and  N_22
REMARK    3  A    between atoms: C_5  and  N_10
REMARK    4  A    between atoms: N_10  and  C_13
REMARK    5  A    between atoms: C_13  and  C_14
REMARK    6  A    between atoms: C_15  and  O_20
REMARK    7  A    between atoms: N_22  and  C_24
REMARK    8  A    between atoms: C_27  and  O_30
REMARK    9  A    between atoms: O_30  and  C_32
REMARK                            x       y       z     vdW  Elec       q    Type
REMARK                         _______ _______ _______ _____ _____    ______ ____
ROOT
ATOM      1  S   UNL     1      33.803 -23.155 -17.997  0.00  0.00    +0.113 S 
ATOM      2  O   UNL     1      32.603 -22.780 -17.271  0.00  0.00    -0.138 OA
ATOM      3  O   UNL     1      33.837 -24.392 -18.757  0.00  0.00    -0.138 OA
ENDROOT
BRANCH   1   4
ATOM      4  N   UNL     1      34.217 -21.861 -19.043  0.00  0.00    -0.143 NA
ATOM      5  C   UNL     1      34.908 -20.154 -21.294  0.00  0.00    -0.059 C 
ATOM      6  C   UNL     1      35.949 -20.594 -20.260  0.00  0.00    -0.002 C 
ATOM      7  C   UNL     1      33.510 -20.143 -20.666  0.00  0.00    -0.002 C 
ATOM      8  C   UNL     1      35.579 -21.944 -19.649  0.00  0.00    +0.095 C 
ATOM      9  C   UNL     1      33.175 -21.498 -20.049  0.00  0.00    +0.095 C 
BRANCH   5  10
ATOM     10  N   UNL     1      35.239 -18.826 -21.804  0.00  0.00    +0.388 N 
ATOM     11  H   UNL     1      35.974 -18.419 -21.226  0.00  0.00    -0.084 HD
ATOM     12  H   UNL     1      34.401 -18.246 -21.776  0.00  0.00    -0.084 HD
BRANCH  10  13
ATOM     13  C   UNL     1      35.706 -18.905 -23.181  0.00  0.00    -0.051 C 
BRANCH  13  14
ATOM     14  C   UNL     1      34.831 -18.112 -24.115  0.00  0.00    -0.010 C 
ATOM     15  C   UNL     1      34.874 -16.724 -24.108  0.00  0.00    +0.128 C 
ATOM     16  C   UNL     1      33.984 -18.795 -24.980  0.00  0.00    -0.003 C 
ATOM     17  C   UNL     1      34.057 -16.006 -24.980  0.00  0.00    +0.036 C 
ATOM     18  C   UNL     1      33.166 -18.075 -25.852  0.00  0.00    -0.000 C 
ATOM     19  C   UNL     1      33.203 -16.682 -25.852  0.00  0.00    +0.003 C 
BRANCH  15  20
ATOM     20  O   UNL     1      35.702 -16.049 -23.262  0.00  0.00    -0.506 OA
ATOM     21  H   UNL     1      35.360 -15.371 -22.713  0.00  0.00    +0.292 HD
ENDBRANCH  15  20
ENDBRANCH  13  14
ENDBRANCH  10  13
ENDBRANCH   5  10
ENDBRANCH   1   4
BRANCH   1  22
ATOM     22  N   UNL     1      35.123 -23.105 -16.886  0.00  0.00    -0.205 N 
ATOM     23  H   UNL     1      36.003 -22.747 -17.146  0.00  0.00    +0.175 HD
BRANCH  22  24
ATOM     24  C   UNL     1      34.876 -23.611 -15.561  0.00  0.00    +0.069 C 
ATOM     25  C   UNL     1      33.594 -23.544 -15.029  0.00  0.00    +0.053 C 
ATOM     26  C   UNL     1      35.923 -24.159 -14.830  0.00  0.00    +0.016 C 
ATOM     27  C   UNL     1      33.357 -24.034 -13.744  0.00  0.00    +0.147 C 
ATOM     28  C   UNL     1      35.684 -24.648 -13.546  0.00  0.00    +0.004 C 
ATOM     29  C   UNL     1      34.402 -24.586 -13.004  0.00  0.00    +0.038 C 
BRANCH  27  30
ATOM     30  O   UNL     1      32.105 -23.971 -13.214  0.00  0.00    -0.453 OA
BRANCH  30  32
ATOM     31  F   UNL     1      27.850 -24.552 -16.635  0.00  0.00    -0.204 F 
ATOM     32  C   UNL     1      31.032 -24.117 -14.077  0.00  0.00    +0.145 C 
ATOM     33  C   UNL     1      30.409 -22.987 -14.576  0.00  0.00    +0.040 C 
ATOM     34  C   UNL     1      30.610 -25.390 -14.418  0.00  0.00    +0.040 C 
ATOM     35  C   UNL     1      29.329 -23.135 -15.445  0.00  0.00    +0.033 C 
ATOM     36  C   UNL     1      29.529 -25.538 -15.286  0.00  0.00    +0.033 C 
ATOM     37  C   UNL     1      28.888 -24.410 -15.800  0.00  0.00    +0.140 C 
ENDBRANCH  30  32
ENDBRANCH  27  30
ENDBRANCH  22  24
ENDBRANCH   1  22
TORSDOF 9
ENDMDL
MODEL 5
REMARK VINA RESULT:     -11.7      3.736     10.743
REMARK  Name = 5287728
REMARK  9 active torsions:
REMARK  status: ('A' for Active; 'I' for Inactive)
REMARK    1  A    between atoms: S_1  and  N_4
REMARK    2  A    between atoms: S_1  and  N_22
REMARK    3  A    between atoms: C_5  and  N_10
REMARK    4  A    between atoms: N_10  and  C_13
REMARK    5  A    between atoms: C_13  and  C_14
REMARK    6  A    between atoms: C_15  and  O_20
REMARK    7  A    between atoms: N_22  and  C_24
REMARK    8  A    between atoms: C_27  and  O_30
REMARK    9  A    between atoms: O_30  and  C_32
REMARK                            x       y       z     vdW  Elec       q    Type
REMARK                         _______ _______ _______ _____ _____    ______ ____
ROOT
ATOM      1  S   UNL     1      33.983 -23.397 -18.242  0.00  0.00    +0.113 S 
ATOM      2  O   UNL     1      33.716 -24.670 -18.885  0.00  0.00    -0.138 OA
ATOM      3  O   UNL     1      35.045 -23.287 -17.257  0.00  0.00    -0.138 OA
ENDROOT
BRANCH   1   4
ATOM      4  N   UNL     1      34.254 -22.228 -19.467  0.00  0.00    -0.143 NA
ATOM      5  C   UNL     1      34.722 -19.814 -21.019  0.00  0.00    -0.059 C 
ATOM      6  C   UNL     1      33.353 -20.502 -20.982  0.00  0.00    -0.002 C 
ATOM      7  C   UNL     1      35.835 -20.833 -20.748  0.00  0.00    -0.002 C 
ATOM      8  C   UNL     1      33.149 -21.244 -19.663  0.00  0.00    +0.095 C 
ATOM      9  C   UNL     1      35.594 -21.570 -19.435  0.00  0.00    +0.095 C 
BRANCH   5  10
ATOM     10  N   UNL     1      34.928 -19.180 -22.319  0.00  0.00    +0.388 N 
ATOM     11  H   UNL     1      34.044 -18.786 -22.644  0.00  0.00    -0.084 HD
ATOM     12  H   UNL     1      35.267 -19.882 -22.976  0.00  0.00    -0.084 HD
BRANCH  10  13
ATOM     13  C   UNL     1      35.916 -18.115 -22.222  0.00  0.00    -0.051 C 
BRANCH  13  14
ATOM     14  C   UNL     1      35.280 -16.753 -22.286  0.00  0.00    -0.010 C 
ATOM     15  C   UNL     1      34.937 -16.196 -23.511  0.00  0.00    +0.128 C 
ATOM     16  C   UNL     1      35.044 -16.067 -21.101  0.00  0.00    -0.003 C 
ATOM     17  C   UNL     1      34.348 -14.932 -23.553  0.00  0.00    +0.036 C 
ATOM     18  C   UNL     1      34.456 -14.803 -21.143  0.00  0.00    -0.000 C 
ATOM     19  C   UNL     1      34.108 -14.236 -22.368  0.00  0.00    +0.003 C 
BRANCH  15  20
ATOM     20  O   UNL     1      35.165 -16.863 -24.678  0.00  0.00    -0.506 OA
ATOM     21  H   UNL     1      36.016 -17.210 -24.860  0.00  0.00    +0.292 HD
ENDBRANCH  15  20
ENDBRANCH  13  14
ENDBRANCH  10  13
ENDBRANCH   5  10
ENDBRANCH   1   4
BRANCH   1  22
ATOM     22  N   UNL     1      32.497 -22.825 -17.576  0.00  0.00    -0.205 N 
ATOM     23  H   UNL     1      31.916 -22.202 -18.070  0.00  0.00    +0.175 HD
BRANCH  22  24
ATOM     24  C   UNL     1      32.146 -23.304 -16.264  0.00  0.00    +0.069 C 
ATOM     25  C   UNL     1      33.148 -23.559 -15.336  0.00  0.00    +0.053 C 
ATOM     26  C   UNL     1      30.810 -23.506 -15.943  0.00  0.00    +0.016 C 
ATOM     27  C   UNL     1      32.807 -24.024 -14.066  0.00  0.00    +0.147 C 
ATOM     28  C   UNL     1      30.470 -23.970 -14.673  0.00  0.00    +0.004 C 
ATOM     29  C   UNL     1      31.468 -24.229 -13.734  0.00  0.00    +0.038 C 
BRANCH  27  30
ATOM     30  O   UNL     1      33.782 -24.277 -13.151  0.00  0.00    -0.453 OA
BRANCH  30  32
ATOM     31  F   UNL     1      38.921 -24.866 -14.993  0.00  0.00    -0.204 F 
ATOM     32  C   UNL     1      35.079 -24.426 -13.615  0.00  0.00    +0.145 C 
ATOM     33  C   UNL     1      36.061 -23.567 -13.157  0.00  0.00    +0.040 C 
ATOM     34  C   UNL     1      35.357 -25.429 -14.526  0.00  0.00    +0.040 C 
ATOM     35  C   UNL     1      37.366 -23.717 -13.625  0.00  0.00    +0.033 C 
ATOM     36  C   UNL     1      36.662 -25.578 -14.995  0.00  0.00    +0.033 C 
ATOM     37  C   UNL     1      37.667 -24.722 -14.544  0.00  0.00    +0.140 C 
ENDBRANCH  30  32
ENDBRANCH  27  30
ENDBRANCH  22  24
ENDBRANCH   1  22
TORSDOF 9
ENDMDL
MODEL 6
REMARK VINA RESULT:     -11.7      3.376     11.040
REMARK  Name = 5287728
REMARK  9 active torsions:
REMARK  status: ('A' for Active; 'I' for Inactive)
REMARK    1  A    between atoms: S_1  and  N_4
REMARK    2  A    between atoms: S_1  and  N_22
REMARK    3  A    between atoms: C_5  and  N_10
REMARK    4  A    between atoms: N_10  and  C_13
REMARK    5  A    between atoms: C_13  and  C_14
REMARK    6  A    between atoms: C_15  and  O_20
REMARK    7  A    between atoms: N_22  and  C_24
REMARK    8  A    between atoms: C_27  and  O_30
REMARK    9  A    between atoms: O_30  and  C_32
REMARK                            x       y       z     vdW  Elec       q    Type
REMARK                         _______ _______ _______ _____ _____    ______ ____
ROOT
ATOM      1  S   UNL     1      35.703 -18.308 -21.706  0.00  0.00    +0.113 S 
ATOM      2  O   UNL     1      36.476 -18.688 -22.875  0.00  0.00    -0.138 OA
ATOM      3  O   UNL     1      36.349 -18.195 -20.411  0.00  0.00    -0.138 OA
ENDROOT
BRANCH   1   4
ATOM      4  N   UNL     1      34.913 -16.825 -22.051  0.00  0.00    -0.143 NA
ATOM      5  C   UNL     1      34.209 -14.064 -22.629  0.00  0.00    -0.059 C 
ATOM      6  C   UNL     1      33.977 -14.688 -21.249  0.00  0.00    -0.002 C 
ATOM      7  C   UNL     1      34.192 -15.149 -23.712  0.00  0.00    -0.002 C 
ATOM      8  C   UNL     1      34.991 -15.797 -20.973  0.00  0.00    +0.095 C 
ATOM      9  C   UNL     1      35.200 -16.250 -23.399  0.00  0.00    +0.095 C 
BRANCH   5  10
ATOM     10  N   UNL     1      33.180 -13.064 -22.905  0.00  0.00    +0.388 N 
ATOM     11  H   UNL     1      33.064 -12.467 -22.086  0.00  0.00    -0.084 HD
ATOM     12  H   UNL     1      32.306 -13.544 -23.121  0.00  0.00    -0.084 HD
BRANCH  10  13
ATOM     13  C   UNL     1      33.554 -12.240 -24.045  0.00  0.00    -0.051 C 
BRANCH  13  14
ATOM     14  C   UNL     1      33.582 -10.777 -23.693  0.00  0.00    -0.010 C 
ATOM     15  C   UNL     1      34.623  -9.969 -24.135  0.00  0.00    +0.128 C 
ATOM     16  C   UNL     1      32.552 -10.253 -22.922  0.00  0.00    -0.003 C 
ATOM     17  C   UNL     1      34.633  -8.616 -23.800  0.00  0.00    +0.036 C 
ATOM     18  C   UNL     1      32.564  -8.899 -22.586  0.00  0.00    -0.000 C 
ATOM     19  C   UNL     1      33.603  -8.081 -23.025  0.00  0.00    +0.003 C 
BRANCH  15  20
ATOM     20  O   UNL     1      35.636 -10.476 -24.892  0.00  0.00    -0.506 OA
ATOM     21  H   UNL     1      35.447 -10.896 -25.708  0.00  0.00    +0.292 HD
ENDBRANCH  15  20
ENDBRANCH  13  14
ENDBRANCH  10  13
ENDBRANCH   5  10
ENDBRANCH   1   4
BRANCH   1  22
ATOM     22  N   UNL     1      34.351 -19.375 -21.604  0.00  0.00    -0.205 N 
ATOM     23  H   UNL     1      33.547 -19.245 -22.158  0.00  0.00    +0.175 HD
BRANCH  22  24
ATOM     24  C   UNL     1      34.454 -20.466 -20.669  0.00  0.00    +0.069 C 
ATOM     25  C   UNL     1      33.304 -20.966 -20.071  0.00  0.00    +0.053 C 
ATOM     26  C   UNL     1      35.701 -21.004 -20.378  0.00  0.00    +0.016 C 
ATOM     27  C   UNL     1      33.405 -22.023 -19.165  0.00  0.00    +0.147 C 
ATOM     28  C   UNL     1      35.800 -22.060 -19.472  0.00  0.00    +0.004 C 
ATOM     29  C   UNL     1      34.653 -22.569 -18.866  0.00  0.00    +0.038 C 
BRANCH  27  30
ATOM     30  O   UNL     1      32.284 -22.519 -18.572  0.00  0.00    -0.453 OA
BRANCH  30  32
ATOM     31  F   UNL     1      32.730 -24.379 -13.426  0.00  0.00    -0.204 F 
ATOM     32  C   UNL     1      32.397 -22.988 -17.274  0.00  0.00    +0.145 C 
ATOM     33  C   UNL     1      31.256 -23.114 -16.502  0.00  0.00    +0.040 C 
ATOM     34  C   UNL     1      33.647 -23.319 -16.783  0.00  0.00    +0.040 C 
ATOM     35  C   UNL     1      31.370 -23.587 -15.195  0.00  0.00    +0.033 C 
ATOM     36  C   UNL     1      33.761 -23.791 -15.476  0.00  0.00    +0.033 C 
ATOM     37  C   UNL     1      32.622 -23.925 -14.682  0.00  0.00    +0.140 C 
ENDBRANCH  30  32
ENDBRANCH  27  30
ENDBRANCH  22  24
ENDBRANCH   1  22
TORSDOF 9
ENDMDL
MODEL 7
REMARK VINA RESULT:     -11.6      2.740      3.520
REMARK  Name = 5287728
REMARK  9 active torsions:
REMARK  status: ('A' for Active; 'I' for Inactive)
REMARK    1  A    between atoms: S_1  and  N_4
REMARK    2  A    between atoms: S_1  and  N_22
REMARK    3  A    between atoms: C_5  and  N_10
REMARK    4  A    between atoms: N_10  and  C_13
REMARK    5  A    between atoms: C_13  and  C_14
REMARK    6  A    between atoms: C_15  and  O_20
REMARK    7  A    between atoms: N_22  and  C_24
REMARK    8  A    between atoms: C_27  and  O_30
REMARK    9  A    between atoms: O_30  and  C_32
REMARK                            x       y       z     vdW  Elec       q    Type
REMARK                         _______ _______ _______ _____ _____    ______ ____
ROOT
ATOM      1  S   UNL     1      36.295 -20.808 -20.129  0.00  0.00    +0.113 S 
ATOM      2  O   UNL     1      37.247 -19.755 -19.824  0.00  0.00    -0.138 OA
ATOM      3  O   UNL     1      36.646 -21.856 -21.070  0.00  0.00    -0.138 OA
ENDROOT
BRANCH   1   4
ATOM      4  N   UNL     1      35.819 -21.539 -18.653  0.00  0.00    -0.143 NA
ATOM      5  C   UNL     1      35.283 -23.337 -16.431  0.00  0.00    -0.059 C 
ATOM      6  C   UNL     1      34.176 -22.872 -17.383  0.00  0.00    -0.002 C 
ATOM      7  C   UNL     1      36.410 -22.299 -16.381  0.00  0.00    -0.002 C 
ATOM      8  C   UNL     1      34.740 -22.564 -18.769  0.00  0.00    +0.095 C 
ATOM      9  C   UNL     1      36.940 -21.999 -17.780  0.00  0.00    +0.095 C 
BRANCH   5  10
ATOM     10  N   UNL     1      34.736 -23.547 -15.093  0.00  0.00    +0.388 N 
ATOM     11  H   UNL     1      33.748 -23.292 -15.091  0.00  0.00    -0.084 HD
ATOM     12  H   UNL     1      35.254 -22.969 -14.432  0.00  0.00    -0.084 HD
BRANCH  10  13
ATOM     13  C   UNL     1      34.868 -24.941 -14.695  0.00  0.00    -0.051 C 
BRANCH  13  14
ATOM     14  C   UNL     1      36.279 -25.278 -14.294  0.00  0.00    -0.010 C 
ATOM     15  C   UNL     1      36.959 -26.314 -14.923  0.00  0.00    +0.128 C 
ATOM     16  C   UNL     1      36.885 -24.536 -13.288  0.00  0.00    -0.003 C 
ATOM     17  C   UNL     1      38.266 -26.612 -14.539  0.00  0.00    +0.036 C 
ATOM     18  C   UNL     1      38.192 -24.836 -12.903  0.00  0.00    -0.000 C 
ATOM     19  C   UNL     1      38.882 -25.873 -13.529  0.00  0.00    +0.003 C 
BRANCH  15  20
ATOM     20  O   UNL     1      36.371 -27.045 -15.911  0.00  0.00    -0.506 OA
ATOM     21  H   UNL     1      35.473 -26.896 -16.134  0.00  0.00    +0.292 HD
ENDBRANCH  15  20
ENDBRANCH  13  14
ENDBRANCH  10  13
ENDBRANCH   5  10
ENDBRANCH   1   4
BRANCH   1  22
ATOM     22  N   UNL     1      34.817 -20.055 -20.605  0.00  0.00    -0.205 N 
ATOM     23  H   UNL     1      33.972 -20.231 -20.131  0.00  0.00    +0.175 HD
BRANCH  22  24
ATOM     24  C   UNL     1      34.878 -19.156 -21.728  0.00  0.00    +0.069 C 
ATOM     25  C   UNL     1      35.166 -17.813 -21.517  0.00  0.00    +0.053 C 
ATOM     26  C   UNL     1      34.649 -19.642 -23.009  0.00  0.00    +0.016 C 
ATOM     27  C   UNL     1      35.224 -16.943 -22.606  0.00  0.00    +0.147 C 
ATOM     28  C   UNL     1      34.707 -18.772 -24.097  0.00  0.00    +0.004 C 
ATOM     29  C   UNL     1      34.995 -17.423 -23.896  0.00  0.00    +0.038 C 
BRANCH  27  30
ATOM     30  O   UNL     1      35.504 -15.626 -22.409  0.00  0.00    -0.453 OA
BRANCH  30  32
ATOM     31  F   UNL     1      31.271 -12.170 -21.873  0.00  0.00    -0.204 F 
ATOM     32  C   UNL     1      34.436 -14.754 -22.274  0.00  0.00    +0.145 C 
ATOM     33  C   UNL     1      33.816 -14.634 -21.043  0.00  0.00    +0.040 C 
ATOM     34  C   UNL     1      34.018 -14.026 -23.373  0.00  0.00    +0.040 C 
ATOM     35  C   UNL     1      32.742 -13.756 -20.907  0.00  0.00    +0.033 C 
ATOM     36  C   UNL     1      32.942 -13.149 -23.237  0.00  0.00    +0.033 C 
ATOM     37  C   UNL     1      32.304 -13.014 -22.004  0.00  0.00    +0.140 C 
ENDBRANCH  30  32
ENDBRANCH  27  30
ENDBRANCH  22  24
ENDBRANCH   1  22
TORSDOF 9
ENDMDL
MODEL 8
REMARK VINA RESULT:     -11.6      3.064      4.776
REMARK  Name = 5287728
REMARK  9 active torsions:
REMARK  status: ('A' for Active; 'I' for Inactive)
REMARK    1  A    between atoms: S_1  and  N_4
REMARK    2  A    between atoms: S_1  and  N_22
REMARK    3  A    between atoms: C_5  and  N_10
REMARK    4  A    between atoms: N_10  and  C_13
REMARK    5  A    between atoms: C_13  and  C_14
REMARK    6  A    between atoms: C_15  and  O_20
REMARK    7  A    between atoms: N_22  and  C_24
REMARK    8  A    between atoms: C_27  and  O_30
REMARK    9  A    between atoms: O_30  and  C_32
REMARK                            x       y       z     vdW  Elec       q    Type
REMARK                         _______ _______ _______ _____ _____    ______ ____
ROOT
ATOM      1  S   UNL     1      33.867 -16.712 -25.213  0.00  0.00    +0.113 S 
ATOM      2  O   UNL     1      35.031 -16.194 -25.907  0.00  0.00    -0.138 OA
ATOM      3  O   UNL     1      32.894 -17.521 -25.925  0.00  0.00    -0.138 OA
ENDROOT
BRANCH   1   4
ATOM      4  N   UNL     1      34.411 -17.594 -23.847  0.00  0.00    -0.143 NA
ATOM      5  C   UNL     1      35.938 -19.048 -21.844  0.00  0.00    -0.059 C 
ATOM      6  C   UNL     1      34.997 -19.760 -22.821  0.00  0.00    -0.002 C 
ATOM      7  C   UNL     1      35.477 -17.604 -21.621  0.00  0.00    -0.002 C 
ATOM      8  C   UNL     1      34.877 -18.984 -24.130  0.00  0.00    +0.095 C 
ATOM      9  C   UNL     1      35.349 -16.859 -22.947  0.00  0.00    +0.095 C 
BRANCH   5  10
ATOM     10  N   UNL     1      35.974 -19.765 -20.571  0.00  0.00    +0.388 N 
ATOM     11  H   UNL     1      35.560 -19.179 -19.845  0.00  0.00    -0.084 HD
ATOM     12  H   UNL     1      36.944 -19.980 -20.343  0.00  0.00    -0.084 HD
BRANCH  10  13
ATOM     13  C   UNL     1      35.227 -21.011 -20.660  0.00  0.00    -0.051 C 
BRANCH  13  14
ATOM     14  C   UNL     1      35.183 -21.733 -19.340  0.00  0.00    -0.010 C 
ATOM     15  C   UNL     1      34.006 -22.331 -18.907  0.00  0.00    +0.128 C 
ATOM     16  C   UNL     1      36.336 -21.787 -18.567  0.00  0.00    -0.003 C 
ATOM     17  C   UNL     1      33.982 -22.995 -17.681  0.00  0.00    +0.036 C 
ATOM     18  C   UNL     1      36.311 -22.452 -17.340  0.00  0.00    -0.000 C 
ATOM     19  C   UNL     1      35.135 -23.055 -16.898  0.00  0.00    +0.003 C 
BRANCH  15  20
ATOM     20  O   UNL     1      32.871 -22.281 -19.660  0.00  0.00    -0.506 OA
ATOM     21  H   UNL     1      32.034 -22.220 -19.243  0.00  0.00    +0.292 HD
ENDBRANCH  15  20
ENDBRANCH  13  14
ENDBRANCH  10  13
ENDBRANCH   5  10
ENDBRANCH   1   4
BRANCH   1  22
ATOM     22  N   UNL     1      33.082 -15.382 -24.443  0.00  0.00    -0.205 N 
ATOM     23  H   UNL     1      32.471 -15.513 -23.682  0.00  0.00    +0.175 HD
BRANCH  22  24
ATOM     24  C   UNL     1      33.363 -14.070 -24.967  0.00  0.00    +0.069 C 
ATOM     25  C   UNL     1      33.857 -13.085 -24.121  0.00  0.00    +0.053 C 
ATOM     26  C   UNL     1      33.137 -13.806 -26.312  0.00  0.00    +0.016 C 
ATOM     27  C   UNL     1      34.128 -11.815 -24.630  0.00  0.00    +0.147 C 
ATOM     28  C   UNL     1      33.408 -12.536 -26.819  0.00  0.00    +0.004 C 
ATOM     29  C   UNL     1      33.904 -11.541 -25.979  0.00  0.00    +0.038 C 
BRANCH  27  30
ATOM     30  O   UNL     1      34.610 -10.842 -23.808  0.00  0.00    -0.453 OA
BRANCH  30  32
ATOM     31  F   UNL     1      31.492  -6.394 -23.012  0.00  0.00    -0.204 F 
ATOM     32  C   UNL     1      33.824  -9.720 -23.607  0.00  0.00    +0.145 C 
ATOM     33  C   UNL     1      32.527  -9.879 -23.152  0.00  0.00    +0.040 C 
ATOM     34  C   UNL     1      34.355  -8.470 -23.865  0.00  0.00    +0.040 C 
ATOM     35  C   UNL     1      31.735  -8.749 -22.950  0.00  0.00    +0.033 C 
ATOM     36  C   UNL     1      33.563  -7.340 -23.664  0.00  0.00    +0.033 C 
ATOM     37  C   UNL     1      32.253  -7.480 -23.206  0.00  0.00    +0.140 C 
ENDBRANCH  30  32
ENDBRANCH  27  30
ENDBRANCH  22  24
ENDBRANCH   1  22
TORSDOF 9
ENDMDL
MODEL 9
REMARK VINA RESULT:     -11.6      5.178     12.525
REMARK  Name = 5287728
REMARK  9 active torsions:
REMARK  status: ('A' for Active; 'I' for Inactive)
REMARK    1  A    between atoms: S_1  and  N_4
REMARK    2  A    between atoms: S_1  and  N_22
REMARK    3  A    between atoms: C_5  and  N_10
REMARK    4  A    between atoms: N_10  and  C_13
REMARK    5  A    between atoms: C_13  and  C_14
REMARK    6  A    between atoms: C_15  and  O_20
REMARK    7  A    between atoms: N_22  and  C_24
REMARK    8  A    between atoms: C_27  and  O_30
REMARK    9  A    between atoms: O_30  and  C_32
REMARK                            x       y       z     vdW  Elec       q    Type
REMARK                         _______ _______ _______ _____ _____    ______ ____
ROOT
ATOM      1  S   UNL     1      33.162 -13.656 -23.264  0.00  0.00    +0.113 S 
ATOM      2  O   UNL     1      32.316 -13.827 -22.097  0.00  0.00    -0.138 OA
ATOM      3  O   UNL     1      32.696 -14.086 -24.571  0.00  0.00    -0.138 OA
ENDROOT
BRANCH   1   4
ATOM      4  N   UNL     1      33.606 -12.003 -23.362  0.00  0.00    -0.143 NA
ATOM      5  C   UNL     1      33.879  -9.181 -24.012  0.00  0.00    -0.059 C 
ATOM      6  C   UNL     1      34.910 -10.222 -24.463  0.00  0.00    -0.002 C 
ATOM      7  C   UNL     1      33.171  -9.655 -22.738  0.00  0.00    -0.002 C 
ATOM      8  C   UNL     1      34.263 -11.594 -24.638  0.00  0.00    +0.095 C 
ATOM      9  C   UNL     1      32.551 -11.035 -22.937  0.00  0.00    +0.095 C 
BRANCH   5  10
ATOM     10  N   UNL     1      34.535  -7.898 -23.773  0.00  0.00    +0.388 N 
ATOM     11  H   UNL     1      34.627  -7.399 -24.659  0.00  0.00    -0.084 HD
ATOM     12  H   UNL     1      35.454  -8.070 -23.365  0.00  0.00    -0.084 HD
BRANCH  10  13
ATOM     13  C   UNL     1      33.758  -7.086 -22.848  0.00  0.00    -0.051 C 
BRANCH  13  14
ATOM     14  C   UNL     1      33.142  -5.894 -23.530  0.00  0.00    -0.010 C 
ATOM     15  C   UNL     1      32.207  -5.111 -22.865  0.00  0.00    +0.128 C 
ATOM     16  C   UNL     1      33.525  -5.595 -24.831  0.00  0.00    -0.003 C 
ATOM     17  C   UNL     1      31.646  -4.011 -23.512  0.00  0.00    +0.036 C 
ATOM     18  C   UNL     1      32.963  -4.495 -25.478  0.00  0.00    -0.000 C 
ATOM     19  C   UNL     1      32.024  -3.703 -24.819  0.00  0.00    +0.003 C 
BRANCH  15  20
ATOM     20  O   UNL     1      31.827  -5.399 -21.588  0.00  0.00    -0.506 OA
ATOM     21  H   UNL     1      31.444  -6.231 -21.389  0.00  0.00    +0.292 HD
ENDBRANCH  15  20
ENDBRANCH  13  14
ENDBRANCH  10  13
ENDBRANCH   5  10
ENDBRANCH   1   4
BRANCH   1  22
ATOM     22  N   UNL     1      34.690 -14.378 -22.913  0.00  0.00    -0.205 N 
ATOM     23  H   UNL     1      35.428 -13.858 -22.519  0.00  0.00    +0.175 HD
BRANCH  22  24
ATOM     24  C   UNL     1      34.834 -15.776 -23.223  0.00  0.00    +0.069 C 
ATOM     25  C   UNL     1      35.452 -16.621 -22.309  0.00  0.00    +0.053 C 
ATOM     26  C   UNL     1      34.355 -16.264 -24.432  0.00  0.00    +0.016 C 
ATOM     27  C   UNL     1      35.593 -17.976 -22.610  0.00  0.00    +0.147 C 
ATOM     28  C   UNL     1      34.496 -17.619 -24.732  0.00  0.00    +0.004 C 
ATOM     29  C   UNL     1      35.114 -18.474 -23.822  0.00  0.00    +0.038 C 
BRANCH  27  30
ATOM     30  O   UNL     1      36.198 -18.811 -21.722  0.00  0.00    -0.453 OA
BRANCH  30  32
ATOM     31  F   UNL     1      33.064 -22.524 -19.164  0.00  0.00    -0.204 F 
ATOM     32  C   UNL     1      35.407 -19.748 -21.077  0.00  0.00    +0.145 C 
ATOM     33  C   UNL     1      34.033 -19.681 -21.218  0.00  0.00    +0.040 C 
ATOM     34  C   UNL     1      36.013 -20.725 -20.308  0.00  0.00    +0.040 C 
ATOM     35  C   UNL     1      33.237 -20.625 -20.569  0.00  0.00    +0.033 C 
ATOM     36  C   UNL     1      35.217 -21.668 -19.657  0.00  0.00    +0.033 C 
ATOM     37  C   UNL     1      33.829 -21.618 -19.788  0.00  0.00    +0.140 C 
ENDBRANCH  30  32
ENDBRANCH  27  30
ENDBRANCH  22  24
ENDBRANCH   1  22
TORSDOF 9
ENDMDL
