MODEL 1
REMARK VINA RESULT:     -11.8      0.000      0.000
REMARK  Name = 448889
REMARK  5 active torsions:
REMARK  status: ('A' for Active; 'I' for Inactive)
REMARK    1  A    between atoms: C_1  and  N_2
REMARK    2  A    between atoms: C_1  and  C_16
REMARK    3  A    between atoms: C_6  and  C_10
REMARK    4  A    between atoms: C_16  and  C_17
REMARK    5  A    between atoms: C_17  and  C_21
REMARK                            x       y       z     vdW  Elec       q    Type
REMARK                         _______ _______ _______ _____ _____    ______ ____
ROOT
ATOM      1  C   UNL     1      34.907 -16.193 -24.669  0.00  0.00    -0.076 C 
ENDROOT
BRANCH   1   2
ATOM      2  N   UNL     1      34.623 -17.133 -23.588  0.00  0.00    +0.390 N 
ATOM      3  C   UNL     1      35.680 -17.106 -22.572  0.00  0.00    -0.072 C 
ATOM      4  C   UNL     1      35.273 -17.975 -21.373  0.00  0.00    +0.003 C 
ATOM      5  C   UNL     1      34.443 -18.495 -24.115  0.00  0.00    -0.051 C 
ATOM      6  C   UNL     1      34.760 -19.339 -21.778  0.00  0.00    -0.031 C 
ATOM      7  C   UNL     1      34.384 -19.560 -23.052  0.00  0.00    -0.053 C 
ATOM      8  H   UNL     1      33.752 -16.843 -23.143  0.00  0.00    -0.079 HD
BRANCH   6  10
ATOM      9  F   UNL     1      34.472 -23.349 -17.858  0.00  0.00    -0.204 F 
ATOM     10  C   UNL     1      34.683 -20.398 -20.744  0.00  0.00    -0.004 C 
ATOM     11  C   UNL     1      33.441 -20.862 -20.306  0.00  0.00    +0.002 C 
ATOM     12  C   UNL     1      35.854 -20.935 -20.204  0.00  0.00    +0.002 C 
ATOM     13  C   UNL     1      33.369 -21.859 -19.332  0.00  0.00    +0.030 C 
ATOM     14  C   UNL     1      35.782 -21.932 -19.230  0.00  0.00    +0.030 C 
ATOM     15  C   UNL     1      34.540 -22.393 -18.794  0.00  0.00    +0.140 C 
ENDBRANCH   6  10
ENDBRANCH   1   2
BRANCH   1  16
ATOM     16  C   UNL     1      33.786 -15.156 -24.778  0.00  0.00    -0.014 C 
BRANCH  16  17
ATOM     17  C   UNL     1      33.444 -14.524 -23.438  0.00  0.00    +0.074 C 
BRANCH  17  21
ATOM     18  O   UNL     1      34.991 -10.552 -25.411  0.00  0.00    -0.209 OA
ATOM     19  N   UNL     1      32.685 -12.326 -22.654  0.00  0.00    -0.290 N 
ATOM     20  N   UNL     1      34.241 -12.493 -24.453  0.00  0.00    -0.322 NA
ATOM     21  C   UNL     1      33.475 -13.020 -23.541  0.00  0.00    +0.173 C 
ATOM     22  C   UNL     1      32.672 -10.931 -22.704  0.00  0.00    +0.058 C 
ATOM     23  C   UNL     1      33.467 -10.280 -23.657  0.00  0.00    +0.108 C 
ATOM     24  C   UNL     1      31.889 -10.171 -21.831  0.00  0.00    -0.008 C 
ATOM     25  C   UNL     1      34.292 -11.116 -24.577  0.00  0.00    +0.207 C 
ATOM     26  C   UNL     1      33.482  -8.885 -23.741  0.00  0.00    +0.014 C 
ATOM     27  C   UNL     1      31.902  -8.777 -21.912  0.00  0.00    -0.003 C 
ATOM     28  C   UNL     1      32.697  -8.137 -22.863  0.00  0.00    +0.001 C 
ATOM     29  C   UNL     1      31.024 -10.815 -20.797  0.00  0.00    +0.032 C 
ATOM     30  H   UNL     1      32.136 -12.807 -21.995  0.00  0.00    +0.154 HD
ENDBRANCH  17  21
ENDBRANCH  16  17
ENDBRANCH   1  16
TORSDOF 5
ENDMDL
MODEL 2
REMARK VINA RESULT:     -11.8      3.636      6.321
REMARK  Name = 448889
REMARK  5 active torsions:
REMARK  status: ('A' for Active; 'I' for Inactive)
REMARK    1  A    between atoms: C_1  and  N_2
REMARK    2  A    between atoms: C_1  and  C_16
REMARK    3  A    between atoms: C_6  and  C_10
REMARK    4  A    between atoms: C_16  and  C_17
REMARK    5  A    between atoms: C_17  and  C_21
REMARK                            x       y       z     vdW  Elec       q    Type
REMARK                         _______ _______ _______ _____ _____    ______ ____
ROOT
ATOM      1  C   UNL     1      36.252 -21.219 -20.540  0.00  0.00    -0.076 C 
ENDROOT
BRANCH   1   2
ATOM      2  N   UNL     1      35.523 -22.047 -19.582  0.00  0.00    +0.390 N 
ATOM      3  C   UNL     1      34.124 -21.623 -19.473  0.00  0.00    -0.072 C 
ATOM      4  C   UNL     1      33.347 -22.611 -18.590  0.00  0.00    +0.003 C 
ATOM      5  C   UNL     1      36.179 -22.018 -18.265  0.00  0.00    -0.051 C 
ATOM      6  C   UNL     1      34.058 -22.931 -17.294  0.00  0.00    -0.031 C 
ATOM      7  C   UNL     1      35.368 -22.646 -17.163  0.00  0.00    -0.053 C 
ATOM      8  H   UNL     1      35.535 -23.007 -19.925  0.00  0.00    -0.079 HD
BRANCH   6  10
ATOM      9  F   UNL     1      31.106 -25.319 -13.158  0.00  0.00    -0.204 F 
ATOM     10  C   UNL     1      33.279 -23.561 -16.202  0.00  0.00    -0.004 C 
ATOM     11  C   UNL     1      33.936 -24.109 -15.098  0.00  0.00    +0.002 C 
ATOM     12  C   UNL     1      31.885 -23.609 -16.273  0.00  0.00    +0.002 C 
ATOM     13  C   UNL     1      33.203 -24.702 -14.069  0.00  0.00    +0.030 C 
ATOM     14  C   UNL     1      31.152 -24.201 -15.245  0.00  0.00    +0.030 C 
ATOM     15  C   UNL     1      31.810 -24.749 -14.144  0.00  0.00    +0.140 C 
ENDBRANCH   6  10
ENDBRANCH   1   2
BRANCH   1  16
ATOM     16  C   UNL     1      35.390 -20.031 -20.975  0.00  0.00    -0.014 C 
BRANCH  16  17
ATOM     17  C   UNL     1      36.218 -18.884 -21.533  0.00  0.00    +0.074 C 
BRANCH  17  21
ATOM     18  O   UNL     1      34.242 -18.979 -25.794  0.00  0.00    -0.209 OA
ATOM     19  N   UNL     1      35.187 -16.883 -22.510  0.00  0.00    -0.290 N 
ATOM     20  N   UNL     1      35.208 -18.939 -23.716  0.00  0.00    -0.322 NA
ATOM     21  C   UNL     1      35.490 -18.215 -22.672  0.00  0.00    +0.173 C 
ATOM     22  C   UNL     1      34.513 -16.211 -23.532  0.00  0.00    +0.058 C 
ATOM     23  C   UNL     1      34.167 -16.915 -24.693  0.00  0.00    +0.108 C 
ATOM     24  C   UNL     1      34.175 -14.859 -23.425  0.00  0.00    -0.008 C 
ATOM     25  C   UNL     1      34.539 -18.357 -24.780  0.00  0.00    +0.207 C 
ATOM     26  C   UNL     1      33.492 -16.280 -25.738  0.00  0.00    +0.014 C 
ATOM     27  C   UNL     1      33.500 -14.221 -24.468  0.00  0.00    -0.003 C 
ATOM     28  C   UNL     1      33.161 -14.930 -25.621  0.00  0.00    +0.001 C 
ATOM     29  C   UNL     1      34.519 -14.062 -22.209  0.00  0.00    +0.032 C 
ATOM     30  H   UNL     1      35.440 -16.411 -21.684  0.00  0.00    +0.154 HD
ENDBRANCH  17  21
ENDBRANCH  16  17
ENDBRANCH   1  16
TORSDOF 5
ENDMDL
MODEL 3
REMARK VINA RESULT:     -11.7      3.037      5.255
REMARK  Name = 448889
REMARK  5 active torsions:
REMARK  status: ('A' for Active; 'I' for Inactive)
REMARK    1  A    between atoms: C_1  and  N_2
REMARK    2  A    between atoms: C_1  and  C_16
REMARK    3  A    between atoms: C_6  and  C_10
REMARK    4  A    between atoms: C_16  and  C_17
REMARK    5  A    between atoms: C_17  and  C_21
REMARK                            x       y       z     vdW  Elec       q    Type
REMARK                         _______ _______ _______ _____ _____    ______ ____
ROOT
ATOM      1  C   UNL     1      34.485 -20.258 -21.461  0.00  0.00    -0.076 C 
ENDROOT
BRANCH   1   2
ATOM      2  N   UNL     1      34.769 -20.734 -20.109  0.00  0.00    +0.390 N 
ATOM      3  C   UNL     1      36.090 -21.366 -20.038  0.00  0.00    -0.072 C 
ATOM      4  C   UNL     1      36.428 -21.704 -18.578  0.00  0.00    +0.003 C 
ATOM      5  C   UNL     1      33.723 -21.664 -19.654  0.00  0.00    -0.051 C 
ATOM      6  C   UNL     1      35.301 -22.412 -17.859  0.00  0.00    -0.031 C 
ATOM      7  C   UNL     1      34.057 -22.383 -18.375  0.00  0.00    -0.053 C 
ATOM      8  H   UNL     1      34.772 -19.926 -19.487  0.00  0.00    -0.079 HD
BRANCH   6  10
ATOM      9  F   UNL     1      36.466 -25.078 -13.056  0.00  0.00    -0.204 F 
ATOM     10  C   UNL     1      35.608 -23.116 -16.591  0.00  0.00    -0.004 C 
ATOM     11  C   UNL     1      34.605 -23.817 -15.917  0.00  0.00    +0.002 C 
ATOM     12  C   UNL     1      36.902 -23.081 -16.067  0.00  0.00    +0.002 C 
ATOM     13  C   UNL     1      34.894 -24.480 -14.724  0.00  0.00    +0.030 C 
ATOM     14  C   UNL     1      37.191 -23.745 -14.874  0.00  0.00    +0.030 C 
ATOM     15  C   UNL     1      36.188 -24.443 -14.202  0.00  0.00    +0.140 C 
ENDBRANCH   6  10
ENDBRANCH   1   2
BRANCH   1  16
ATOM     16  C   UNL     1      35.537 -19.233 -21.892  0.00  0.00    -0.014 C 
BRANCH  16  17
ATOM     17  C   UNL     1      35.646 -19.109 -23.403  0.00  0.00    +0.074 C 
BRANCH  17  21
ATOM     18  O   UNL     1      33.367 -16.594 -26.651  0.00  0.00    -0.209 OA
ATOM     19  N   UNL     1      35.005 -16.776 -22.996  0.00  0.00    -0.290 N 
ATOM     20  N   UNL     1      34.479 -17.826 -25.071  0.00  0.00    -0.322 NA
ATOM     21  C   UNL     1      34.995 -17.833 -23.876  0.00  0.00    +0.173 C 
ATOM     22  C   UNL     1      34.417 -15.569 -23.380  0.00  0.00    +0.058 C 
ATOM     23  C   UNL     1      33.834 -15.473 -24.651  0.00  0.00    +0.108 C 
ATOM     24  C   UNL     1      34.393 -14.459 -22.530  0.00  0.00    -0.008 C 
ATOM     25  C   UNL     1      33.872 -16.672 -25.536  0.00  0.00    +0.207 C 
ATOM     26  C   UNL     1      33.234 -14.283 -25.072  0.00  0.00    +0.014 C 
ATOM     27  C   UNL     1      33.795 -13.269 -22.949  0.00  0.00    -0.003 C 
ATOM     28  C   UNL     1      33.218 -13.182 -24.216  0.00  0.00    +0.001 C 
ATOM     29  C   UNL     1      34.999 -14.509 -21.166  0.00  0.00    +0.032 C 
ATOM     30  H   UNL     1      35.421 -16.869 -22.110  0.00  0.00    +0.154 HD
ENDBRANCH  17  21
ENDBRANCH  16  17
ENDBRANCH   1  16
TORSDOF 5
ENDMDL
MODEL 4
REMARK VINA RESULT:     -11.7      1.266      2.143
REMARK  Name = 448889
REMARK  5 active torsions:
REMARK  status: ('A' for Active; 'I' for Inactive)
REMARK    1  A    between atoms: C_1  and  N_2
REMARK    2  A    between atoms: C_1  and  C_16
REMARK    3  A    between atoms: C_6  and  C_10
REMARK    4  A    between atoms: C_16  and  C_17
REMARK    5  A    between atoms: C_17  and  C_21
REMARK                            x       y       z     vdW  Elec       q    Type
REMARK                         _______ _______ _______ _____ _____    ______ ____
ROOT
ATOM      1  C   UNL     1      34.847 -16.395 -24.746  0.00  0.00    -0.076 C 
ENDROOT
BRANCH   1   2
ATOM      2  N   UNL     1      34.603 -17.290 -23.617  0.00  0.00    +0.390 N 
ATOM      3  C   UNL     1      35.740 -17.297 -22.692  0.00  0.00    -0.072 C 
ATOM      4  C   UNL     1      35.388 -18.111 -21.438  0.00  0.00    +0.003 C 
ATOM      5  C   UNL     1      34.307 -18.653 -24.086  0.00  0.00    -0.051 C 
ATOM      6  C   UNL     1      34.770 -19.454 -21.759  0.00  0.00    -0.031 C 
ATOM      7  C   UNL     1      34.278 -19.685 -22.991  0.00  0.00    -0.053 C 
ATOM      8  H   UNL     1      33.789 -16.940 -23.111  0.00  0.00    -0.079 HD
BRANCH   6  10
ATOM      9  F   UNL     1      34.591 -23.339 -17.709  0.00  0.00    -0.204 F 
ATOM     10  C   UNL     1      34.722 -20.480 -20.690  0.00  0.00    -0.004 C 
ATOM     11  C   UNL     1      33.493 -20.968 -20.241  0.00  0.00    +0.002 C 
ATOM     12  C   UNL     1      35.907 -20.962 -20.129  0.00  0.00    +0.002 C 
ATOM     13  C   UNL     1      33.448 -21.934 -19.235  0.00  0.00    +0.030 C 
ATOM     14  C   UNL     1      35.862 -21.928 -19.124  0.00  0.00    +0.030 C 
ATOM     15  C   UNL     1      34.633 -22.413 -18.676  0.00  0.00    +0.140 C 
ENDBRANCH   6  10
ENDBRANCH   1   2
BRANCH   1  16
ATOM     16  C   UNL     1      34.060 -15.094 -24.569  0.00  0.00    -0.014 C 
BRANCH  16  17
ATOM     17  C   UNL     1      33.819 -14.752 -23.108  0.00  0.00    +0.074 C 
BRANCH  17  21
ATOM     18  O   UNL     1      31.026 -11.445 -21.283  0.00  0.00    -0.209 OA
ATOM     19  N   UNL     1      34.079 -12.386 -23.704  0.00  0.00    -0.290 N 
ATOM     20  N   UNL     1      32.385 -13.063 -22.170  0.00  0.00    -0.322 NA
ATOM     21  C   UNL     1      33.381 -13.315 -22.968  0.00  0.00    +0.173 C 
ATOM     22  C   UNL     1      33.719 -11.040 -23.615  0.00  0.00    +0.058 C 
ATOM     23  C   UNL     1      32.656 -10.678 -22.776  0.00  0.00    +0.108 C 
ATOM     24  C   UNL     1      34.390 -10.049 -24.336  0.00  0.00    -0.008 C 
ATOM     25  C   UNL     1      31.958 -11.755 -22.016  0.00  0.00    +0.207 C 
ATOM     26  C   UNL     1      32.265  -9.341 -22.657  0.00  0.00    +0.014 C 
ATOM     27  C   UNL     1      34.002  -8.713 -24.219  0.00  0.00    -0.003 C 
ATOM     28  C   UNL     1      32.942  -8.361 -23.383  0.00  0.00    +0.001 C 
ATOM     29  C   UNL     1      35.530 -10.381 -25.243  0.00  0.00    +0.032 C 
ATOM     30  H   UNL     1      34.821 -12.667 -24.286  0.00  0.00    +0.154 HD
ENDBRANCH  17  21
ENDBRANCH  16  17
ENDBRANCH   1  16
TORSDOF 5
ENDMDL
MODEL 5
REMARK VINA RESULT:     -11.6      6.852     12.821
REMARK  Name = 448889
REMARK  5 active torsions:
REMARK  status: ('A' for Active; 'I' for Inactive)
REMARK    1  A    between atoms: C_1  and  N_2
REMARK    2  A    between atoms: C_1  and  C_16
REMARK    3  A    between atoms: C_6  and  C_10
REMARK    4  A    between atoms: C_16  and  C_17
REMARK    5  A    between atoms: C_17  and  C_21
REMARK                            x       y       z     vdW  Elec       q    Type
REMARK                         _______ _______ _______ _____ _____    ______ ____
ROOT
ATOM      1  C   UNL     1      34.876 -23.123 -17.519  0.00  0.00    -0.076 C 
ENDROOT
BRANCH   1   2
ATOM      2  N   UNL     1      34.834 -21.981 -18.430  0.00  0.00    +0.390 N 
ATOM      3  C   UNL     1      33.781 -22.147 -19.437  0.00  0.00    -0.072 C 
ATOM      4  C   UNL     1      33.649 -20.864 -20.271  0.00  0.00    +0.003 C 
ATOM      5  C   UNL     1      36.141 -21.780 -19.075  0.00  0.00    -0.051 C 
ATOM      6  C   UNL     1      34.980 -20.341 -20.765  0.00  0.00    -0.031 C 
ATOM      7  C   UNL     1      36.121 -20.780 -20.200  0.00  0.00    -0.053 C 
ATOM      8  H   UNL     1      34.615 -21.150 -17.880  0.00  0.00    -0.079 HD
BRANCH   6  10
ATOM      9  F   UNL     1      34.988 -16.576 -24.930  0.00  0.00    -0.204 F 
ATOM     10  C   UNL     1      34.981 -19.348 -21.865  0.00  0.00    -0.004 C 
ATOM     11  C   UNL     1      34.444 -19.680 -23.111  0.00  0.00    +0.002 C 
ATOM     12  C   UNL     1      35.519 -18.076 -21.658  0.00  0.00    +0.002 C 
ATOM     13  C   UNL     1      34.446 -18.744 -24.146  0.00  0.00    +0.030 C 
ATOM     14  C   UNL     1      35.520 -17.140 -22.693  0.00  0.00    +0.030 C 
ATOM     15  C   UNL     1      34.985 -17.474 -23.937  0.00  0.00    +0.140 C 
ENDBRANCH   6  10
ENDBRANCH   1   2
BRANCH   1  16
ATOM     16  C   UNL     1      33.488 -23.378 -16.926  0.00  0.00    -0.014 C 
BRANCH  16  17
ATOM     17  C   UNL     1      33.533 -23.639 -15.429  0.00  0.00    +0.074 C 
BRANCH  17  21
ATOM     18  O   UNL     1      36.474 -27.248 -16.058  0.00  0.00    -0.209 OA
ATOM     19  N   UNL     1      35.526 -23.924 -14.027  0.00  0.00    -0.290 N 
ATOM     20  N   UNL     1      35.035 -25.490 -15.756  0.00  0.00    -0.322 NA
ATOM     21  C   UNL     1      34.773 -24.418 -15.066  0.00  0.00    +0.173 C 
ATOM     22  C   UNL     1      36.685 -24.604 -13.647  0.00  0.00    +0.058 C 
ATOM     23  C   UNL     1      37.045 -25.769 -14.338  0.00  0.00    +0.108 C 
ATOM     24  C   UNL     1      37.494 -24.152 -12.600  0.00  0.00    -0.008 C 
ATOM     25  C   UNL     1      36.166 -26.228 -15.451  0.00  0.00    +0.207 C 
ATOM     26  C   UNL     1      38.198 -26.478 -13.989  0.00  0.00    +0.014 C 
ATOM     27  C   UNL     1      38.646 -24.858 -12.249  0.00  0.00    -0.003 C 
ATOM     28  C   UNL     1      38.996 -26.017 -12.942  0.00  0.00    +0.001 C 
ATOM     29  C   UNL     1      37.156 -22.916 -11.831  0.00  0.00    +0.032 C 
ATOM     30  H   UNL     1      35.252 -23.104 -13.558  0.00  0.00    +0.154 HD
ENDBRANCH  17  21
ENDBRANCH  16  17
ENDBRANCH   1  16
TORSDOF 5
ENDMDL
MODEL 6
REMARK VINA RESULT:     -11.6      1.542      2.386
REMARK  Name = 448889
REMARK  5 active torsions:
REMARK  status: ('A' for Active; 'I' for Inactive)
REMARK    1  A    between atoms: C_1  and  N_2
REMARK    2  A    between atoms: C_1  and  C_16
REMARK    3  A    between atoms: C_6  and  C_10
REMARK    4  A    between atoms: C_16  and  C_17
REMARK    5  A    between atoms: C_17  and  C_21
REMARK                            x       y       z     vdW  Elec       q    Type
REMARK                         _______ _______ _______ _____ _____    ______ ____
ROOT
ATOM      1  C   UNL     1      34.656 -15.913 -24.822  0.00  0.00    -0.076 C 
ENDROOT
BRANCH   1   2
ATOM      2  N   UNL     1      34.447 -16.901 -23.767  0.00  0.00    +0.390 N 
ATOM      3  C   UNL     1      35.419 -16.730 -22.682  0.00  0.00    -0.072 C 
ATOM      4  C   UNL     1      35.070 -17.669 -21.517  0.00  0.00    +0.003 C 
ATOM      5  C   UNL     1      34.513 -18.267 -24.312  0.00  0.00    -0.051 C 
ATOM      6  C   UNL     1      34.799 -19.089 -21.963  0.00  0.00    -0.031 C 
ATOM      7  C   UNL     1      34.546 -19.344 -23.262  0.00  0.00    -0.053 C 
ATOM      8  H   UNL     1      33.515 -16.754 -23.381  0.00  0.00    -0.079 HD
BRANCH   6  10
ATOM      9  F   UNL     1      34.860 -23.159 -18.095  0.00  0.00    -0.204 F 
ATOM     10  C   UNL     1      34.816 -20.163 -20.942  0.00  0.00    -0.004 C 
ATOM     11  C   UNL     1      36.031 -20.638 -20.443  0.00  0.00    +0.002 C 
ATOM     12  C   UNL     1      33.616 -20.703 -20.475  0.00  0.00    +0.002 C 
ATOM     13  C   UNL     1      36.047 -21.648 -19.482  0.00  0.00    +0.030 C 
ATOM     14  C   UNL     1      33.632 -21.714 -19.513  0.00  0.00    +0.030 C 
ATOM     15  C   UNL     1      34.846 -22.187 -19.017  0.00  0.00    +0.140 C 
ENDBRANCH   6  10
ENDBRANCH   1   2
BRANCH   1  16
ATOM     16  C   UNL     1      33.418 -15.025 -24.968  0.00  0.00    -0.014 C 
BRANCH  16  17
ATOM     17  C   UNL     1      33.747 -13.544 -24.870  0.00  0.00    +0.074 C 
BRANCH  17  21
ATOM     18  O   UNL     1      32.084 -14.016 -20.501  0.00  0.00    -0.209 OA
ATOM     19  N   UNL     1      33.047 -11.597 -23.551  0.00  0.00    -0.290 N 
ATOM     20  N   UNL     1      32.896 -13.792 -22.633  0.00  0.00    -0.322 NA
ATOM     21  C   UNL     1      33.193 -12.964 -23.592  0.00  0.00    +0.173 C 
ATOM     22  C   UNL     1      32.539 -11.004 -22.393  0.00  0.00    +0.058 C 
ATOM     23  C   UNL     1      32.194 -11.822 -21.308  0.00  0.00    +0.108 C 
ATOM     24  C   UNL     1      32.369  -9.621 -22.288  0.00  0.00    -0.008 C 
ATOM     25  C   UNL     1      32.387 -13.294 -21.446  0.00  0.00    +0.207 C 
ATOM     26  C   UNL     1      31.683 -11.268 -20.131  0.00  0.00    +0.014 C 
ATOM     27  C   UNL     1      31.859  -9.064 -21.114  0.00  0.00    -0.003 C 
ATOM     28  C   UNL     1      31.516  -9.886 -20.040  0.00  0.00    +0.001 C 
ATOM     29  C   UNL     1      32.721  -8.704 -23.414  0.00  0.00    +0.032 C 
ATOM     30  H   UNL     1      33.297 -11.045 -24.326  0.00  0.00    +0.154 HD
ENDBRANCH  17  21
ENDBRANCH  16  17
ENDBRANCH   1  16
TORSDOF 5
ENDMDL
MODEL 7
REMARK VINA RESULT:     -11.5      6.526     11.726
REMARK  Name = 448889
REMARK  5 active torsions:
REMARK  status: ('A' for Active; 'I' for Inactive)
REMARK    1  A    between atoms: C_1  and  N_2
REMARK    2  A    between atoms: C_1  and  C_16
REMARK    3  A    between atoms: C_6  and  C_10
REMARK    4  A    between atoms: C_16  and  C_17
REMARK    5  A    between atoms: C_17  and  C_21
REMARK                            x       y       z     vdW  Elec       q    Type
REMARK                         _______ _______ _______ _____ _____    ______ ____
ROOT
ATOM      1  C   UNL     1      36.572 -22.211 -18.105  0.00  0.00    -0.076 C 
ENDROOT
BRANCH   1   2
ATOM      2  N   UNL     1      36.146 -21.145 -19.008  0.00  0.00    +0.390 N 
ATOM      3  C   UNL     1      35.056 -21.595 -19.880  0.00  0.00    -0.072 C 
ATOM      4  C   UNL     1      34.519 -20.411 -20.698  0.00  0.00    +0.003 C 
ATOM      5  C   UNL     1      37.280 -20.654 -19.807  0.00  0.00    -0.051 C 
ATOM      6  C   UNL     1      35.614 -19.598 -21.351  0.00  0.00    -0.031 C 
ATOM      7  C   UNL     1      36.886 -19.727 -20.925  0.00  0.00    -0.053 C 
ATOM      8  H   UNL     1      35.796 -20.374 -18.440  0.00  0.00    -0.079 HD
BRANCH   6  10
ATOM      9  F   UNL     1      34.211 -16.090 -25.504  0.00  0.00    -0.204 F 
ATOM     10  C   UNL     1      35.245 -18.672 -22.447  0.00  0.00    -0.004 C 
ATOM     11  C   UNL     1      35.466 -17.300 -22.310  0.00  0.00    +0.002 C 
ATOM     12  C   UNL     1      34.674 -19.169 -23.621  0.00  0.00    +0.002 C 
ATOM     13  C   UNL     1      35.118 -16.428 -23.342  0.00  0.00    +0.030 C 
ATOM     14  C   UNL     1      34.326 -18.296 -24.653  0.00  0.00    +0.030 C 
ATOM     15  C   UNL     1      34.547 -16.926 -24.514  0.00  0.00    +0.140 C 
ENDBRANCH   6  10
ENDBRANCH   1   2
BRANCH   1  16
ATOM     16  C   UNL     1      36.994 -21.623 -16.756  0.00  0.00    -0.014 C 
BRANCH  16  17
ATOM     17  C   UNL     1      37.272 -22.695 -15.714  0.00  0.00    +0.074 C 
BRANCH  17  21
ATOM     18  O   UNL     1      34.813 -24.669 -12.232  0.00  0.00    -0.209 OA
ATOM     19  N   UNL     1      34.862 -23.107 -15.924  0.00  0.00    -0.290 N 
ATOM     20  N   UNL     1      36.018 -23.707 -13.927  0.00  0.00    -0.322 NA
ATOM     21  C   UNL     1      35.980 -23.208 -15.129  0.00  0.00    +0.173 C 
ATOM     22  C   UNL     1      33.638 -23.566 -15.434  0.00  0.00    +0.058 C 
ATOM     23  C   UNL     1      33.586 -24.117 -14.146  0.00  0.00    +0.108 C 
ATOM     24  C   UNL     1      32.466 -23.489 -16.193  0.00  0.00    -0.008 C 
ATOM     25  C   UNL     1      34.851 -24.186 -13.358  0.00  0.00    +0.207 C 
ATOM     26  C   UNL     1      32.380 -24.587 -13.619  0.00  0.00    +0.014 C 
ATOM     27  C   UNL     1      31.260 -23.958 -15.669  0.00  0.00    -0.003 C 
ATOM     28  C   UNL     1      31.218 -24.506 -14.386  0.00  0.00    +0.001 C 
ATOM     29  C   UNL     1      32.466 -22.910 -17.570  0.00  0.00    +0.032 C 
ATOM     30  H   UNL     1      34.925 -22.716 -16.824  0.00  0.00    +0.154 HD
ENDBRANCH  17  21
ENDBRANCH  16  17
ENDBRANCH   1  16
TORSDOF 5
ENDMDL
MODEL 8
REMARK VINA RESULT:     -11.4      4.142     10.399
REMARK  Name = 448889
REMARK  5 active torsions:
REMARK  status: ('A' for Active; 'I' for Inactive)
REMARK    1  A    between atoms: C_1  and  N_2
REMARK    2  A    between atoms: C_1  and  C_16
REMARK    3  A    between atoms: C_6  and  C_10
REMARK    4  A    between atoms: C_16  and  C_17
REMARK    5  A    between atoms: C_17  and  C_21
REMARK                            x       y       z     vdW  Elec       q    Type
REMARK                         _______ _______ _______ _____ _____    ______ ____
ROOT
ATOM      1  C   UNL     1      33.772 -15.086 -24.384  0.00  0.00    -0.076 C 
ENDROOT
BRANCH   1   2
ATOM      2  N   UNL     1      33.840 -13.700 -23.925  0.00  0.00    +0.390 N 
ATOM      3  C   UNL     1      32.689 -13.366 -23.081  0.00  0.00    -0.072 C 
ATOM      4  C   UNL     1      32.873 -11.964 -22.480  0.00  0.00    +0.003 C 
ATOM      5  C   UNL     1      33.933 -12.777 -25.067  0.00  0.00    -0.051 C 
ATOM      6  C   UNL     1      33.282 -10.930 -23.505  0.00  0.00    -0.031 C 
ATOM      7  C   UNL     1      33.768 -11.328 -24.697  0.00  0.00    -0.053 C 
ATOM      8  H   UNL     1      34.684 -13.599 -23.360  0.00  0.00    -0.079 HD
BRANCH   6  10
ATOM      9  F   UNL     1      32.738  -5.500 -22.185  0.00  0.00    -0.204 F 
ATOM     10  C   UNL     1      33.138  -9.497 -23.156  0.00  0.00    -0.004 C 
ATOM     11  C   UNL     1      31.958  -9.033 -22.572  0.00  0.00    +0.002 C 
ATOM     12  C   UNL     1      34.183  -8.606 -23.410  0.00  0.00    +0.002 C 
ATOM     13  C   UNL     1      31.822  -7.683 -22.243  0.00  0.00    +0.030 C 
ATOM     14  C   UNL     1      34.048  -7.257 -23.081  0.00  0.00    +0.030 C 
ATOM     15  C   UNL     1      32.868  -6.795 -22.499  0.00  0.00    +0.140 C 
ENDBRANCH   6  10
ENDBRANCH   1   2
BRANCH   1  16
ATOM     16  C   UNL     1      34.701 -15.967 -23.545  0.00  0.00    -0.014 C 
BRANCH  16  17
ATOM     17  C   UNL     1      34.626 -17.434 -23.938  0.00  0.00    +0.074 C 
BRANCH  17  21
ATOM     18  O   UNL     1      38.372 -18.935 -21.533  0.00  0.00    -0.209 OA
ATOM     19  N   UNL     1      34.419 -19.124 -22.172  0.00  0.00    -0.290 N 
ATOM     20  N   UNL     1      36.549 -18.199 -22.710  0.00  0.00    -0.322 NA
ATOM     21  C   UNL     1      35.262 -18.297 -22.877  0.00  0.00    +0.173 C 
ATOM     22  C   UNL     1      34.952 -19.947 -21.177  0.00  0.00    +0.058 C 
ATOM     23  C   UNL     1      36.330 -19.903 -20.928  0.00  0.00    +0.108 C 
ATOM     24  C   UNL     1      34.147 -20.807 -20.425  0.00  0.00    -0.008 C 
ATOM     25  C   UNL     1      37.165 -18.975 -21.744  0.00  0.00    +0.207 C 
ATOM     26  C   UNL     1      36.902 -20.709 -19.940  0.00  0.00    +0.014 C 
ATOM     27  C   UNL     1      34.716 -21.614 -19.437  0.00  0.00    -0.003 C 
ATOM     28  C   UNL     1      36.089 -21.565 -19.197  0.00  0.00    +0.001 C 
ATOM     29  C   UNL     1      32.672 -20.891 -20.649  0.00  0.00    +0.032 C 
ATOM     30  H   UNL     1      33.454 -19.136 -22.366  0.00  0.00    +0.154 HD
ENDBRANCH  17  21
ENDBRANCH  16  17
ENDBRANCH   1  16
TORSDOF 5
ENDMDL
MODEL 9
REMARK VINA RESULT:     -11.3      5.586     11.273
REMARK  Name = 448889
REMARK  5 active torsions:
REMARK  status: ('A' for Active; 'I' for Inactive)
REMARK    1  A    between atoms: C_1  and  N_2
REMARK    2  A    between atoms: C_1  and  C_16
REMARK    3  A    between atoms: C_6  and  C_10
REMARK    4  A    between atoms: C_16  and  C_17
REMARK    5  A    between atoms: C_17  and  C_21
REMARK                            x       y       z     vdW  Elec       q    Type
REMARK                         _______ _______ _______ _____ _____    ______ ____
ROOT
ATOM      1  C   UNL     1      36.739 -21.511 -19.503  0.00  0.00    -0.076 C 
ENDROOT
BRANCH   1   2
ATOM      2  N   UNL     1      36.147 -20.389 -20.227  0.00  0.00    +0.390 N 
ATOM      3  C   UNL     1      35.202 -20.857 -21.246  0.00  0.00    -0.072 C 
ATOM      4  C   UNL     1      34.475 -19.657 -21.873  0.00  0.00    +0.003 C 
ATOM      5  C   UNL     1      37.193 -19.551 -20.834  0.00  0.00    -0.051 C 
ATOM      6  C   UNL     1      35.414 -18.545 -22.282  0.00  0.00    -0.031 C 
ATOM      7  C   UNL     1      36.668 -18.515 -21.792  0.00  0.00    -0.053 C 
ATOM      8  H   UNL     1      35.630 -19.821 -19.556  0.00  0.00    -0.079 HD
BRANCH   6  10
ATOM      9  F   UNL     1      33.512 -14.622 -25.821  0.00  0.00    -0.204 F 
ATOM     10  C   UNL     1      34.912 -17.509 -23.216  0.00  0.00    -0.004 C 
ATOM     11  C   UNL     1      34.879 -16.169 -22.825  0.00  0.00    +0.002 C 
ATOM     12  C   UNL     1      34.472 -17.870 -24.491  0.00  0.00    +0.002 C 
ATOM     13  C   UNL     1      34.407 -15.194 -23.704  0.00  0.00    +0.030 C 
ATOM     14  C   UNL     1      34.000 -16.895 -25.371  0.00  0.00    +0.030 C 
ATOM     15  C   UNL     1      33.966 -15.557 -24.977  0.00  0.00    +0.140 C 
ENDBRANCH   6  10
ENDBRANCH   1   2
BRANCH   1  16
ATOM     16  C   UNL     1      35.785 -21.996 -18.408  0.00  0.00    -0.014 C 
BRANCH  16  17
ATOM     17  C   UNL     1      34.526 -22.634 -18.971  0.00  0.00    +0.074 C 
BRANCH  17  21
ATOM     18  O   UNL     1      30.162 -22.650 -17.231  0.00  0.00    -0.209 OA
ATOM     19  N   UNL     1      34.054 -23.460 -16.709  0.00  0.00    -0.290 N 
ATOM     20  N   UNL     1      32.289 -22.639 -18.085  0.00  0.00    -0.322 NA
ATOM     21  C   UNL     1      33.540 -22.921 -17.866  0.00  0.00    +0.173 C 
ATOM     22  C   UNL     1      33.188 -23.747 -15.652  0.00  0.00    +0.058 C 
ATOM     23  C   UNL     1      31.822 -23.476 -15.803  0.00  0.00    +0.108 C 
ATOM     24  C   UNL     1      33.649 -24.296 -14.452  0.00  0.00    -0.008 C 
ATOM     25  C   UNL     1      31.357 -22.892 -17.093  0.00  0.00    +0.207 C 
ATOM     26  C   UNL     1      30.922 -23.750 -14.769  0.00  0.00    +0.014 C 
ATOM     27  C   UNL     1      32.753 -24.570 -13.417  0.00  0.00    -0.003 C 
ATOM     28  C   UNL     1      31.394 -24.297 -13.575  0.00  0.00    +0.001 C 
ATOM     29  C   UNL     1      35.096 -24.604 -14.240  0.00  0.00    +0.032 C 
ATOM     30  H   UNL     1      35.018 -23.640 -16.628  0.00  0.00    +0.154 HD
ENDBRANCH  17  21
ENDBRANCH  16  17
ENDBRANCH   1  16
TORSDOF 5
ENDMDL
