MODEL 1
REMARK VINA RESULT:     -11.7      0.000      0.000
REMARK  Name = 23586145
REMARK  7 active torsions:
REMARK  status: ('A' for Active; 'I' for Inactive)
REMARK    1  A    between atoms: C_5  and  O_24
REMARK    2  A    between atoms: C_7  and  N_10
REMARK    3  A    between atoms: N_10  and  C_12
REMARK    4  A    between atoms: C_15  and  S_18
REMARK    5  A    between atoms: S_18  and  N_21
REMARK    6  A    between atoms: O_24  and  C_25
REMARK    7  A    between atoms: C_25  and  C_26
REMARK                            x       y       z     vdW  Elec       q    Type
REMARK                         _______ _______ _______ _____ _____    ______ ____
ROOT
ATOM      1  N   UNL     1      34.094 -16.092 -24.471  0.00  0.00    -0.299 NA
ATOM      2  N   UNL     1      34.892 -18.291 -23.912  0.00  0.00    -0.106 N 
ATOM      3  N   UNL     1      34.864 -19.541 -24.444  0.00  0.00    -0.139 NA
ATOM      4  N   UNL     1      33.770 -18.088 -25.815  0.00  0.00    -0.145 NA
ATOM      5  C   UNL     1      34.642 -15.719 -23.360  0.00  0.00    +0.291 C 
ATOM      6  C   UNL     1      35.377 -16.556 -22.387  0.00  0.00    +0.105 C 
ATOM      7  C   UNL     1      35.476 -17.857 -22.712  0.00  0.00    +0.142 C 
ATOM      8  C   UNL     1      34.214 -17.418 -24.771  0.00  0.00    +0.178 C 
ATOM      9  C   UNL     1      34.185 -19.357 -25.572  0.00  0.00    +0.230 C 
ENDROOT
BRANCH   7  10
ATOM     10  N   UNL     1      36.115 -18.790 -21.947  0.00  0.00    -0.299 N 
ATOM     11  H   UNL     1      37.099 -18.755 -21.960  0.00  0.00    +0.153 HD
BRANCH  10  12
ATOM     12  C   UNL     1      35.552 -19.792 -21.148  0.00  0.00    +0.049 C 
ATOM     13  C   UNL     1      34.162 -19.960 -21.096  0.00  0.00    +0.016 C 
ATOM     14  C   UNL     1      36.372 -20.638 -20.391  0.00  0.00    +0.016 C 
ATOM     15  C   UNL     1      34.425 -21.796 -19.548  0.00  0.00    +0.122 C 
ATOM     16  C   UNL     1      33.602 -20.958 -20.299  0.00  0.00    +0.021 C 
ATOM     17  C   UNL     1      35.811 -21.636 -19.594  0.00  0.00    +0.021 C 
BRANCH  15  18
ATOM     18  S   UNL     1      33.723 -23.046 -18.551  0.00  0.00    +0.057 S 
ATOM     19  O   UNL     1      32.400 -22.608 -18.130  0.00  0.00    -0.153 OA
ATOM     20  O   UNL     1      33.880 -24.323 -19.232  0.00  0.00    -0.153 OA
BRANCH  18  21
ATOM     21  N   UNL     1      34.771 -23.011 -17.202  0.00  0.00    -0.203 NA
ATOM     22  H   UNL     1      34.560 -22.194 -16.629  0.00  0.00    +0.144 HD
ATOM     23  H   UNL     1      35.737 -22.961 -17.523  0.00  0.00    +0.144 HD
ENDBRANCH  18  21
ENDBRANCH  15  18
ENDBRANCH  10  12
ENDBRANCH   7  10
BRANCH   5  24
ATOM     24  O   UNL     1      34.578 -14.446 -22.982  0.00  0.00    -0.451 OA
BRANCH  24  25
ATOM     25  C   UNL     1      33.637 -13.654 -23.684  0.00  0.00    +0.208 C 
BRANCH  25  26
ATOM     26  C   UNL     1      33.283 -12.444 -22.822  0.00  0.00    +0.044 C 
ATOM     27  C   UNL     1      33.149 -11.183 -23.687  0.00  0.00    +0.004 C 
ATOM     28  C   UNL     1      31.996 -12.701 -22.028  0.00  0.00    +0.004 C 
ATOM     29  C   UNL     1      32.744  -9.968 -22.854  0.00  0.00    +0.000 C 
ATOM     30  C   UNL     1      31.592 -11.484 -21.198  0.00  0.00    +0.000 C 
ATOM     31  C   UNL     1      31.469 -10.232 -22.061  0.00  0.00    +0.000 C 
ENDBRANCH  25  26
ENDBRANCH  24  25
ENDBRANCH   5  24
TORSDOF 7
ENDMDL
MODEL 2
REMARK VINA RESULT:     -11.6      6.943     10.321
REMARK  Name = 23586145
REMARK  7 active torsions:
REMARK  status: ('A' for Active; 'I' for Inactive)
REMARK    1  A    between atoms: C_5  and  O_24
REMARK    2  A    between atoms: C_7  and  N_10
REMARK    3  A    between atoms: N_10  and  C_12
REMARK    4  A    between atoms: C_15  and  S_18
REMARK    5  A    between atoms: S_18  and  N_21
REMARK    6  A    between atoms: O_24  and  C_25
REMARK    7  A    between atoms: C_25  and  C_26
REMARK                            x       y       z     vdW  Elec       q    Type
REMARK                         _______ _______ _______ _____ _____    ______ ____
ROOT
ATOM      1  N   UNL     1      31.550 -23.673 -16.313  0.00  0.00    -0.299 NA
ATOM      2  N   UNL     1      32.335 -24.629 -14.250  0.00  0.00    -0.106 N 
ATOM      3  N   UNL     1      31.805 -25.187 -13.130  0.00  0.00    -0.139 NA
ATOM      4  N   UNL     1      30.138 -24.573 -14.555  0.00  0.00    -0.145 NA
ATOM      5  C   UNL     1      32.800 -23.489 -16.589  0.00  0.00    +0.291 C 
ATOM      6  C   UNL     1      33.972 -23.840 -15.757  0.00  0.00    +0.105 C 
ATOM      7  C   UNL     1      33.683 -24.417 -14.576  0.00  0.00    +0.142 C 
ATOM      8  C   UNL     1      31.292 -24.260 -15.109  0.00  0.00    +0.178 C 
ATOM      9  C   UNL     1      30.499 -25.126 -13.369  0.00  0.00    +0.230 C 
ENDROOT
BRANCH   7  10
ATOM     10  N   UNL     1      34.622 -24.814 -13.669  0.00  0.00    -0.299 N 
ATOM     11  H   UNL     1      34.300 -24.946 -12.748  0.00  0.00    +0.153 HD
BRANCH  10  12
ATOM     12  C   UNL     1      35.984 -25.057 -13.879  0.00  0.00    +0.049 C 
ATOM     13  C   UNL     1      36.398 -26.037 -14.790  0.00  0.00    +0.016 C 
ATOM     14  C   UNL     1      36.951 -24.323 -13.179  0.00  0.00    +0.016 C 
ATOM     15  C   UNL     1      38.711 -25.543 -14.297  0.00  0.00    +0.122 C 
ATOM     16  C   UNL     1      37.756 -26.279 -14.998  0.00  0.00    +0.021 C 
ATOM     17  C   UNL     1      38.309 -24.564 -13.388  0.00  0.00    +0.021 C 
BRANCH  15  18
ATOM     18  S   UNL     1      40.411 -25.846 -14.558  0.00  0.00    +0.057 S 
ATOM     19  O   UNL     1      41.143 -24.618 -14.284  0.00  0.00    -0.153 OA
ATOM     20  O   UNL     1      40.773 -27.075 -13.866  0.00  0.00    -0.153 OA
BRANCH  18  21
ATOM     21  N   UNL     1      40.433 -26.138 -16.242  0.00  0.00    -0.203 NA
ATOM     22  H   UNL     1      40.699 -27.107 -16.414  0.00  0.00    +0.144 HD
ATOM     23  H   UNL     1      41.108 -25.516 -16.685  0.00  0.00    +0.144 HD
ENDBRANCH  18  21
ENDBRANCH  15  18
ENDBRANCH  10  12
ENDBRANCH   7  10
BRANCH   5  24
ATOM     24  O   UNL     1      33.151 -22.923 -17.740  0.00  0.00    -0.451 OA
BRANCH  24  25
ATOM     25  C   UNL     1      34.530 -22.993 -18.051  0.00  0.00    +0.208 C 
BRANCH  25  26
ATOM     26  C   UNL     1      34.766 -22.261 -19.370  0.00  0.00    +0.044 C 
ATOM     27  C   UNL     1      33.607 -21.300 -19.671  0.00  0.00    +0.004 C 
ATOM     28  C   UNL     1      36.104 -21.510 -19.342  0.00  0.00    +0.004 C 
ATOM     29  C   UNL     1      33.845 -20.517 -20.961  0.00  0.00    +0.000 C 
ATOM     30  C   UNL     1      36.338 -20.726 -20.633  0.00  0.00    +0.000 C 
ATOM     31  C   UNL     1      35.180 -19.780 -20.933  0.00  0.00    +0.000 C 
ENDBRANCH  25  26
ENDBRANCH  24  25
ENDBRANCH   5  24
TORSDOF 7
ENDMDL
MODEL 3
REMARK VINA RESULT:     -11.5      5.447     11.055
REMARK  Name = 23586145
REMARK  7 active torsions:
REMARK  status: ('A' for Active; 'I' for Inactive)
REMARK    1  A    between atoms: C_5  and  O_24
REMARK    2  A    between atoms: C_7  and  N_10
REMARK    3  A    between atoms: N_10  and  C_12
REMARK    4  A    between atoms: C_15  and  S_18
REMARK    5  A    between atoms: S_18  and  N_21
REMARK    6  A    between atoms: O_24  and  C_25
REMARK    7  A    between atoms: C_25  and  C_26
REMARK                            x       y       z     vdW  Elec       q    Type
REMARK                         _______ _______ _______ _____ _____    ______ ____
ROOT
ATOM      1  N   UNL     1      32.492 -23.587 -14.508  0.00  0.00    -0.299 NA
ATOM      2  N   UNL     1      31.604 -23.123 -16.695  0.00  0.00    -0.106 N 
ATOM      3  N   UNL     1      30.393 -22.890 -17.264  0.00  0.00    -0.139 NA
ATOM      4  N   UNL     1      30.147 -23.232 -15.026  0.00  0.00    -0.145 NA
ATOM      5  C   UNL     1      33.646 -23.623 -15.093  0.00  0.00    +0.291 C 
ATOM      6  C   UNL     1      33.940 -23.419 -16.528  0.00  0.00    +0.105 C 
ATOM      7  C   UNL     1      32.868 -23.169 -17.302  0.00  0.00    +0.142 C 
ATOM      8  C   UNL     1      31.427 -23.330 -15.321  0.00  0.00    +0.178 C 
ATOM      9  C   UNL     1      29.568 -22.967 -16.225  0.00  0.00    +0.230 C 
ENDROOT
BRANCH   7  10
ATOM     10  N   UNL     1      32.931 -22.952 -18.648  0.00  0.00    -0.299 N 
ATOM     11  H   UNL     1      32.363 -23.534 -19.203  0.00  0.00    +0.153 HD
BRANCH  10  12
ATOM     12  C   UNL     1      33.701 -22.011 -19.342  0.00  0.00    +0.049 C 
ATOM     13  C   UNL     1      35.097 -22.025 -19.242  0.00  0.00    +0.016 C 
ATOM     14  C   UNL     1      33.082 -21.044 -20.145  0.00  0.00    +0.016 C 
ATOM     15  C   UNL     1      35.239 -20.127 -20.731  0.00  0.00    +0.122 C 
ATOM     16  C   UNL     1      35.863 -21.086 -19.934  0.00  0.00    +0.021 C 
ATOM     17  C   UNL     1      33.848 -20.106 -20.837  0.00  0.00    +0.021 C 
BRANCH  15  18
ATOM     18  S   UNL     1      36.199 -18.953 -21.596  0.00  0.00    +0.057 S 
ATOM     19  O   UNL     1      37.582 -19.078 -21.160  0.00  0.00    -0.153 OA
ATOM     20  O   UNL     1      35.876 -19.046 -23.013  0.00  0.00    -0.153 OA
BRANCH  18  21
ATOM     21  N   UNL     1      35.556 -17.493 -20.983  0.00  0.00    -0.203 NA
ATOM     22  H   UNL     1      35.995 -16.704 -21.457  0.00  0.00    +0.144 HD
ATOM     23  H   UNL     1      35.740 -17.434 -19.983  0.00  0.00    +0.144 HD
ENDBRANCH  18  21
ENDBRANCH  15  18
ENDBRANCH  10  12
ENDBRANCH   7  10
BRANCH   5  24
ATOM     24  O   UNL     1      34.744 -23.866 -14.383  0.00  0.00    -0.451 OA
BRANCH  24  25
ATOM     25  C   UNL     1      35.900 -23.167 -14.802  0.00  0.00    +0.208 C 
BRANCH  25  26
ATOM     26  C   UNL     1      37.127 -23.868 -14.222  0.00  0.00    +0.044 C 
ATOM     27  C   UNL     1      37.131 -23.772 -12.689  0.00  0.00    +0.004 C 
ATOM     28  C   UNL     1      37.181 -25.332 -14.677  0.00  0.00    +0.004 C 
ATOM     29  C   UNL     1      38.322 -24.511 -12.082  0.00  0.00    +0.000 C 
ATOM     30  C   UNL     1      38.371 -26.069 -14.066  0.00  0.00    +0.000 C 
ATOM     31  C   UNL     1      38.377 -25.964 -12.545  0.00  0.00    +0.000 C 
ENDBRANCH  25  26
ENDBRANCH  24  25
ENDBRANCH   5  24
TORSDOF 7
ENDMDL
MODEL 4
REMARK VINA RESULT:     -11.4      8.036     10.933
REMARK  Name = 23586145
REMARK  7 active torsions:
REMARK  status: ('A' for Active; 'I' for Inactive)
REMARK    1  A    between atoms: C_5  and  O_24
REMARK    2  A    between atoms: C_7  and  N_10
REMARK    3  A    between atoms: N_10  and  C_12
REMARK    4  A    between atoms: C_15  and  S_18
REMARK    5  A    between atoms: S_18  and  N_21
REMARK    6  A    between atoms: O_24  and  C_25
REMARK    7  A    between atoms: C_25  and  C_26
REMARK                            x       y       z     vdW  Elec       q    Type
REMARK                         _______ _______ _______ _____ _____    ______ ____
ROOT
ATOM      1  N   UNL     1      37.450 -23.494 -13.828  0.00  0.00    -0.299 NA
ATOM      2  N   UNL     1      35.557 -24.264 -12.560  0.00  0.00    -0.106 N 
ATOM      3  N   UNL     1      35.219 -24.439 -11.255  0.00  0.00    -0.139 NA
ATOM      4  N   UNL     1      37.340 -23.623 -11.406  0.00  0.00    -0.145 NA
ATOM      5  C   UNL     1      36.724 -23.735 -14.872  0.00  0.00    +0.291 C 
ATOM      6  C   UNL     1      35.342 -24.261 -14.910  0.00  0.00    +0.105 C 
ATOM      7  C   UNL     1      34.792 -24.515 -13.709  0.00  0.00    +0.142 C 
ATOM      8  C   UNL     1      36.862 -23.762 -12.627  0.00  0.00    +0.178 C 
ATOM      9  C   UNL     1      36.317 -24.042 -10.620  0.00  0.00    +0.230 C 
ENDROOT
BRANCH   7  10
ATOM     10  N   UNL     1      33.529 -25.003 -13.534  0.00  0.00    -0.299 N 
ATOM     11  H   UNL     1      33.437 -25.727 -12.872  0.00  0.00    +0.153 HD
BRANCH  10  12
ATOM     12  C   UNL     1      32.349 -24.609 -14.174  0.00  0.00    +0.049 C 
ATOM     13  C   UNL     1      31.165 -25.333 -13.986  0.00  0.00    +0.016 C 
ATOM     14  C   UNL     1      32.338 -23.486 -15.010  0.00  0.00    +0.016 C 
ATOM     15  C   UNL     1      29.987 -23.819 -15.456  0.00  0.00    +0.122 C 
ATOM     16  C   UNL     1      29.989 -24.939 -14.624  0.00  0.00    +0.021 C 
ATOM     17  C   UNL     1      31.162 -23.092 -15.649  0.00  0.00    +0.021 C 
BRANCH  15  18
ATOM     18  S   UNL     1      28.515 -23.327 -16.255  0.00  0.00    +0.057 S 
ATOM     19  O   UNL     1      27.488 -23.124 -15.243  0.00  0.00    -0.153 OA
ATOM     20  O   UNL     1      28.832 -22.255 -17.189  0.00  0.00    -0.153 OA
BRANCH  18  21
ATOM     21  N   UNL     1      28.141 -24.737 -17.145  0.00  0.00    -0.203 NA
ATOM     22  H   UNL     1      27.235 -25.097 -16.846  0.00  0.00    +0.144 HD
ATOM     23  H   UNL     1      28.859 -25.442 -16.981  0.00  0.00    +0.144 HD
ENDBRANCH  18  21
ENDBRANCH  15  18
ENDBRANCH  10  12
ENDBRANCH   7  10
BRANCH   5  24
ATOM     24  O   UNL     1      37.210 -23.506 -16.088  0.00  0.00    -0.451 OA
BRANCH  24  25
ATOM     25  C   UNL     1      36.939 -22.220 -16.613  0.00  0.00    +0.208 C 
BRANCH  25  26
ATOM     26  C   UNL     1      36.233 -22.386 -17.958  0.00  0.00    +0.044 C 
ATOM     27  C   UNL     1      34.712 -22.465 -17.765  0.00  0.00    +0.004 C 
ATOM     28  C   UNL     1      36.604 -21.241 -18.910  0.00  0.00    +0.004 C 
ATOM     29  C   UNL     1      33.980 -22.578 -19.101  0.00  0.00    +0.000 C 
ATOM     30  C   UNL     1      35.868 -21.356 -20.244  0.00  0.00    +0.000 C 
ATOM     31  C   UNL     1      34.358 -21.443 -20.047  0.00  0.00    +0.000 C 
ENDBRANCH  25  26
ENDBRANCH  24  25
ENDBRANCH   5  24
TORSDOF 7
ENDMDL
MODEL 5
REMARK VINA RESULT:     -10.9      5.678     10.025
REMARK  Name = 23586145
REMARK  7 active torsions:
REMARK  status: ('A' for Active; 'I' for Inactive)
REMARK    1  A    between atoms: C_5  and  O_24
REMARK    2  A    between atoms: C_7  and  N_10
REMARK    3  A    between atoms: N_10  and  C_12
REMARK    4  A    between atoms: C_15  and  S_18
REMARK    5  A    between atoms: S_18  and  N_21
REMARK    6  A    between atoms: O_24  and  C_25
REMARK    7  A    between atoms: C_25  and  C_26
REMARK                            x       y       z     vdW  Elec       q    Type
REMARK                         _______ _______ _______ _____ _____    ______ ____
ROOT
ATOM      1  N   UNL     1      32.279 -23.565 -14.571  0.00  0.00    -0.299 NA
ATOM      2  N   UNL     1      34.009 -23.821 -16.223  0.00  0.00    -0.106 N 
ATOM      3  N   UNL     1      35.321 -24.172 -16.264  0.00  0.00    -0.139 NA
ATOM      4  N   UNL     1      34.565 -24.245 -14.117  0.00  0.00    -0.145 NA
ATOM      5  C   UNL     1      31.519 -23.230 -15.563  0.00  0.00    +0.291 C 
ATOM      6  C   UNL     1      31.884 -23.144 -16.994  0.00  0.00    +0.105 C 
ATOM      7  C   UNL     1      33.161 -23.453 -17.279  0.00  0.00    +0.142 C 
ATOM      8  C   UNL     1      33.568 -23.873 -14.895  0.00  0.00    +0.178 C 
ATOM      9  C   UNL     1      35.594 -24.412 -14.986  0.00  0.00    +0.230 C 
ENDROOT
BRANCH   7  10
ATOM     10  N   UNL     1      33.691 -23.435 -18.537  0.00  0.00    -0.299 N 
ATOM     11  H   UNL     1      33.691 -24.295 -19.015  0.00  0.00    +0.153 HD
BRANCH  10  12
ATOM     12  C   UNL     1      34.236 -22.350 -19.234  0.00  0.00    +0.049 C 
ATOM     13  C   UNL     1      33.407 -21.479 -19.952  0.00  0.00    +0.016 C 
ATOM     14  C   UNL     1      35.619 -22.124 -19.222  0.00  0.00    +0.016 C 
ATOM     15  C   UNL     1      35.329 -20.181 -20.629  0.00  0.00    +0.122 C 
ATOM     16  C   UNL     1      33.951 -20.399 -20.646  0.00  0.00    +0.021 C 
ATOM     17  C   UNL     1      36.163 -21.043 -19.916  0.00  0.00    +0.021 C 
BRANCH  15  18
ATOM     18  S   UNL     1      36.010 -18.828 -21.499  0.00  0.00    +0.057 S 
ATOM     19  O   UNL     1      35.775 -19.032 -22.921  0.00  0.00    -0.153 OA
ATOM     20  O   UNL     1      35.565 -17.597 -20.861  0.00  0.00    -0.153 OA
BRANCH  18  21
ATOM     21  N   UNL     1      37.675 -19.042 -21.178  0.00  0.00    -0.203 NA
ATOM     22  H   UNL     1      38.205 -18.915 -22.040  0.00  0.00    +0.144 HD
ATOM     23  H   UNL     1      37.833 -19.981 -20.816  0.00  0.00    +0.144 HD
ENDBRANCH  18  21
ENDBRANCH  15  18
ENDBRANCH  10  12
ENDBRANCH   7  10
BRANCH   5  24
ATOM     24  O   UNL     1      30.246 -22.912 -15.348  0.00  0.00    -0.451 OA
BRANCH  24  25
ATOM     25  C   UNL     1      29.360 -24.010 -15.235  0.00  0.00    +0.208 C 
BRANCH  25  26
ATOM     26  C   UNL     1      28.043 -23.642 -15.915  0.00  0.00    +0.044 C 
ATOM     27  C   UNL     1      27.319 -22.539 -15.130  0.00  0.00    +0.004 C 
ATOM     28  C   UNL     1      28.284 -23.210 -17.367  0.00  0.00    +0.004 C 
ATOM     29  C   UNL     1      26.022 -22.116 -15.818  0.00  0.00    +0.000 C 
ATOM     30  C   UNL     1      26.985 -22.786 -18.052  0.00  0.00    +0.000 C 
ATOM     31  C   UNL     1      26.265 -21.696 -17.264  0.00  0.00    +0.000 C 
ENDBRANCH  25  26
ENDBRANCH  24  25
ENDBRANCH   5  24
TORSDOF 7
ENDMDL
MODEL 6
REMARK VINA RESULT:     -10.2      5.709      8.837
REMARK  Name = 23586145
REMARK  7 active torsions:
REMARK  status: ('A' for Active; 'I' for Inactive)
REMARK    1  A    between atoms: C_5  and  O_24
REMARK    2  A    between atoms: C_7  and  N_10
REMARK    3  A    between atoms: N_10  and  C_12
REMARK    4  A    between atoms: C_15  and  S_18
REMARK    5  A    between atoms: S_18  and  N_21
REMARK    6  A    between atoms: O_24  and  C_25
REMARK    7  A    between atoms: C_25  and  C_26
REMARK                            x       y       z     vdW  Elec       q    Type
REMARK                         _______ _______ _______ _____ _____    ______ ____
ROOT
ATOM      1  N   UNL     1      31.767 -22.032 -18.381  0.00  0.00    -0.299 NA
ATOM      2  N   UNL     1      31.984 -23.586 -16.558  0.00  0.00    -0.106 N 
ATOM      3  N   UNL     1      31.198 -24.120 -15.587  0.00  0.00    -0.139 NA
ATOM      4  N   UNL     1      29.982 -22.682 -16.869  0.00  0.00    -0.145 NA
ATOM      5  C   UNL     1      33.022 -22.263 -18.597  0.00  0.00    +0.291 C 
ATOM      6  C   UNL     1      33.918 -23.168 -17.845  0.00  0.00    +0.105 C 
ATOM      7  C   UNL     1      33.344 -23.817 -16.816  0.00  0.00    +0.142 C 
ATOM      8  C   UNL     1      31.216 -22.707 -17.331  0.00  0.00    +0.178 C 
ATOM      9  C   UNL     1      30.022 -23.546 -15.823  0.00  0.00    +0.230 C 
ENDROOT
BRANCH   7  10
ATOM     10  N   UNL     1      34.002 -24.694 -16.002  0.00  0.00    -0.299 N 
ATOM     11  H   UNL     1      33.866 -25.648 -16.202  0.00  0.00    +0.153 HD
BRANCH  10  12
ATOM     12  C   UNL     1      34.842 -24.411 -14.920  0.00  0.00    +0.049 C 
ATOM     13  C   UNL     1      36.114 -23.866 -15.133  0.00  0.00    +0.016 C 
ATOM     14  C   UNL     1      34.421 -24.671 -13.609  0.00  0.00    +0.016 C 
ATOM     15  C   UNL     1      36.524 -23.846 -12.752  0.00  0.00    +0.122 C 
ATOM     16  C   UNL     1      36.952 -23.584 -14.054  0.00  0.00    +0.021 C 
ATOM     17  C   UNL     1      35.258 -24.389 -12.530  0.00  0.00    +0.021 C 
BRANCH  15  18
ATOM     18  S   UNL     1      37.573 -23.494 -11.401  0.00  0.00    +0.057 S 
ATOM     19  O   UNL     1      36.744 -23.178 -10.247  0.00  0.00    -0.153 OA
ATOM     20  O   UNL     1      38.574 -24.546 -11.306  0.00  0.00    -0.153 OA
BRANCH  18  21
ATOM     21  N   UNL     1      38.332 -22.062 -11.944  0.00  0.00    -0.203 NA
ATOM     22  H   UNL     1      38.198 -21.969 -12.951  0.00  0.00    +0.144 HD
ATOM     23  H   UNL     1      39.328 -22.106 -11.735  0.00  0.00    +0.144 HD
ENDBRANCH  18  21
ENDBRANCH  15  18
ENDBRANCH  10  12
ENDBRANCH   7  10
BRANCH   5  24
ATOM     24  O   UNL     1      33.648 -21.652 -19.599  0.00  0.00    -0.451 OA
BRANCH  24  25
ATOM     25  C   UNL     1      35.059 -21.629 -19.503  0.00  0.00    +0.208 C 
BRANCH  25  26
ATOM     26  C   UNL     1      35.611 -20.830 -20.683  0.00  0.00    +0.044 C 
ATOM     27  C   UNL     1      34.510 -19.966 -21.314  0.00  0.00    +0.004 C 
ATOM     28  C   UNL     1      36.800 -19.965 -20.244  0.00  0.00    +0.004 C 
ATOM     29  C   UNL     1      35.050 -19.119 -22.465  0.00  0.00    +0.000 C 
ATOM     30  C   UNL     1      37.336 -19.117 -21.396  0.00  0.00    +0.000 C 
ATOM     31  C   UNL     1      36.237 -18.267 -22.026  0.00  0.00    +0.000 C 
ENDBRANCH  25  26
ENDBRANCH  24  25
ENDBRANCH   5  24
TORSDOF 7
ENDMDL
MODEL 7
REMARK VINA RESULT:     -10.0      4.517      7.471
REMARK  Name = 23586145
REMARK  7 active torsions:
REMARK  status: ('A' for Active; 'I' for Inactive)
REMARK    1  A    between atoms: C_5  and  O_24
REMARK    2  A    between atoms: C_7  and  N_10
REMARK    3  A    between atoms: N_10  and  C_12
REMARK    4  A    between atoms: C_15  and  S_18
REMARK    5  A    between atoms: S_18  and  N_21
REMARK    6  A    between atoms: O_24  and  C_25
REMARK    7  A    between atoms: C_25  and  C_26
REMARK                            x       y       z     vdW  Elec       q    Type
REMARK                         _______ _______ _______ _____ _____    ______ ____
ROOT
ATOM      1  N   UNL     1      34.058 -21.875 -19.719  0.00  0.00    -0.299 NA
ATOM      2  N   UNL     1      34.948 -22.714 -17.648  0.00  0.00    -0.106 N 
ATOM      3  N   UNL     1      34.501 -23.392 -16.558  0.00  0.00    -0.139 NA
ATOM      4  N   UNL     1      32.792 -23.074 -18.030  0.00  0.00    -0.145 NA
ATOM      5  C   UNL     1      35.258 -21.447 -19.946  0.00  0.00    +0.291 C 
ATOM      6  C   UNL     1      36.448 -21.587 -19.079  0.00  0.00    +0.105 C 
ATOM      7  C   UNL     1      36.239 -22.238 -17.921  0.00  0.00    +0.142 C 
ATOM      8  C   UNL     1      33.881 -22.531 -18.536  0.00  0.00    +0.178 C 
ATOM      9  C   UNL     1      33.216 -23.577 -16.843  0.00  0.00    +0.230 C 
ENDROOT
BRANCH   7  10
ATOM     10  N   UNL     1      37.208 -22.470 -16.988  0.00  0.00    -0.299 N 
ATOM     11  H   UNL     1      38.106 -22.133 -17.210  0.00  0.00    +0.153 HD
BRANCH  10  12
ATOM     12  C   UNL     1      37.091 -23.128 -15.758  0.00  0.00    +0.049 C 
ATOM     13  C   UNL     1      36.358 -22.552 -14.713  0.00  0.00    +0.016 C 
ATOM     14  C   UNL     1      37.705 -24.371 -15.558  0.00  0.00    +0.016 C 
ATOM     15  C   UNL     1      36.856 -24.445 -13.297  0.00  0.00    +0.122 C 
ATOM     16  C   UNL     1      36.241 -23.208 -13.488  0.00  0.00    +0.021 C 
ATOM     17  C   UNL     1      37.588 -25.027 -14.333  0.00  0.00    +0.021 C 
BRANCH  15  18
ATOM     18  S   UNL     1      36.710 -25.266 -11.763  0.00  0.00    +0.057 S 
ATOM     19  O   UNL     1      37.074 -26.663 -11.953  0.00  0.00    -0.153 OA
ATOM     20  O   UNL     1      37.389 -24.473 -10.748  0.00  0.00    -0.153 OA
BRANCH  18  21
ATOM     21  N   UNL     1      35.024 -25.166 -11.501  0.00  0.00    -0.203 NA
ATOM     22  H   UNL     1      34.824 -25.334 -10.515  0.00  0.00    +0.144 HD
ATOM     23  H   UNL     1      34.550 -25.867 -12.068  0.00  0.00    +0.144 HD
ENDBRANCH  18  21
ENDBRANCH  15  18
ENDBRANCH  10  12
ENDBRANCH   7  10
BRANCH   5  24
ATOM     24  O   UNL     1      35.529 -20.795 -21.073  0.00  0.00    -0.451 OA
BRANCH  24  25
ATOM     25  C   UNL     1      35.851 -19.426 -20.916  0.00  0.00    +0.208 C 
BRANCH  25  26
ATOM     26  C   UNL     1      35.070 -18.623 -21.955  0.00  0.00    +0.044 C 
ATOM     27  C   UNL     1      35.727 -17.255 -22.186  0.00  0.00    +0.004 C 
ATOM     28  C   UNL     1      34.958 -19.404 -23.271  0.00  0.00    +0.004 C 
ATOM     29  C   UNL     1      34.994 -16.452 -23.260  0.00  0.00    +0.000 C 
ATOM     30  C   UNL     1      34.227 -18.598 -24.344  0.00  0.00    +0.000 C 
ATOM     31  C   UNL     1      34.877 -17.236 -24.563  0.00  0.00    +0.000 C 
ENDBRANCH  25  26
ENDBRANCH  24  25
ENDBRANCH   5  24
TORSDOF 7
ENDMDL
MODEL 8
REMARK VINA RESULT:     -10.0      1.780      2.374
REMARK  Name = 23586145
REMARK  7 active torsions:
REMARK  status: ('A' for Active; 'I' for Inactive)
REMARK    1  A    between atoms: C_5  and  O_24
REMARK    2  A    between atoms: C_7  and  N_10
REMARK    3  A    between atoms: N_10  and  C_12
REMARK    4  A    between atoms: C_15  and  S_18
REMARK    5  A    between atoms: S_18  and  N_21
REMARK    6  A    between atoms: O_24  and  C_25
REMARK    7  A    between atoms: C_25  and  C_26
REMARK                            x       y       z     vdW  Elec       q    Type
REMARK                         _______ _______ _______ _____ _____    ______ ____
ROOT
ATOM      1  N   UNL     1      33.082 -14.036 -23.577  0.00  0.00    -0.299 NA
ATOM      2  N   UNL     1      34.354 -15.940 -24.315  0.00  0.00    -0.106 N 
ATOM      3  N   UNL     1      34.558 -16.633 -25.466  0.00  0.00    -0.139 NA
ATOM      4  N   UNL     1      33.106 -14.918 -25.839  0.00  0.00    -0.145 NA
ATOM      5  C   UNL     1      33.602 -14.265 -22.414  0.00  0.00    +0.291 C 
ATOM      6  C   UNL     1      34.551 -15.337 -22.042  0.00  0.00    +0.105 C 
ATOM      7  C   UNL     1      34.902 -16.163 -23.043  0.00  0.00    +0.142 C 
ATOM      8  C   UNL     1      33.460 -14.892 -24.569  0.00  0.00    +0.178 C 
ATOM      9  C   UNL     1      33.792 -15.979 -26.334  0.00  0.00    +0.230 C 
ENDROOT
BRANCH   7  10
ATOM     10  N   UNL     1      35.765 -17.212 -22.903  0.00  0.00    -0.299 N 
ATOM     11  H   UNL     1      36.586 -17.167 -23.444  0.00  0.00    +0.153 HD
BRANCH  10  12
ATOM     12  C   UNL     1      35.632 -18.343 -22.090  0.00  0.00    +0.049 C 
ATOM     13  C   UNL     1      34.410 -19.021 -22.013  0.00  0.00    +0.016 C 
ATOM     14  C   UNL     1      36.722 -18.811 -21.343  0.00  0.00    +0.016 C 
ATOM     15  C   UNL     1      35.368 -20.608 -20.462  0.00  0.00    +0.122 C 
ATOM     16  C   UNL     1      34.278 -20.149 -21.202  0.00  0.00    +0.021 C 
ATOM     17  C   UNL     1      36.590 -19.938 -20.533  0.00  0.00    +0.021 C 
BRANCH  15  18
ATOM     18  S   UNL     1      35.203 -22.019 -19.448  0.00  0.00    +0.057 S 
ATOM     19  O   UNL     1      35.337 -23.203 -20.284  0.00  0.00    -0.153 OA
ATOM     20  O   UNL     1      36.061 -21.854 -18.283  0.00  0.00    -0.153 OA
BRANCH  18  21
ATOM     21  N   UNL     1      33.573 -21.874 -18.953  0.00  0.00    -0.203 NA
ATOM     22  H   UNL     1      33.540 -21.606 -17.969  0.00  0.00    +0.144 HD
ATOM     23  H   UNL     1      33.100 -22.768 -19.078  0.00  0.00    +0.144 HD
ENDBRANCH  18  21
ENDBRANCH  15  18
ENDBRANCH  10  12
ENDBRANCH   7  10
BRANCH   5  24
ATOM     24  O   UNL     1      33.294 -13.484 -21.383  0.00  0.00    -0.451 OA
BRANCH  24  25
ATOM     25  C   UNL     1      32.126 -12.702 -21.546  0.00  0.00    +0.208 C 
BRANCH  25  26
ATOM     26  C   UNL     1      32.489 -11.236 -21.313  0.00  0.00    +0.044 C 
ATOM     27  C   UNL     1      32.411 -10.444 -22.626  0.00  0.00    +0.004 C 
ATOM     28  C   UNL     1      31.579 -10.615 -20.246  0.00  0.00    +0.004 C 
ATOM     29  C   UNL     1      32.720  -8.964 -22.411  0.00  0.00    +0.000 C 
ATOM     30  C   UNL     1      31.888  -9.133 -20.034  0.00  0.00    +0.000 C 
ATOM     31  C   UNL     1      31.818  -8.352 -21.343  0.00  0.00    +0.000 C 
ENDBRANCH  25  26
ENDBRANCH  24  25
ENDBRANCH   5  24
TORSDOF 7
ENDMDL
MODEL 9
REMARK VINA RESULT:     -10.0      4.035      6.757
REMARK  Name = 23586145
REMARK  7 active torsions:
REMARK  status: ('A' for Active; 'I' for Inactive)
REMARK    1  A    between atoms: C_5  and  O_24
REMARK    2  A    between atoms: C_7  and  N_10
REMARK    3  A    between atoms: N_10  and  C_12
REMARK    4  A    between atoms: C_15  and  S_18
REMARK    5  A    between atoms: S_18  and  N_21
REMARK    6  A    between atoms: O_24  and  C_25
REMARK    7  A    between atoms: C_25  and  C_26
REMARK                            x       y       z     vdW  Elec       q    Type
REMARK                         _______ _______ _______ _____ _____    ______ ____
ROOT
ATOM      1  N   UNL     1      33.180  -9.499 -22.659  0.00  0.00    -0.299 NA
ATOM      2  N   UNL     1      32.562 -11.818 -22.822  0.00  0.00    -0.106 N 
ATOM      3  N   UNL     1      31.696 -12.677 -22.222  0.00  0.00    -0.139 NA
ATOM      4  N   UNL     1      31.499 -10.604 -21.300  0.00  0.00    -0.145 NA
ATOM      5  C   UNL     1      34.015  -9.758 -23.614  0.00  0.00    +0.291 C 
ATOM      6  C   UNL     1      34.239 -11.051 -24.295  0.00  0.00    +0.105 C 
ATOM      7  C   UNL     1      33.477 -12.069 -23.856  0.00  0.00    +0.142 C 
ATOM      8  C   UNL     1      32.422 -10.553 -22.239  0.00  0.00    +0.178 C 
ATOM      9  C   UNL     1      31.094 -11.899 -21.329  0.00  0.00    +0.230 C 
ENDROOT
BRANCH   7  10
ATOM     10  N   UNL     1      33.533 -13.338 -24.355  0.00  0.00    -0.299 N 
ATOM     11  H   UNL     1      33.160 -13.461 -25.258  0.00  0.00    +0.153 HD
BRANCH  10  12
ATOM     12  C   UNL     1      34.051 -14.488 -23.749  0.00  0.00    +0.049 C 
ATOM     13  C   UNL     1      34.422 -14.472 -22.399  0.00  0.00    +0.016 C 
ATOM     14  C   UNL     1      34.205 -15.669 -24.486  0.00  0.00    +0.016 C 
ATOM     15  C   UNL     1      35.088 -16.790 -22.536  0.00  0.00    +0.122 C 
ATOM     16  C   UNL     1      34.939 -15.618 -21.795  0.00  0.00    +0.021 C 
ATOM     17  C   UNL     1      34.721 -16.816 -23.882  0.00  0.00    +0.021 C 
BRANCH  15  18
ATOM     18  S   UNL     1      35.735 -18.225 -21.780  0.00  0.00    +0.057 S 
ATOM     19  O   UNL     1      36.041 -17.915 -20.391  0.00  0.00    -0.153 OA
ATOM     20  O   UNL     1      34.861 -19.347 -22.095  0.00  0.00    -0.153 OA
BRANCH  18  21
ATOM     21  N   UNL     1      37.200 -18.413 -22.640  0.00  0.00    -0.203 NA
ATOM     22  H   UNL     1      37.959 -18.588 -21.982  0.00  0.00    +0.144 HD
ATOM     23  H   UNL     1      37.395 -17.563 -23.167  0.00  0.00    +0.144 HD
ENDBRANCH  18  21
ENDBRANCH  15  18
ENDBRANCH  10  12
ENDBRANCH   7  10
BRANCH   5  24
ATOM     24  O   UNL     1      34.798  -8.795 -24.091  0.00  0.00    -0.451 OA
BRANCH  24  25
ATOM     25  C   UNL     1      34.678  -7.542 -23.443  0.00  0.00    +0.208 C 
BRANCH  25  26
ATOM     26  C   UNL     1      33.782  -6.642 -24.292  0.00  0.00    +0.044 C 
ATOM     27  C   UNL     1      32.788  -5.877 -23.407  0.00  0.00    +0.004 C 
ATOM     28  C   UNL     1      34.626  -5.672 -25.129  0.00  0.00    +0.004 C 
ATOM     29  C   UNL     1      31.915  -4.930 -24.228  0.00  0.00    +0.000 C 
ATOM     30  C   UNL     1      33.751  -4.724 -25.947  0.00  0.00    +0.000 C 
ATOM     31  C   UNL     1      32.758  -3.973 -25.065  0.00  0.00    +0.000 C 
ENDBRANCH  25  26
ENDBRANCH  24  25
ENDBRANCH   5  24
TORSDOF 7
ENDMDL
