MODEL 1
REMARK VINA RESULT:     -11.1      0.000      0.000
REMARK  Name = 5287459
REMARK  5 active torsions:
REMARK  status: ('A' for Active; 'I' for Inactive)
REMARK    1  A    between atoms: C_1  and  C_7
REMARK    2  A    between atoms: C_4  and  C_21
REMARK    3  A    between atoms: C_5  and  C_25
REMARK    4  A    between atoms: C_8  and  C_13
REMARK    5  A    between atoms: C_25  and  O_26
REMARK                            x       y       z     vdW  Elec       q    Type
REMARK                         _______ _______ _______ _____ _____    ______ ____
ROOT
ATOM      1  C   UNL     1      37.276 -24.063 -15.102  0.00  0.00    +0.000 C 
ATOM      2  C   UNL     1      36.732 -24.012 -13.819  0.00  0.00    +0.005 C 
ATOM      3  C   UNL     1      38.457 -24.767 -15.331  0.00  0.00    +0.006 C 
ATOM      4  C   UNL     1      37.369 -24.667 -12.765  0.00  0.00    +0.053 C 
ATOM      5  C   UNL     1      39.095 -25.422 -14.278  0.00  0.00    +0.076 C 
ATOM      6  C   UNL     1      38.550 -25.371 -12.994  0.00  0.00    +0.011 C 
ENDROOT
BRANCH   1   7
ATOM      7  C   UNL     1      36.615 -23.383 -16.195  0.00  0.00    +0.000 C 
ATOM      8  C   UNL     1      35.340 -22.073 -18.303  0.00  0.00    +0.000 C 
ATOM      9  C   UNL     1      35.260 -23.608 -16.439  0.00  0.00    +0.000 C 
ATOM     10  C   UNL     1      37.333 -22.503 -17.005  0.00  0.00    +0.000 C 
ATOM     11  C   UNL     1      34.623 -22.953 -17.494  0.00  0.00    +0.000 C 
ATOM     12  C   UNL     1      36.696 -21.848 -18.059  0.00  0.00    +0.000 C 
BRANCH   8  13
ATOM     13  C   UNL     1      34.680 -21.394 -19.398  0.00  0.00    +0.000 C 
ATOM     14  C   UNL     1      33.291 -21.439 -19.511  0.00  0.00    +0.000 C 
ATOM     15  C   UNL     1      35.435 -20.695 -20.339  0.00  0.00    +0.000 C 
ATOM     16  C   UNL     1      32.656 -20.784 -20.565  0.00  0.00    +0.000 C 
ATOM     17  C   UNL     1      34.800 -20.039 -21.394  0.00  0.00    +0.000 C 
ATOM     18  C   UNL     1      33.410 -20.084 -21.508  0.00  0.00    +0.000 C 
ENDBRANCH   8  13
ENDBRANCH   1   7
BRANCH   4  21
ATOM     19  O   UNL     1      36.139 -25.561 -10.966  0.00  0.00    -0.270 OA
ATOM     20  N   UNL     1      37.039 -23.472 -10.667  0.00  0.00    -0.325 N 
ATOM     21  C   UNL     1      36.802 -24.614 -11.427  0.00  0.00    +0.243 C 
ATOM     22  H   UNL     1      36.670 -23.400  -9.757  0.00  0.00    +0.145 HD
ATOM     23  H   UNL     1      37.575 -22.735 -11.040  0.00  0.00    +0.145 HD
ENDBRANCH   4  21
BRANCH   5  25
ATOM     24  O   UNL     1      41.009 -26.712 -13.650  0.00  0.00    -0.245 OA
ATOM     25  C   UNL     1      40.327 -26.157 -14.517  0.00  0.00    +0.338 C 
BRANCH  25  26
ATOM     26  O   UNL     1      40.672 -26.178 -15.834  0.00  0.00    -0.477 OA
ATOM     27  H   UNL     1      40.075 -26.519 -16.470  0.00  0.00    +0.295 HD
ENDBRANCH  25  26
ENDBRANCH   5  25
TORSDOF 5
ENDMDL
MODEL 2
REMARK VINA RESULT:     -10.7      3.361      5.963
REMARK  Name = 5287459
REMARK  5 active torsions:
REMARK  status: ('A' for Active; 'I' for Inactive)
REMARK    1  A    between atoms: C_1  and  C_7
REMARK    2  A    between atoms: C_4  and  C_21
REMARK    3  A    between atoms: C_5  and  C_25
REMARK    4  A    between atoms: C_8  and  C_13
REMARK    5  A    between atoms: C_25  and  O_26
REMARK                            x       y       z     vdW  Elec       q    Type
REMARK                         _______ _______ _______ _____ _____    ______ ____
ROOT
ATOM      1  C   UNL     1      33.604 -22.523 -18.006  0.00  0.00    +0.000 C 
ATOM      2  C   UNL     1      34.685 -23.070 -17.317  0.00  0.00    +0.005 C 
ATOM      3  C   UNL     1      32.302 -22.788 -17.584  0.00  0.00    +0.006 C 
ATOM      4  C   UNL     1      34.465 -23.881 -16.203  0.00  0.00    +0.053 C 
ATOM      5  C   UNL     1      32.081 -23.600 -16.471  0.00  0.00    +0.076 C 
ATOM      6  C   UNL     1      33.163 -24.146 -15.781  0.00  0.00    +0.011 C 
ENDROOT
BRANCH   1   7
ATOM      7  C   UNL     1      33.832 -21.682 -19.161  0.00  0.00    +0.000 C 
ATOM      8  C   UNL     1      34.274 -20.060 -21.388  0.00  0.00    +0.000 C 
ATOM      9  C   UNL     1      35.135 -21.421 -19.587  0.00  0.00    +0.000 C 
ATOM     10  C   UNL     1      32.750 -21.132 -19.849  0.00  0.00    +0.000 C 
ATOM     11  C   UNL     1      35.356 -20.610 -20.700  0.00  0.00    +0.000 C 
ATOM     12  C   UNL     1      32.971 -20.321 -20.962  0.00  0.00    +0.000 C 
BRANCH   8  13
ATOM     13  C   UNL     1      34.502 -19.218 -22.542  0.00  0.00    +0.000 C 
ATOM     14  C   UNL     1      35.270 -18.061 -22.421  0.00  0.00    +0.000 C 
ATOM     15  C   UNL     1      33.953 -19.565 -23.776  0.00  0.00    +0.000 C 
ATOM     16  C   UNL     1      35.491 -17.249 -23.534  0.00  0.00    +0.000 C 
ATOM     17  C   UNL     1      34.173 -18.754 -24.890  0.00  0.00    +0.000 C 
ATOM     18  C   UNL     1      34.941 -17.596 -24.769  0.00  0.00    +0.000 C 
ENDBRANCH   8  13
ENDBRANCH   1   7
BRANCH   4  21
ATOM     19  O   UNL     1      36.760 -24.085 -15.715  0.00  0.00    -0.270 OA
ATOM     20  N   UNL     1      35.326 -25.411 -14.513  0.00  0.00    -0.325 N 
ATOM     21  C   UNL     1      35.594 -24.451 -15.485  0.00  0.00    +0.243 C 
ATOM     22  H   UNL     1      36.065 -25.820 -14.007  0.00  0.00    +0.145 HD
ATOM     23  H   UNL     1      34.397 -25.682 -14.333  0.00  0.00    +0.145 HD
ENDBRANCH   4  21
BRANCH   5  25
ATOM     24  O   UNL     1      30.408 -24.657 -15.126  0.00  0.00    -0.245 OA
ATOM     25  C   UNL     1      30.723 -23.876 -16.030  0.00  0.00    +0.338 C 
BRANCH  25  26
ATOM     26  O   UNL     1      29.794 -23.169 -16.731  0.00  0.00    -0.477 OA
ATOM     27  H   UNL     1      29.968 -22.282 -16.977  0.00  0.00    +0.295 HD
ENDBRANCH  25  26
ENDBRANCH   5  25
TORSDOF 5
ENDMDL
MODEL 3
REMARK VINA RESULT:     -10.6      3.239      5.173
REMARK  Name = 5287459
REMARK  5 active torsions:
REMARK  status: ('A' for Active; 'I' for Inactive)
REMARK    1  A    between atoms: C_1  and  C_7
REMARK    2  A    between atoms: C_4  and  C_21
REMARK    3  A    between atoms: C_5  and  C_25
REMARK    4  A    between atoms: C_8  and  C_13
REMARK    5  A    between atoms: C_25  and  O_26
REMARK                            x       y       z     vdW  Elec       q    Type
REMARK                         _______ _______ _______ _____ _____    ______ ____
ROOT
ATOM      1  C   UNL     1      33.692 -22.786 -17.702  0.00  0.00    +0.000 C 
ATOM      2  C   UNL     1      32.389 -23.065 -17.292  0.00  0.00    +0.005 C 
ATOM      3  C   UNL     1      34.772 -23.336 -17.015  0.00  0.00    +0.006 C 
ATOM      4  C   UNL     1      32.166 -23.897 -16.194  0.00  0.00    +0.053 C 
ATOM      5  C   UNL     1      34.551 -24.167 -15.916  0.00  0.00    +0.076 C 
ATOM      6  C   UNL     1      33.247 -24.447 -15.506  0.00  0.00    +0.011 C 
ENDROOT
BRANCH   1   7
ATOM      7  C   UNL     1      33.922 -21.924 -18.841  0.00  0.00    +0.000 C 
ATOM      8  C   UNL     1      34.369 -20.261 -21.037  0.00  0.00    +0.000 C 
ATOM      9  C   UNL     1      35.225 -21.670 -19.271  0.00  0.00    +0.000 C 
ATOM     10  C   UNL     1      32.843 -21.347 -19.510  0.00  0.00    +0.000 C 
ATOM     11  C   UNL     1      35.448 -20.838 -20.368  0.00  0.00    +0.000 C 
ATOM     12  C   UNL     1      33.066 -20.515 -20.607  0.00  0.00    +0.000 C 
BRANCH   8  13
ATOM     13  C   UNL     1      34.599 -19.397 -22.175  0.00  0.00    +0.000 C 
ATOM     14  C   UNL     1      35.383 -18.253 -22.035  0.00  0.00    +0.000 C 
ATOM     15  C   UNL     1      34.036 -19.711 -23.411  0.00  0.00    +0.000 C 
ATOM     16  C   UNL     1      35.606 -17.421 -23.133  0.00  0.00    +0.000 C 
ATOM     17  C   UNL     1      34.258 -18.880 -24.509  0.00  0.00    +0.000 C 
ATOM     18  C   UNL     1      35.042 -17.735 -24.371  0.00  0.00    +0.000 C 
ENDBRANCH   8  13
ENDBRANCH   1   7
BRANCH   4  21
ATOM     19  O   UNL     1      29.834 -23.567 -16.232  0.00  0.00    -0.270 OA
ATOM     20  N   UNL     1      30.625 -25.199 -14.827  0.00  0.00    -0.325 N 
ATOM     21  C   UNL     1      30.807 -24.188 -15.766  0.00  0.00    +0.243 C 
ATOM     22  H   UNL     1      29.719 -25.423 -14.514  0.00  0.00    +0.145 HD
ATOM     23  H   UNL     1      31.403 -25.691 -14.477  0.00  0.00    +0.145 HD
ENDBRANCH   4  21
BRANCH   5  25
ATOM     24  O   UNL     1      36.866 -24.609 -15.508  0.00  0.00    -0.245 OA
ATOM     25  C   UNL     1      35.678 -24.741 -15.198  0.00  0.00    +0.338 C 
BRANCH  25  26
ATOM     26  O   UNL     1      35.289 -25.463 -14.112  0.00  0.00    -0.477 OA
ATOM     27  H   UNL     1      35.244 -25.055 -13.269  0.00  0.00    +0.295 HD
ENDBRANCH  25  26
ENDBRANCH   5  25
TORSDOF 5
ENDMDL
MODEL 4
REMARK VINA RESULT:     -10.5      3.135      5.424
REMARK  Name = 5287459
REMARK  5 active torsions:
REMARK  status: ('A' for Active; 'I' for Inactive)
REMARK    1  A    between atoms: C_1  and  C_7
REMARK    2  A    between atoms: C_4  and  C_21
REMARK    3  A    between atoms: C_5  and  C_25
REMARK    4  A    between atoms: C_8  and  C_13
REMARK    5  A    between atoms: C_25  and  O_26
REMARK                            x       y       z     vdW  Elec       q    Type
REMARK                         _______ _______ _______ _____ _____    ______ ____
ROOT
ATOM      1  C   UNL     1      33.623 -23.068 -17.326  0.00  0.00    +0.000 C 
ATOM      2  C   UNL     1      34.663 -23.708 -16.655  0.00  0.00    +0.005 C 
ATOM      3  C   UNL     1      32.306 -23.244 -16.901  0.00  0.00    +0.006 C 
ATOM      4  C   UNL     1      34.388 -24.525 -15.558  0.00  0.00    +0.053 C 
ATOM      5  C   UNL     1      32.030 -24.061 -15.805  0.00  0.00    +0.076 C 
ATOM      6  C   UNL     1      33.072 -24.701 -15.133  0.00  0.00    +0.011 C 
ENDROOT
BRANCH   1   7
ATOM      7  C   UNL     1      33.908 -22.221 -18.464  0.00  0.00    +0.000 C 
ATOM      8  C   UNL     1      34.458 -20.588 -20.658  0.00  0.00    +0.000 C 
ATOM      9  C   UNL     1      32.862 -21.638 -19.179  0.00  0.00    +0.000 C 
ATOM     10  C   UNL     1      35.229 -21.987 -18.845  0.00  0.00    +0.000 C 
ATOM     11  C   UNL     1      33.137 -20.822 -20.277  0.00  0.00    +0.000 C 
ATOM     12  C   UNL     1      35.504 -21.171 -19.943  0.00  0.00    +0.000 C 
BRANCH   8  13
ATOM     13  C   UNL     1      34.743 -19.742 -21.797  0.00  0.00    +0.000 C 
ATOM     14  C   UNL     1      33.904 -19.763 -22.910  0.00  0.00    +0.000 C 
ATOM     15  C   UNL     1      35.859 -18.906 -21.780  0.00  0.00    +0.000 C 
ATOM     16  C   UNL     1      34.180 -18.947 -24.008  0.00  0.00    +0.000 C 
ATOM     17  C   UNL     1      36.136 -18.090 -22.877  0.00  0.00    +0.000 C 
ATOM     18  C   UNL     1      35.297 -18.110 -23.991  0.00  0.00    +0.000 C 
ENDBRANCH   8  13
ENDBRANCH   1   7
BRANCH   4  21
ATOM     19  O   UNL     1      36.379 -25.780 -15.478  0.00  0.00    -0.270 OA
ATOM     20  N   UNL     1      35.478 -25.142 -13.467  0.00  0.00    -0.325 N 
ATOM     21  C   UNL     1      35.474 -25.193 -14.858  0.00  0.00    +0.243 C 
ATOM     22  H   UNL     1      36.197 -25.584 -12.960  0.00  0.00    +0.145 HD
ATOM     23  H   UNL     1      34.762 -24.663 -12.991  0.00  0.00    +0.145 HD
ENDBRANCH   4  21
BRANCH   5  25
ATOM     24  O   UNL     1      29.878 -23.340 -15.049  0.00  0.00    -0.245 OA
ATOM     25  C   UNL     1      30.657 -24.245 -15.362  0.00  0.00    +0.338 C 
BRANCH  25  26
ATOM     26  O   UNL     1      30.294 -25.557 -15.324  0.00  0.00    -0.477 OA
ATOM     27  H   UNL     1      29.868 -25.904 -14.566  0.00  0.00    +0.295 HD
ENDBRANCH  25  26
ENDBRANCH   5  25
TORSDOF 5
ENDMDL
MODEL 5
REMARK VINA RESULT:     -10.3      2.491      4.446
REMARK  Name = 5287459
REMARK  5 active torsions:
REMARK  status: ('A' for Active; 'I' for Inactive)
REMARK    1  A    between atoms: C_1  and  C_7
REMARK    2  A    between atoms: C_4  and  C_21
REMARK    3  A    between atoms: C_5  and  C_25
REMARK    4  A    between atoms: C_8  and  C_13
REMARK    5  A    between atoms: C_25  and  O_26
REMARK                            x       y       z     vdW  Elec       q    Type
REMARK                         _______ _______ _______ _____ _____    ______ ____
ROOT
ATOM      1  C   UNL     1      34.917 -23.481 -16.425  0.00  0.00    +0.000 C 
ATOM      2  C   UNL     1      36.050 -24.061 -15.854  0.00  0.00    +0.005 C 
ATOM      3  C   UNL     1      33.659 -23.716 -15.871  0.00  0.00    +0.006 C 
ATOM      4  C   UNL     1      35.925 -24.875 -14.728  0.00  0.00    +0.053 C 
ATOM      5  C   UNL     1      33.533 -24.530 -14.745  0.00  0.00    +0.076 C 
ATOM      6  C   UNL     1      34.667 -25.109 -14.174  0.00  0.00    +0.011 C 
ENDROOT
BRANCH   1   7
ATOM      7  C   UNL     1      35.047 -22.637 -17.593  0.00  0.00    +0.000 C 
ATOM      8  C   UNL     1      35.298 -21.010 -19.845  0.00  0.00    +0.000 C 
ATOM      9  C   UNL     1      36.287 -22.093 -17.926  0.00  0.00    +0.000 C 
ATOM     10  C   UNL     1      33.931 -22.368 -18.386  0.00  0.00    +0.000 C 
ATOM     11  C   UNL     1      36.413 -21.279 -19.052  0.00  0.00    +0.000 C 
ATOM     12  C   UNL     1      34.057 -21.554 -19.512  0.00  0.00    +0.000 C 
BRANCH   8  13
ATOM     13  C   UNL     1      35.426 -20.165 -21.013  0.00  0.00    +0.000 C 
ATOM     14  C   UNL     1      34.391 -20.099 -21.944  0.00  0.00    +0.000 C 
ATOM     15  C   UNL     1      36.587 -19.416 -21.205  0.00  0.00    +0.000 C 
ATOM     16  C   UNL     1      34.515 -19.283 -23.069  0.00  0.00    +0.000 C 
ATOM     17  C   UNL     1      36.712 -18.601 -22.330  0.00  0.00    +0.000 C 
ATOM     18  C   UNL     1      35.677 -18.534 -23.263  0.00  0.00    +0.000 C 
ENDBRANCH   8  13
ENDBRANCH   1   7
BRANCH   4  21
ATOM     19  O   UNL     1      38.226 -24.945 -14.230  0.00  0.00    -0.270 OA
ATOM     20  N   UNL     1      36.943 -26.672 -13.435  0.00  0.00    -0.325 N 
ATOM     21  C   UNL     1      37.106 -25.479 -14.133  0.00  0.00    +0.243 C 
ATOM     22  H   UNL     1      37.720 -27.110 -13.019  0.00  0.00    +0.145 HD
ATOM     23  H   UNL     1      36.049 -27.077 -13.356  0.00  0.00    +0.145 HD
ENDBRANCH   4  21
BRANCH   5  25
ATOM     24  O   UNL     1      31.144 -24.439 -14.668  0.00  0.00    -0.245 OA
ATOM     25  C   UNL     1      32.222 -24.775 -14.167  0.00  0.00    +0.338 C 
BRANCH  25  26
ATOM     26  O   UNL     1      32.293 -25.435 -12.978  0.00  0.00    -0.477 OA
ATOM     27  H   UNL     1      33.117 -25.753 -12.667  0.00  0.00    +0.295 HD
ENDBRANCH  25  26
ENDBRANCH   5  25
TORSDOF 5
ENDMDL
MODEL 6
REMARK VINA RESULT:     -10.3      4.216      5.665
REMARK  Name = 5287459
REMARK  5 active torsions:
REMARK  status: ('A' for Active; 'I' for Inactive)
REMARK    1  A    between atoms: C_1  and  C_7
REMARK    2  A    between atoms: C_4  and  C_21
REMARK    3  A    between atoms: C_5  and  C_25
REMARK    4  A    between atoms: C_8  and  C_13
REMARK    5  A    between atoms: C_25  and  O_26
REMARK                            x       y       z     vdW  Elec       q    Type
REMARK                         _______ _______ _______ _____ _____    ______ ____
ROOT
ATOM      1  C   UNL     1      34.437 -24.536 -13.984  0.00  0.00    +0.000 C 
ATOM      2  C   UNL     1      35.291 -25.285 -14.792  0.00  0.00    +0.005 C 
ATOM      3  C   UNL     1      34.858 -24.119 -12.722  0.00  0.00    +0.006 C 
ATOM      4  C   UNL     1      36.567 -25.617 -14.339  0.00  0.00    +0.053 C 
ATOM      5  C   UNL     1      36.134 -24.451 -12.267  0.00  0.00    +0.076 C 
ATOM      6  C   UNL     1      36.989 -25.200 -13.077  0.00  0.00    +0.011 C 
ENDROOT
BRANCH   1   7
ATOM      7  C   UNL     1      33.112 -24.192 -14.455  0.00  0.00    +0.000 C 
ATOM      8  C   UNL     1      30.558 -23.529 -15.361  0.00  0.00    +0.000 C 
ATOM      9  C   UNL     1      31.997 -24.467 -13.662  0.00  0.00    +0.000 C 
ATOM     10  C   UNL     1      32.950 -23.584 -15.700  0.00  0.00    +0.000 C 
ATOM     11  C   UNL     1      30.720 -24.136 -14.116  0.00  0.00    +0.000 C 
ATOM     12  C   UNL     1      31.673 -23.253 -16.153  0.00  0.00    +0.000 C 
BRANCH   8  13
ATOM     13  C   UNL     1      29.233 -23.186 -15.832  0.00  0.00    +0.000 C 
ATOM     14  C   UNL     1      28.868 -23.462 -17.149  0.00  0.00    +0.000 C 
ATOM     15  C   UNL     1      28.323 -22.579 -14.968  0.00  0.00    +0.000 C 
ATOM     16  C   UNL     1      27.591 -23.132 -17.603  0.00  0.00    +0.000 C 
ATOM     17  C   UNL     1      27.045 -22.248 -15.421  0.00  0.00    +0.000 C 
ATOM     18  C   UNL     1      26.679 -22.524 -16.738  0.00  0.00    +0.000 C 
ENDBRANCH   8  13
ENDBRANCH   1   7
BRANCH   4  21
ATOM     19  O   UNL     1      37.024 -27.300 -15.921  0.00  0.00    -0.270 OA
ATOM     20  N   UNL     1      38.816 -26.094 -15.148  0.00  0.00    -0.325 N 
ATOM     21  C   UNL     1      37.458 -26.399 -15.181  0.00  0.00    +0.243 C 
ATOM     22  H   UNL     1      39.449 -26.603 -15.705  0.00  0.00    +0.145 HD
ATOM     23  H   UNL     1      39.143 -25.370 -14.568  0.00  0.00    +0.145 HD
ENDBRANCH   4  21
BRANCH   5  25
ATOM     24  O   UNL     1      36.129 -24.429  -9.875  0.00  0.00    -0.245 OA
ATOM     25  C   UNL     1      36.573 -24.017 -10.951  0.00  0.00    +0.338 C 
BRANCH  25  26
ATOM     26  O   UNL     1      37.559 -23.079 -11.015  0.00  0.00    -0.477 OA
ATOM     27  H   UNL     1      38.243 -23.161 -11.649  0.00  0.00    +0.295 HD
ENDBRANCH  25  26
ENDBRANCH   5  25
TORSDOF 5
ENDMDL
MODEL 7
REMARK VINA RESULT:     -10.3     10.701     14.459
REMARK  Name = 5287459
REMARK  5 active torsions:
REMARK  status: ('A' for Active; 'I' for Inactive)
REMARK    1  A    between atoms: C_1  and  C_7
REMARK    2  A    between atoms: C_4  and  C_21
REMARK    3  A    between atoms: C_5  and  C_25
REMARK    4  A    between atoms: C_8  and  C_13
REMARK    5  A    between atoms: C_25  and  O_26
REMARK                            x       y       z     vdW  Elec       q    Type
REMARK                         _______ _______ _______ _____ _____    ______ ____
ROOT
ATOM      1  C   UNL     1      33.555 -13.504 -23.352  0.00  0.00    +0.000 C 
ATOM      2  C   UNL     1      34.136 -14.255 -22.331  0.00  0.00    +0.005 C 
ATOM      3  C   UNL     1      33.377 -14.066 -24.615  0.00  0.00    +0.006 C 
ATOM      4  C   UNL     1      34.538 -15.569 -22.573  0.00  0.00    +0.053 C 
ATOM      5  C   UNL     1      33.779 -15.380 -24.859  0.00  0.00    +0.076 C 
ATOM      6  C   UNL     1      34.359 -16.131 -23.836  0.00  0.00    +0.011 C 
ENDROOT
BRANCH   1   7
ATOM      7  C   UNL     1      33.139 -12.141 -23.101  0.00  0.00    +0.000 C 
ATOM      8  C   UNL     1      32.337  -9.513 -22.618  0.00  0.00    +0.000 C 
ATOM      9  C   UNL     1      33.685 -11.097 -23.847  0.00  0.00    +0.000 C 
ATOM     10  C   UNL     1      32.191 -11.872 -22.114  0.00  0.00    +0.000 C 
ATOM     11  C   UNL     1      33.285  -9.783 -23.605  0.00  0.00    +0.000 C 
ATOM     12  C   UNL     1      31.790 -10.558 -21.872  0.00  0.00    +0.000 C 
BRANCH   8  13
ATOM     13  C   UNL     1      31.921  -8.150 -22.366  0.00  0.00    +0.000 C 
ATOM     14  C   UNL     1      31.197  -7.451 -23.331  0.00  0.00    +0.000 C 
ATOM     15  C   UNL     1      32.245  -7.536 -21.156  0.00  0.00    +0.000 C 
ATOM     16  C   UNL     1      30.796  -6.138 -23.087  0.00  0.00    +0.000 C 
ATOM     17  C   UNL     1      31.845  -6.222 -20.912  0.00  0.00    +0.000 C 
ATOM     18  C   UNL     1      31.121  -5.523 -21.877  0.00  0.00    +0.000 C 
ENDBRANCH   8  13
ENDBRANCH   1   7
BRANCH   4  21
ATOM     19  O   UNL     1      35.042 -16.011 -20.315  0.00  0.00    -0.270 OA
ATOM     20  N   UNL     1      35.831 -17.509 -21.863  0.00  0.00    -0.325 N 
ATOM     21  C   UNL     1      35.144 -16.352 -21.508  0.00  0.00    +0.243 C 
ATOM     22  H   UNL     1      36.255 -18.063 -21.169  0.00  0.00    +0.145 HD
ATOM     23  H   UNL     1      35.892 -17.773 -22.810  0.00  0.00    +0.145 HD
ENDBRANCH   4  21
BRANCH   5  25
ATOM     24  O   UNL     1      33.169 -17.104 -26.401  0.00  0.00    -0.245 OA
ATOM     25  C   UNL     1      33.593 -15.965 -26.177  0.00  0.00    +0.338 C 
BRANCH  25  26
ATOM     26  O   UNL     1      33.940 -15.111 -27.179  0.00  0.00    -0.477 OA
ATOM     27  H   UNL     1      34.842 -14.981 -27.393  0.00  0.00    +0.295 HD
ENDBRANCH  25  26
ENDBRANCH   5  25
TORSDOF 5
ENDMDL
MODEL 8
REMARK VINA RESULT:     -10.1      2.484      3.686
REMARK  Name = 5287459
REMARK  5 active torsions:
REMARK  status: ('A' for Active; 'I' for Inactive)
REMARK    1  A    between atoms: C_1  and  C_7
REMARK    2  A    between atoms: C_4  and  C_21
REMARK    3  A    between atoms: C_5  and  C_25
REMARK    4  A    between atoms: C_8  and  C_13
REMARK    5  A    between atoms: C_25  and  O_26
REMARK                            x       y       z     vdW  Elec       q    Type
REMARK                         _______ _______ _______ _____ _____    ______ ____
ROOT
ATOM      1  C   UNL     1      34.828 -23.501 -16.320  0.00  0.00    +0.000 C 
ATOM      2  C   UNL     1      33.592 -23.572 -15.678  0.00  0.00    +0.005 C 
ATOM      3  C   UNL     1      35.910 -24.231 -15.832  0.00  0.00    +0.006 C 
ATOM      4  C   UNL     1      33.438 -24.375 -14.548  0.00  0.00    +0.053 C 
ATOM      5  C   UNL     1      35.758 -25.034 -14.701  0.00  0.00    +0.076 C 
ATOM      6  C   UNL     1      34.521 -25.105 -14.059  0.00  0.00    +0.011 C 
ENDROOT
BRANCH   1   7
ATOM      7  C   UNL     1      34.987 -22.668 -17.493  0.00  0.00    +0.000 C 
ATOM      8  C   UNL     1      35.296 -21.062 -19.753  0.00  0.00    +0.000 C 
ATOM      9  C   UNL     1      36.236 -22.125 -17.797  0.00  0.00    +0.000 C 
ATOM     10  C   UNL     1      33.894 -22.409 -18.319  0.00  0.00    +0.000 C 
ATOM     11  C   UNL     1      36.390 -21.321 -18.927  0.00  0.00    +0.000 C 
ATOM     12  C   UNL     1      34.048 -21.605 -19.448  0.00  0.00    +0.000 C 
BRANCH   8  13
ATOM     13  C   UNL     1      35.455 -20.228 -20.925  0.00  0.00    +0.000 C 
ATOM     14  C   UNL     1      36.624 -19.488 -21.102  0.00  0.00    +0.000 C 
ATOM     15  C   UNL     1      34.439 -20.165 -21.877  0.00  0.00    +0.000 C 
ATOM     16  C   UNL     1      36.777 -18.685 -22.232  0.00  0.00    +0.000 C 
ATOM     17  C   UNL     1      34.591 -19.362 -23.008  0.00  0.00    +0.000 C 
ATOM     18  C   UNL     1      35.759 -18.621 -23.185  0.00  0.00    +0.000 C 
ENDBRANCH   8  13
ENDBRANCH   1   7
BRANCH   4  21
ATOM     19  O   UNL     1      31.878 -25.377 -13.095  0.00  0.00    -0.270 OA
ATOM     20  N   UNL     1      31.229 -23.434 -14.128  0.00  0.00    -0.325 N 
ATOM     21  C   UNL     1      32.149 -24.448 -13.878  0.00  0.00    +0.243 C 
ATOM     22  H   UNL     1      30.346 -23.452 -13.693  0.00  0.00    +0.145 HD
ATOM     23  H   UNL     1      31.462 -22.699 -14.740  0.00  0.00    +0.145 HD
ENDBRANCH   4  21
BRANCH   5  25
ATOM     24  O   UNL     1      38.016 -25.822 -14.690  0.00  0.00    -0.245 OA
ATOM     25  C   UNL     1      36.887 -25.795 -14.191  0.00  0.00    +0.338 C 
BRANCH  25  26
ATOM     26  O   UNL     1      36.573 -26.502 -13.070  0.00  0.00    -0.477 OA
ATOM     27  H   UNL     1      35.696 -26.799 -12.933  0.00  0.00    +0.295 HD
ENDBRANCH  25  26
ENDBRANCH   5  25
TORSDOF 5
ENDMDL
MODEL 9
REMARK VINA RESULT:      -9.8      9.158     12.970
REMARK  Name = 5287459
REMARK  5 active torsions:
REMARK  status: ('A' for Active; 'I' for Inactive)
REMARK    1  A    between atoms: C_1  and  C_7
REMARK    2  A    between atoms: C_4  and  C_21
REMARK    3  A    between atoms: C_5  and  C_25
REMARK    4  A    between atoms: C_8  and  C_13
REMARK    5  A    between atoms: C_25  and  O_26
REMARK                            x       y       z     vdW  Elec       q    Type
REMARK                         _______ _______ _______ _____ _____    ______ ____
ROOT
ATOM      1  C   UNL     1      34.228 -15.514 -23.618  0.00  0.00    +0.000 C 
ATOM      2  C   UNL     1      35.092 -16.090 -22.688  0.00  0.00    +0.005 C 
ATOM      3  C   UNL     1      33.657 -16.300 -24.619  0.00  0.00    +0.006 C 
ATOM      4  C   UNL     1      35.383 -17.453 -22.756  0.00  0.00    +0.053 C 
ATOM      5  C   UNL     1      33.948 -17.662 -24.689  0.00  0.00    +0.076 C 
ATOM      6  C   UNL     1      34.812 -18.238 -23.757  0.00  0.00    +0.011 C 
ENDROOT
BRANCH   1   7
ATOM      7  C   UNL     1      33.926 -14.101 -23.547  0.00  0.00    +0.000 C 
ATOM      8  C   UNL     1      33.344 -11.376 -23.412  0.00  0.00    +0.000 C 
ATOM      9  C   UNL     1      34.252 -13.264 -24.615  0.00  0.00    +0.000 C 
ATOM     10  C   UNL     1      33.308 -13.576 -22.413  0.00  0.00    +0.000 C 
ATOM     11  C   UNL     1      33.962 -11.901 -24.546  0.00  0.00    +0.000 C 
ATOM     12  C   UNL     1      33.018 -12.213 -22.344  0.00  0.00    +0.000 C 
BRANCH   8  13
ATOM     13  C   UNL     1      33.043  -9.962 -23.340  0.00  0.00    +0.000 C 
ATOM     14  C   UNL     1      31.794  -9.537 -22.888  0.00  0.00    +0.000 C 
ATOM     15  C   UNL     1      34.003  -9.026 -23.722  0.00  0.00    +0.000 C 
ATOM     16  C   UNL     1      31.505  -8.174 -22.818  0.00  0.00    +0.000 C 
ATOM     17  C   UNL     1      33.714  -7.663 -23.653  0.00  0.00    +0.000 C 
ATOM     18  C   UNL     1      32.465  -7.236 -23.201  0.00  0.00    +0.000 C 
ENDBRANCH   8  13
ENDBRANCH   1   7
BRANCH   4  21
ATOM     19  O   UNL     1      36.005 -18.081 -20.573  0.00  0.00    -0.270 OA
ATOM     20  N   UNL     1      37.467 -18.615 -22.258  0.00  0.00    -0.325 N 
ATOM     21  C   UNL     1      36.284 -18.053 -21.786  0.00  0.00    +0.243 C 
ATOM     22  H   UNL     1      38.101 -19.029 -21.630  0.00  0.00    +0.145 HD
ATOM     23  H   UNL     1      37.669 -18.596 -23.222  0.00  0.00    +0.145 HD
ENDBRANCH   4  21
BRANCH   5  25
ATOM     24  O   UNL     1      32.211 -18.346 -26.185  0.00  0.00    -0.245 OA
ATOM     25  C   UNL     1      33.352 -18.481 -25.732  0.00  0.00    +0.338 C 
BRANCH  25  26
ATOM     26  O   UNL     1      34.200 -19.448 -26.182  0.00  0.00    -0.477 OA
ATOM     27  H   UNL     1      35.088 -19.234 -26.389  0.00  0.00    +0.295 HD
ENDBRANCH  25  26
ENDBRANCH   5  25
TORSDOF 5
ENDMDL
