MODEL 1
REMARK VINA RESULT:     -11.5      0.000      0.000
REMARK  Name = 5326930
REMARK  4 active torsions:
REMARK  status: ('A' for Active; 'I' for Inactive)
REMARK    1  A    between atoms: C_7  and  C_21
REMARK    2  A    between atoms: C_21  and  C_22
REMARK    3  A    between atoms: C_22  and  C_23
REMARK    4  A    between atoms: C_28  and  O_29
REMARK                            x       y       z     vdW  Elec       q    Type
REMARK                         _______ _______ _______ _____ _____    ______ ____
ROOT
ATOM      1  O   UNL     1      34.898 -24.977 -12.062  0.00  0.00    -0.209 OA
ATOM      2  N   UNL     1      34.797 -23.078 -15.587  0.00  0.00    -0.275 N 
ATOM      3  N   UNL     1      30.048 -25.388 -14.044  0.00  0.00    -0.315 N 
ATOM      4  N   UNL     1      30.025 -24.325 -15.995  0.00  0.00    -0.316 N 
ATOM      5  N   UNL     1      36.006 -23.762 -13.656  0.00  0.00    -0.302 NA
ATOM      6  N   UNL     1      37.009 -22.515 -15.367  0.00  0.00    -0.320 N 
ATOM      7  C   UNL     1      32.443 -23.621 -15.921  0.00  0.00    +0.007 C 
ATOM      8  C   UNL     1      33.614 -23.683 -15.150  0.00  0.00    +0.060 C 
ATOM      9  C   UNL     1      31.279 -24.245 -15.437  0.00  0.00    +0.056 C 
ATOM     10  C   UNL     1      31.321 -24.904 -14.212  0.00  0.00    +0.060 C 
ATOM     11  C   UNL     1      33.616 -24.357 -13.919  0.00  0.00    +0.109 C 
ATOM     12  C   UNL     1      32.466 -24.985 -13.419  0.00  0.00    +0.029 C 
ATOM     13  C   UNL     1      34.888 -24.390 -13.140  0.00  0.00    +0.208 C 
ATOM     14  C   UNL     1      29.313 -25.017 -15.134  0.00  0.00    +0.182 C 
ATOM     15  C   UNL     1      35.930 -23.154 -14.810  0.00  0.00    +0.248 C 
ATOM     16  H   UNL     1      34.818 -22.600 -16.448  0.00  0.00    +0.156 HD
ATOM     17  H   UNL     1      29.724 -25.910 -13.275  0.00  0.00    +0.148 HD
ATOM     18  H   UNL     1      29.725 -23.946 -16.853  0.00  0.00    +0.148 HD
ATOM     19  H   UNL     1      36.919 -22.065 -16.238  0.00  0.00    +0.146 HD
ATOM     20  H   UNL     1      37.873 -22.506 -14.895  0.00  0.00    +0.146 HD
ENDROOT
BRANCH   7  21
ATOM     21  C   UNL     1      32.434 -22.904 -17.234  0.00  0.00    +0.034 C 
BRANCH  21  22
ATOM     22  C   UNL     1      33.525 -23.378 -18.212  0.00  0.00    +0.031 C 
BRANCH  22  23
ATOM     23  C   UNL     1      34.014 -22.288 -19.134  0.00  0.00    -0.022 C 
ATOM     24  C   UNL     1      33.092 -21.490 -19.792  0.00  0.00    -0.001 C 
ATOM     25  C   UNL     1      35.377 -22.105 -19.306  0.00  0.00    -0.001 C 
ATOM     26  C   UNL     1      33.543 -20.483 -20.644  0.00  0.00    +0.037 C 
ATOM     27  C   UNL     1      35.829 -21.097 -20.159  0.00  0.00    +0.037 C 
ATOM     28  C   UNL     1      34.912 -20.286 -20.828  0.00  0.00    +0.139 C 
BRANCH  28  29
ATOM     29  O   UNL     1      35.353 -19.304 -21.660  0.00  0.00    -0.471 OA
ATOM     30  C   UNL     1      34.966 -19.391 -23.031  0.00  0.00    +0.252 C 
ENDBRANCH  28  29
ENDBRANCH  22  23
ENDBRANCH  21  22
ENDBRANCH   7  21
TORSDOF 4
ENDMDL
MODEL 2
REMARK VINA RESULT:     -11.2      1.758      4.121
REMARK  Name = 5326930
REMARK  4 active torsions:
REMARK  status: ('A' for Active; 'I' for Inactive)
REMARK    1  A    between atoms: C_7  and  C_21
REMARK    2  A    between atoms: C_21  and  C_22
REMARK    3  A    between atoms: C_22  and  C_23
REMARK    4  A    between atoms: C_28  and  O_29
REMARK                            x       y       z     vdW  Elec       q    Type
REMARK                         _______ _______ _______ _____ _____    ______ ____
ROOT
ATOM      1  O   UNL     1      28.888 -25.588 -13.997  0.00  0.00    -0.209 OA
ATOM      2  N   UNL     1      29.879 -23.206 -17.060  0.00  0.00    -0.275 N 
ATOM      3  N   UNL     1      34.100 -24.916 -13.973  0.00  0.00    -0.315 N 
ATOM      4  N   UNL     1      34.617 -23.594 -15.681  0.00  0.00    -0.316 N 
ATOM      5  N   UNL     1      28.215 -24.351 -15.802  0.00  0.00    -0.302 NA
ATOM      6  N   UNL     1      27.676 -23.048 -17.674  0.00  0.00    -0.320 N 
ATOM      7  C   UNL     1      32.250 -23.307 -16.497  0.00  0.00    +0.007 C 
ATOM      8  C   UNL     1      30.917 -23.668 -16.244  0.00  0.00    +0.060 C 
ATOM      9  C   UNL     1      33.257 -23.798 -15.647  0.00  0.00    +0.056 C 
ATOM     10  C   UNL     1      32.906 -24.624 -14.584  0.00  0.00    +0.060 C 
ATOM     11  C   UNL     1      30.604 -24.504 -15.162  0.00  0.00    +0.109 C 
ATOM     12  C   UNL     1      31.593 -25.005 -14.303  0.00  0.00    +0.029 C 
ATOM     13  C   UNL     1      29.171 -24.857 -14.941  0.00  0.00    +0.208 C 
ATOM     14  C   UNL     1      35.090 -24.277 -14.664  0.00  0.00    +0.182 C 
ATOM     15  C   UNL     1      28.582 -23.577 -16.789  0.00  0.00    +0.248 C 
ATOM     16  H   UNL     1      30.077 -22.618 -17.825  0.00  0.00    +0.156 HD
ATOM     17  H   UNL     1      34.220 -25.484 -13.178  0.00  0.00    +0.148 HD
ATOM     18  H   UNL     1      35.125 -23.052 -16.328  0.00  0.00    +0.148 HD
ATOM     19  H   UNL     1      27.984 -22.469 -18.407  0.00  0.00    +0.146 HD
ATOM     20  H   UNL     1      26.717 -23.249 -17.574  0.00  0.00    +0.146 HD
ENDROOT
BRANCH   7  21
ATOM     21  C   UNL     1      32.591 -22.415 -17.649  0.00  0.00    +0.034 C 
BRANCH  21  22
ATOM     22  C   UNL     1      33.684 -22.982 -18.574  0.00  0.00    +0.031 C 
BRANCH  22  23
ATOM     23  C   UNL     1      34.342 -21.931 -19.433  0.00  0.00    -0.022 C 
ATOM     24  C   UNL     1      33.554 -21.104 -20.218  0.00  0.00    -0.001 C 
ATOM     25  C   UNL     1      35.722 -21.813 -19.424  0.00  0.00    -0.001 C 
ATOM     26  C   UNL     1      34.161 -20.133 -21.013  0.00  0.00    +0.037 C 
ATOM     27  C   UNL     1      36.331 -20.840 -20.219  0.00  0.00    +0.037 C 
ATOM     28  C   UNL     1      35.550 -20.001 -21.014  0.00  0.00    +0.139 C 
BRANCH  28  29
ATOM     29  O   UNL     1      36.143 -19.054 -21.790  0.00  0.00    -0.471 OA
ATOM     30  C   UNL     1      35.389 -18.547 -22.889  0.00  0.00    +0.252 C 
ENDBRANCH  28  29
ENDBRANCH  22  23
ENDBRANCH  21  22
ENDBRANCH   7  21
TORSDOF 4
ENDMDL
MODEL 3
REMARK VINA RESULT:     -10.9      1.809      2.585
REMARK  Name = 5326930
REMARK  4 active torsions:
REMARK  status: ('A' for Active; 'I' for Inactive)
REMARK    1  A    between atoms: C_7  and  C_21
REMARK    2  A    between atoms: C_21  and  C_22
REMARK    3  A    between atoms: C_22  and  C_23
REMARK    4  A    between atoms: C_28  and  O_29
REMARK                            x       y       z     vdW  Elec       q    Type
REMARK                         _______ _______ _______ _____ _____    ______ ____
ROOT
ATOM      1  O   UNL     1      36.972 -26.422 -11.969  0.00  0.00    -0.209 OA
ATOM      2  N   UNL     1      37.555 -24.420 -15.389  0.00  0.00    -0.275 N 
ATOM      3  N   UNL     1      32.474 -24.057 -13.309  0.00  0.00    -0.315 N 
ATOM      4  N   UNL     1      32.830 -22.957 -15.206  0.00  0.00    -0.316 N 
ATOM      5  N   UNL     1      38.397 -25.815 -13.655  0.00  0.00    -0.302 NA
ATOM      6  N   UNL     1      39.739 -25.114 -15.444  0.00  0.00    -0.320 N 
ATOM      7  C   UNL     1      35.250 -23.624 -15.429  0.00  0.00    +0.007 C 
ATOM      8  C   UNL     1      36.279 -24.360 -14.819  0.00  0.00    +0.060 C 
ATOM      9  C   UNL     1      33.985 -23.595 -14.815  0.00  0.00    +0.056 C 
ATOM     10  C   UNL     1      33.788 -24.293 -13.628  0.00  0.00    +0.060 C 
ATOM     11  C   UNL     1      36.041 -25.051 -13.621  0.00  0.00    +0.109 C 
ATOM     12  C   UNL     1      34.787 -25.033 -12.994  0.00  0.00    +0.029 C 
ATOM     13  C   UNL     1      37.171 -25.815 -13.018  0.00  0.00    +0.208 C 
ATOM     14  C   UNL     1      31.946 -23.255 -14.282  0.00  0.00    +0.182 C 
ATOM     15  C   UNL     1      38.545 -25.149 -14.770  0.00  0.00    +0.248 C 
ATOM     16  H   UNL     1      37.743 -23.943 -16.230  0.00  0.00    +0.156 HD
ATOM     17  H   UNL     1      31.998 -24.405 -12.521  0.00  0.00    +0.148 HD
ATOM     18  H   UNL     1      32.696 -22.397 -16.006  0.00  0.00    +0.148 HD
ATOM     19  H   UNL     1      39.818 -24.603 -16.281  0.00  0.00    +0.146 HD
ATOM     20  H   UNL     1      40.518 -25.602 -15.090  0.00  0.00    +0.146 HD
ENDROOT
BRANCH   7  21
ATOM     21  C   UNL     1      35.496 -22.886 -16.706  0.00  0.00    +0.034 C 
BRANCH  21  22
ATOM     22  C   UNL     1      34.448 -23.163 -17.799  0.00  0.00    +0.031 C 
BRANCH  22  23
ATOM     23  C   UNL     1      34.484 -22.162 -18.928  0.00  0.00    -0.022 C 
ATOM     24  C   UNL     1      35.707 -21.722 -19.407  0.00  0.00    -0.001 C 
ATOM     25  C   UNL     1      33.293 -21.700 -19.464  0.00  0.00    -0.001 C 
ATOM     26  C   UNL     1      35.741 -20.796 -20.449  0.00  0.00    +0.037 C 
ATOM     27  C   UNL     1      33.326 -20.774 -20.507  0.00  0.00    +0.037 C 
ATOM     28  C   UNL     1      34.551 -20.323 -21.000  0.00  0.00    +0.139 C 
BRANCH  28  29
ATOM     29  O   UNL     1      34.583 -19.419 -22.017  0.00  0.00    -0.471 OA
ATOM     30  C   UNL     1      35.778 -18.656 -22.171  0.00  0.00    +0.252 C 
ENDBRANCH  28  29
ENDBRANCH  22  23
ENDBRANCH  21  22
ENDBRANCH   7  21
TORSDOF 4
ENDMDL
MODEL 4
REMARK VINA RESULT:     -10.6      1.465      3.857
REMARK  Name = 5326930
REMARK  4 active torsions:
REMARK  status: ('A' for Active; 'I' for Inactive)
REMARK    1  A    between atoms: C_7  and  C_21
REMARK    2  A    between atoms: C_21  and  C_22
REMARK    3  A    between atoms: C_22  and  C_23
REMARK    4  A    between atoms: C_28  and  O_29
REMARK                            x       y       z     vdW  Elec       q    Type
REMARK                         _______ _______ _______ _____ _____    ______ ____
ROOT
ATOM      1  O   UNL     1      30.737 -24.673 -12.775  0.00  0.00    -0.209 OA
ATOM      2  N   UNL     1      32.097 -23.227 -16.254  0.00  0.00    -0.275 N 
ATOM      3  N   UNL     1      35.982 -24.993 -12.782  0.00  0.00    -0.315 N 
ATOM      4  N   UNL     1      36.704 -24.186 -14.722  0.00  0.00    -0.316 N 
ATOM      5  N   UNL     1      30.273 -23.747 -14.817  0.00  0.00    -0.302 NA
ATOM      6  N   UNL     1      29.950 -22.797 -16.934  0.00  0.00    -0.320 N 
ATOM      7  C   UNL     1      34.417 -23.644 -15.631  0.00  0.00    +0.007 C 
ATOM      8  C   UNL     1      33.046 -23.689 -15.336  0.00  0.00    +0.060 C 
ATOM      9  C   UNL     1      35.331 -24.122 -14.674  0.00  0.00    +0.056 C 
ATOM     10  C   UNL     1      34.853 -24.622 -13.467  0.00  0.00    +0.060 C 
ATOM     11  C   UNL     1      32.602 -24.201 -14.107  0.00  0.00    +0.109 C 
ATOM     12  C   UNL     1      33.498 -24.682 -13.140  0.00  0.00    +0.029 C 
ATOM     13  C   UNL     1      31.134 -24.226 -13.847  0.00  0.00    +0.208 C 
ATOM     14  C   UNL     1      37.061 -24.713 -13.572  0.00  0.00    +0.182 C 
ATOM     15  C   UNL     1      30.759 -23.284 -15.938  0.00  0.00    +0.248 C 
ATOM     16  H   UNL     1      32.386 -22.863 -17.122  0.00  0.00    +0.156 HD
ATOM     17  H   UNL     1      36.009 -25.390 -11.882  0.00  0.00    +0.148 HD
ATOM     18  H   UNL     1      37.293 -23.899 -15.458  0.00  0.00    +0.148 HD
ATOM     19  H   UNL     1      30.347 -22.455 -17.768  0.00  0.00    +0.146 HD
ATOM     20  H   UNL     1      28.972 -22.789 -16.815  0.00  0.00    +0.146 HD
ENDROOT
BRANCH   7  21
ATOM     21  C   UNL     1      34.897 -23.099 -16.939  0.00  0.00    +0.034 C 
BRANCH  21  22
ATOM     22  C   UNL     1      33.835 -23.127 -18.053  0.00  0.00    +0.031 C 
BRANCH  22  23
ATOM     23  C   UNL     1      34.068 -22.089 -19.124  0.00  0.00    -0.022 C 
ATOM     24  C   UNL     1      35.366 -21.775 -19.495  0.00  0.00    -0.001 C 
ATOM     25  C   UNL     1      32.980 -21.469 -19.716  0.00  0.00    -0.001 C 
ATOM     26  C   UNL     1      35.582 -20.816 -20.484  0.00  0.00    +0.037 C 
ATOM     27  C   UNL     1      33.195 -20.509 -20.706  0.00  0.00    +0.037 C 
ATOM     28  C   UNL     1      34.496 -20.183 -21.090  0.00  0.00    +0.139 C 
BRANCH  28  29
ATOM     29  O   UNL     1      34.706 -19.247 -22.055  0.00  0.00    -0.471 OA
ATOM     30  C   UNL     1      35.576 -18.163 -21.732  0.00  0.00    +0.252 C 
ENDBRANCH  28  29
ENDBRANCH  22  23
ENDBRANCH  21  22
ENDBRANCH   7  21
TORSDOF 4
ENDMDL
MODEL 5
REMARK VINA RESULT:     -10.5      3.088      6.098
REMARK  Name = 5326930
REMARK  4 active torsions:
REMARK  status: ('A' for Active; 'I' for Inactive)
REMARK    1  A    between atoms: C_7  and  C_21
REMARK    2  A    between atoms: C_21  and  C_22
REMARK    3  A    between atoms: C_22  and  C_23
REMARK    4  A    between atoms: C_28  and  O_29
REMARK                            x       y       z     vdW  Elec       q    Type
REMARK                         _______ _______ _______ _____ _____    ______ ____
ROOT
ATOM      1  O   UNL     1      37.304 -21.899 -17.222  0.00  0.00    -0.209 OA
ATOM      2  N   UNL     1      33.731 -23.622 -16.664  0.00  0.00    -0.275 N 
ATOM      3  N   UNL     1      37.183 -23.970 -12.393  0.00  0.00    -0.315 N 
ATOM      4  N   UNL     1      35.193 -24.915 -12.115  0.00  0.00    -0.316 N 
ATOM      5  N   UNL     1      35.234 -22.412 -18.056  0.00  0.00    -0.302 NA
ATOM      6  N   UNL     1      33.085 -23.007 -18.775  0.00  0.00    -0.320 N 
ATOM      7  C   UNL     1      34.316 -24.325 -14.403  0.00  0.00    +0.007 C 
ATOM      8  C   UNL     1      34.646 -23.683 -15.607  0.00  0.00    +0.060 C 
ATOM      9  C   UNL     1      35.271 -24.358 -13.370  0.00  0.00    +0.056 C 
ATOM     10  C   UNL     1      36.510 -23.759 -13.571  0.00  0.00    +0.060 C 
ATOM     11  C   UNL     1      35.907 -23.090 -15.771  0.00  0.00    +0.109 C 
ATOM     12  C   UNL     1      36.873 -23.113 -14.753  0.00  0.00    +0.029 C 
ATOM     13  C   UNL     1      36.203 -22.421 -17.070  0.00  0.00    +0.208 C 
ATOM     14  C   UNL     1      36.355 -24.665 -11.557  0.00  0.00    +0.182 C 
ATOM     15  C   UNL     1      34.082 -22.987 -17.833  0.00  0.00    +0.248 C 
ATOM     16  H   UNL     1      32.841 -24.033 -16.571  0.00  0.00    +0.156 HD
ATOM     17  H   UNL     1      38.100 -23.674 -12.190  0.00  0.00    +0.148 HD
ATOM     18  H   UNL     1      34.430 -25.398 -11.720  0.00  0.00    +0.148 HD
ATOM     19  H   UNL     1      32.227 -23.448 -18.576  0.00  0.00    +0.146 HD
ATOM     20  H   UNL     1      33.227 -22.580 -19.652  0.00  0.00    +0.146 HD
ENDROOT
BRANCH   7  21
ATOM     21  C   UNL     1      32.974 -24.960 -14.222  0.00  0.00    +0.034 C 
BRANCH  21  22
ATOM     22  C   UNL     1      31.865 -23.971 -13.819  0.00  0.00    +0.031 C 
BRANCH  22  23
ATOM     23  C   UNL     1      30.707 -23.947 -14.787  0.00  0.00    -0.022 C 
ATOM     24  C   UNL     1      30.451 -22.794 -15.511  0.00  0.00    -0.001 C 
ATOM     25  C   UNL     1      29.920 -25.078 -14.933  0.00  0.00    -0.001 C 
ATOM     26  C   UNL     1      29.382 -22.770 -16.406  0.00  0.00    +0.037 C 
ATOM     27  C   UNL     1      28.850 -25.055 -15.828  0.00  0.00    +0.037 C 
ATOM     28  C   UNL     1      28.581 -23.901 -16.564  0.00  0.00    +0.139 C 
BRANCH  28  29
ATOM     29  O   UNL     1      27.536 -23.879 -17.436  0.00  0.00    -0.471 OA
ATOM     30  C   UNL     1      26.963 -22.607 -17.732  0.00  0.00    +0.252 C 
ENDBRANCH  28  29
ENDBRANCH  22  23
ENDBRANCH  21  22
ENDBRANCH   7  21
TORSDOF 4
ENDMDL
MODEL 6
REMARK VINA RESULT:     -10.3      3.495      5.934
REMARK  Name = 5326930
REMARK  4 active torsions:
REMARK  status: ('A' for Active; 'I' for Inactive)
REMARK    1  A    between atoms: C_7  and  C_21
REMARK    2  A    between atoms: C_21  and  C_22
REMARK    3  A    between atoms: C_22  and  C_23
REMARK    4  A    between atoms: C_28  and  O_29
REMARK                            x       y       z     vdW  Elec       q    Type
REMARK                         _______ _______ _______ _____ _____    ______ ____
ROOT
ATOM      1  O   UNL     1      38.626 -22.817 -11.977  0.00  0.00    -0.209 OA
ATOM      2  N   UNL     1      35.100 -24.716 -11.912  0.00  0.00    -0.275 N 
ATOM      3  N   UNL     1      36.400 -22.372 -16.717  0.00  0.00    -0.315 N 
ATOM      4  N   UNL     1      34.451 -23.435 -16.649  0.00  0.00    -0.316 N 
ATOM      5  N   UNL     1      37.090 -24.040 -10.798  0.00  0.00    -0.302 NA
ATOM      6  N   UNL     1      35.432 -25.295  -9.719  0.00  0.00    -0.320 N 
ATOM      7  C   UNL     1      34.647 -24.156 -14.242  0.00  0.00    +0.007 C 
ATOM      8  C   UNL     1      35.477 -24.103 -13.112  0.00  0.00    +0.060 C 
ATOM      9  C   UNL     1      35.072 -23.524 -15.425  0.00  0.00    +0.056 C 
ATOM     10  C   UNL     1      36.297 -22.865 -15.441  0.00  0.00    +0.060 C 
ATOM     11  C   UNL     1      36.706 -23.428 -13.168  0.00  0.00    +0.109 C 
ATOM     12  C   UNL     1      37.148 -22.791 -14.337  0.00  0.00    +0.029 C 
ATOM     13  C   UNL     1      37.548 -23.404 -11.937  0.00  0.00    +0.208 C 
ATOM     14  C   UNL     1      35.274 -22.738 -17.399  0.00  0.00    +0.182 C 
ATOM     15  C   UNL     1      35.934 -24.648 -10.820  0.00  0.00    +0.248 C 
ATOM     16  H   UNL     1      34.241 -25.194 -11.851  0.00  0.00    +0.156 HD
ATOM     17  H   UNL     1      37.152 -21.847 -17.076  0.00  0.00    +0.148 HD
ATOM     18  H   UNL     1      33.578 -23.812 -16.907  0.00  0.00    +0.148 HD
ATOM     19  H   UNL     1      34.557 -25.744  -9.768  0.00  0.00    +0.146 HD
ATOM     20  H   UNL     1      35.947 -25.310  -8.880  0.00  0.00    +0.146 HD
ENDROOT
BRANCH   7  21
ATOM     21  C   UNL     1      33.335 -24.874 -14.190  0.00  0.00    +0.034 C 
BRANCH  21  22
ATOM     22  C   UNL     1      32.161 -23.994 -13.720  0.00  0.00    +0.031 C 
BRANCH  22  23
ATOM     23  C   UNL     1      30.992 -24.002 -14.673  0.00  0.00    -0.022 C 
ATOM     24  C   UNL     1      29.974 -24.924 -14.493  0.00  0.00    -0.001 C 
ATOM     25  C   UNL     1      30.957 -23.087 -15.713  0.00  0.00    -0.001 C 
ATOM     26  C   UNL     1      28.892 -24.932 -15.373  0.00  0.00    +0.037 C 
ATOM     27  C   UNL     1      29.875 -23.094 -16.595  0.00  0.00    +0.037 C 
ATOM     28  C   UNL     1      28.843 -24.016 -16.424  0.00  0.00    +0.139 C 
BRANCH  28  29
ATOM     29  O   UNL     1      27.789 -24.024 -17.285  0.00  0.00    -0.471 OA
ATOM     30  C   UNL     1      27.173 -22.769 -17.569  0.00  0.00    +0.252 C 
ENDBRANCH  28  29
ENDBRANCH  22  23
ENDBRANCH  21  22
ENDBRANCH   7  21
TORSDOF 4
ENDMDL
MODEL 7
REMARK VINA RESULT:     -10.0      3.218      5.897
REMARK  Name = 5326930
REMARK  4 active torsions:
REMARK  status: ('A' for Active; 'I' for Inactive)
REMARK    1  A    between atoms: C_7  and  C_21
REMARK    2  A    between atoms: C_21  and  C_22
REMARK    3  A    between atoms: C_22  and  C_23
REMARK    4  A    between atoms: C_28  and  O_29
REMARK                            x       y       z     vdW  Elec       q    Type
REMARK                         _______ _______ _______ _____ _____    ______ ____
ROOT
ATOM      1  O   UNL     1      38.287 -22.864 -15.618  0.00  0.00    -0.209 OA
ATOM      2  N   UNL     1      34.750 -24.431 -14.578  0.00  0.00    -0.275 N 
ATOM      3  N   UNL     1      34.780 -21.704 -19.356  0.00  0.00    -0.315 N 
ATOM      4  N   UNL     1      32.834 -22.586 -18.752  0.00  0.00    -0.316 N 
ATOM      5  N   UNL     1      37.054 -24.064 -14.107  0.00  0.00    -0.302 NA
ATOM      6  N   UNL     1      35.669 -25.274 -12.654  0.00  0.00    -0.320 N 
ATOM      7  C   UNL     1      33.673 -23.582 -16.594  0.00  0.00    +0.007 C 
ATOM      8  C   UNL     1      34.811 -23.727 -15.785  0.00  0.00    +0.060 C 
ATOM      9  C   UNL     1      33.786 -22.865 -17.799  0.00  0.00    +0.056 C 
ATOM     10  C   UNL     1      35.017 -22.322 -18.154  0.00  0.00    +0.060 C 
ATOM     11  C   UNL     1      36.035 -23.165 -16.178  0.00  0.00    +0.109 C 
ATOM     12  C   UNL     1      36.168 -22.447 -17.376  0.00  0.00    +0.029 C 
ATOM     13  C   UNL     1      37.212 -23.352 -15.281  0.00  0.00    +0.208 C 
ATOM     14  C   UNL     1      33.463 -21.889 -19.670  0.00  0.00    +0.182 C 
ATOM     15  C   UNL     1      35.882 -24.559 -13.806  0.00  0.00    +0.248 C 
ATOM     16  H   UNL     1      33.902 -24.834 -14.283  0.00  0.00    +0.156 HD
ATOM     17  H   UNL     1      35.442 -21.214 -19.895  0.00  0.00    +0.148 HD
ATOM     18  H   UNL     1      31.885 -22.852 -18.746  0.00  0.00    +0.148 HD
ATOM     19  H   UNL     1      34.775 -25.634 -12.456  0.00  0.00    +0.146 HD
ATOM     20  H   UNL     1      36.412 -25.427 -12.026  0.00  0.00    +0.146 HD
ENDROOT
BRANCH   7  21
ATOM     21  C   UNL     1      32.364 -24.178 -16.181  0.00  0.00    +0.034 C 
BRANCH  21  22
ATOM     22  C   UNL     1      31.575 -23.318 -15.176  0.00  0.00    +0.031 C 
BRANCH  22  23
ATOM     23  C   UNL     1      30.141 -23.089 -15.585  0.00  0.00    -0.022 C 
ATOM     24  C   UNL     1      29.739 -23.419 -16.869  0.00  0.00    -0.001 C 
ATOM     25  C   UNL     1      29.251 -22.552 -14.668  0.00  0.00    -0.001 C 
ATOM     26  C   UNL     1      28.413 -23.209 -17.247  0.00  0.00    +0.037 C 
ATOM     27  C   UNL     1      27.924 -22.341 -15.046  0.00  0.00    +0.037 C 
ATOM     28  C   UNL     1      27.506 -22.669 -16.335  0.00  0.00    +0.139 C 
BRANCH  28  29
ATOM     29  O   UNL     1      26.213 -22.462 -16.704  0.00  0.00    -0.471 OA
ATOM     30  C   UNL     1      25.982 -21.583 -17.804  0.00  0.00    +0.252 C 
ENDBRANCH  28  29
ENDBRANCH  22  23
ENDBRANCH  21  22
ENDBRANCH   7  21
TORSDOF 4
ENDMDL
MODEL 8
REMARK VINA RESULT:     -10.0      7.516     11.001
REMARK  Name = 5326930
REMARK  4 active torsions:
REMARK  status: ('A' for Active; 'I' for Inactive)
REMARK    1  A    between atoms: C_7  and  C_21
REMARK    2  A    between atoms: C_21  and  C_22
REMARK    3  A    between atoms: C_22  and  C_23
REMARK    4  A    between atoms: C_28  and  O_29
REMARK                            x       y       z     vdW  Elec       q    Type
REMARK                         _______ _______ _______ _____ _____    ______ ____
ROOT
ATOM      1  O   UNL     1      33.526 -19.407 -26.251  0.00  0.00    -0.209 OA
ATOM      2  N   UNL     1      34.036 -15.879 -24.424  0.00  0.00    -0.275 N 
ATOM      3  N   UNL     1      35.847 -20.247 -21.611  0.00  0.00    -0.315 N 
ATOM      4  N   UNL     1      36.116 -18.275 -20.626  0.00  0.00    -0.316 N 
ATOM      5  N   UNL     1      33.267 -17.133 -26.295  0.00  0.00    -0.302 NA
ATOM      6  N   UNL     1      33.069 -14.800 -26.201  0.00  0.00    -0.320 N 
ATOM      7  C   UNL     1      35.079 -16.926 -22.484  0.00  0.00    +0.007 C 
ATOM      8  C   UNL     1      34.480 -17.022 -23.750  0.00  0.00    +0.060 C 
ATOM      9  C   UNL     1      35.509 -18.104 -21.848  0.00  0.00    +0.056 C 
ATOM     10  C   UNL     1      35.328 -19.327 -22.487  0.00  0.00    +0.060 C 
ATOM     11  C   UNL     1      34.315 -18.273 -24.362  0.00  0.00    +0.109 C 
ATOM     12  C   UNL     1      34.737 -19.460 -23.744  0.00  0.00    +0.029 C 
ATOM     13  C   UNL     1      33.673 -18.316 -25.707  0.00  0.00    +0.208 C 
ATOM     14  C   UNL     1      36.304 -19.570 -20.516  0.00  0.00    +0.182 C 
ATOM     15  C   UNL     1      33.452 -16.003 -25.664  0.00  0.00    +0.248 C 
ATOM     16  H   UNL     1      34.141 -14.991 -24.013  0.00  0.00    +0.156 HD
ATOM     17  H   UNL     1      35.882 -21.221 -21.749  0.00  0.00    +0.148 HD
ATOM     18  H   UNL     1      36.358 -17.577 -19.974  0.00  0.00    +0.148 HD
ATOM     19  H   UNL     1      33.223 -13.966 -25.700  0.00  0.00    +0.146 HD
ATOM     20  H   UNL     1      32.639 -14.770 -27.087  0.00  0.00    +0.146 HD
ENDROOT
BRANCH   7  21
ATOM     21  C   UNL     1      35.257 -15.594 -21.825  0.00  0.00    +0.034 C 
BRANCH  21  22
ATOM     22  C   UNL     1      34.081 -15.183 -20.920  0.00  0.00    +0.031 C 
BRANCH  22  23
ATOM     23  C   UNL     1      33.392 -13.921 -21.375  0.00  0.00    -0.022 C 
ATOM     24  C   UNL     1      33.819 -13.293 -22.534  0.00  0.00    -0.001 C 
ATOM     25  C   UNL     1      32.344 -13.411 -20.625  0.00  0.00    -0.001 C 
ATOM     26  C   UNL     1      33.183 -12.126 -22.955  0.00  0.00    +0.037 C 
ATOM     27  C   UNL     1      31.707 -12.243 -21.046  0.00  0.00    +0.037 C 
ATOM     28  C   UNL     1      32.126 -11.601 -22.211  0.00  0.00    +0.139 C 
BRANCH  28  29
ATOM     29  O   UNL     1      31.505 -10.461 -22.621  0.00  0.00    -0.471 OA
ATOM     30  C   UNL     1      32.326  -9.441 -23.187  0.00  0.00    +0.252 C 
ENDBRANCH  28  29
ENDBRANCH  22  23
ENDBRANCH  21  22
ENDBRANCH   7  21
TORSDOF 4
ENDMDL
MODEL 9
REMARK VINA RESULT:      -9.8      1.347      3.966
REMARK  Name = 5326930
REMARK  4 active torsions:
REMARK  status: ('A' for Active; 'I' for Inactive)
REMARK    1  A    between atoms: C_7  and  C_21
REMARK    2  A    between atoms: C_21  and  C_22
REMARK    3  A    between atoms: C_22  and  C_23
REMARK    4  A    between atoms: C_28  and  O_29
REMARK                            x       y       z     vdW  Elec       q    Type
REMARK                         _______ _______ _______ _____ _____    ______ ____
ROOT
ATOM      1  O   UNL     1      33.465 -24.257 -12.469  0.00  0.00    -0.209 OA
ATOM      2  N   UNL     1      32.155 -24.150 -16.253  0.00  0.00    -0.275 N 
ATOM      3  N   UNL     1      37.292 -22.325 -15.509  0.00  0.00    -0.315 N 
ATOM      4  N   UNL     1      36.536 -22.280 -17.597  0.00  0.00    -0.316 N 
ATOM      5  N   UNL     1      31.774 -24.660 -13.960  0.00  0.00    -0.302 NA
ATOM      6  N   UNL     1      30.138 -25.019 -15.598  0.00  0.00    -0.320 N 
ATOM      7  C   UNL     1      34.263 -23.225 -17.058  0.00  0.00    +0.007 C 
ATOM      8  C   UNL     1      33.456 -23.696 -16.011  0.00  0.00    +0.060 C 
ATOM      9  C   UNL     1      35.564 -22.780 -16.762  0.00  0.00    +0.056 C 
ATOM     10  C   UNL     1      36.013 -22.818 -15.446  0.00  0.00    +0.060 C 
ATOM     11  C   UNL     1      33.945 -23.720 -14.696  0.00  0.00    +0.109 C 
ATOM     12  C   UNL     1      35.240 -23.280 -14.380  0.00  0.00    +0.029 C 
ATOM     13  C   UNL     1      33.045 -24.232 -13.623  0.00  0.00    +0.208 C 
ATOM     14  C   UNL     1      37.557 -22.018 -16.814  0.00  0.00    +0.182 C 
ATOM     15  C   UNL     1      31.387 -24.608 -15.207  0.00  0.00    +0.248 C 
ATOM     16  H   UNL     1      31.792 -24.142 -17.168  0.00  0.00    +0.156 HD
ATOM     17  H   UNL     1      37.907 -22.212 -14.749  0.00  0.00    +0.148 HD
ATOM     18  H   UNL     1      36.479 -22.148 -18.572  0.00  0.00    +0.148 HD
ATOM     19  H   UNL     1      29.876 -24.968 -16.546  0.00  0.00    +0.146 HD
ATOM     20  H   UNL     1      29.502 -25.366 -14.930  0.00  0.00    +0.146 HD
ENDROOT
BRANCH   7  21
ATOM     21  C   UNL     1      33.748 -23.197 -18.463  0.00  0.00    +0.034 C 
BRANCH  21  22
ATOM     22  C   UNL     1      33.036 -21.885 -18.840  0.00  0.00    +0.031 C 
BRANCH  22  23
ATOM     23  C   UNL     1      33.731 -21.125 -19.943  0.00  0.00    -0.022 C 
ATOM     24  C   UNL     1      32.973 -20.426 -20.869  0.00  0.00    -0.001 C 
ATOM     25  C   UNL     1      35.114 -21.143 -20.012  0.00  0.00    -0.001 C 
ATOM     26  C   UNL     1      33.614 -19.724 -21.889  0.00  0.00    +0.037 C 
ATOM     27  C   UNL     1      35.757 -20.440 -21.033  0.00  0.00    +0.037 C 
ATOM     28  C   UNL     1      35.007 -19.731 -21.971  0.00  0.00    +0.139 C 
BRANCH  28  29
ATOM     29  O   UNL     1      35.633 -19.047 -22.966  0.00  0.00    -0.471 OA
ATOM     30  C   UNL     1      35.188 -17.716 -23.222  0.00  0.00    +0.252 C 
ENDBRANCH  28  29
ENDBRANCH  22  23
ENDBRANCH  21  22
ENDBRANCH   7  21
TORSDOF 4
ENDMDL
