MODEL 1
REMARK VINA RESULT:     -13.0      0.000      0.000
REMARK  Name = 24780387
REMARK  3 active torsions:
REMARK  status: ('A' for Active; 'I' for Inactive)
REMARK    1  A    between atoms: N_3  and  C_25
REMARK    2  A    between atoms: C_18  and  O_23
REMARK    3  A    between atoms: C_25  and  N_26
REMARK                            x       y       z     vdW  Elec       q    Type
REMARK                         _______ _______ _______ _____ _____    ______ ____
ROOT
ATOM      1  O   UNL     1      32.482 -25.069 -12.854  0.00  0.00    -0.270 OA
ATOM      2  O   UNL     1      36.028 -23.608 -15.431  0.00  0.00    -0.270 OA
ATOM      3  N   UNL     1      34.520 -24.468 -13.861  0.00  0.00    -0.244 N 
ATOM      4  N   UNL     1      32.115 -22.182 -18.629  0.00  0.00    -0.353 N 
ATOM      5  C   UNL     1      31.311 -23.887 -15.394  0.00  0.00    -0.020 A 
ATOM      6  C   UNL     1      31.053 -23.269 -16.626  0.00  0.00    -0.010 A 
ATOM      7  C   UNL     1      32.609 -24.019 -14.978  0.00  0.00    +0.054 A 
ATOM      8  C   UNL     1      30.039 -24.266 -14.708  0.00  0.00    +0.027 C 
ATOM      9  C   UNL     1      29.572 -23.177 -16.868  0.00  0.00    +0.028 C 
ATOM     10  C   UNL     1      32.120 -22.812 -17.412  0.00  0.00    +0.052 A 
ATOM     11  C   UNL     1      33.669 -23.570 -15.765  0.00  0.00    +0.059 A 
ATOM     12  C   UNL     1      29.044 -24.223 -15.877  0.00  0.00    +0.009 C 
ATOM     13  C   UNL     1      33.463 -22.950 -17.012  0.00  0.00    +0.024 A 
ATOM     14  C   UNL     1      33.156 -24.595 -13.751  0.00  0.00    +0.253 C 
ATOM     15  C   UNL     1      34.905 -23.863 -15.040  0.00  0.00    +0.253 C 
ATOM     16  C   UNL     1      34.267 -22.379 -18.057  0.00  0.00    +0.051 A 
ATOM     17  C   UNL     1      33.395 -21.912 -19.046  0.00  0.00    +0.060 A 
ATOM     18  C   UNL     1      35.652 -22.206 -18.273  0.00  0.00    +0.140 C 
ATOM     19  C   UNL     1      33.833 -21.289 -20.221  0.00  0.00    +0.017 C 
ATOM     20  C   UNL     1      36.106 -21.586 -19.444  0.00  0.00    +0.037 C 
ATOM     21  C   UNL     1      35.207 -21.134 -20.404  0.00  0.00    +0.005 C 
ATOM     22  H   UNL     1      31.303 -21.954 -19.138  0.00  0.00    +0.166 HD
ENDROOT
BRANCH  18  23
ATOM     23  O   UNL     1      36.638 -22.610 -17.418  0.00  0.00    -0.471 OA
ATOM     24  C   UNL     1      37.401 -21.587 -16.786  0.00  0.00    +0.252 C 
ENDBRANCH  18  23
BRANCH   3  25
ATOM     25  C   UNL     1      35.465 -24.914 -12.854  0.00  0.00    +0.028 C 
BRANCH  25  26
ATOM     26  N   UNL     1      36.767 -25.128 -13.482  0.00  0.00    +0.396 N 
ATOM     27  N   UNL     1      39.371 -26.372 -13.654  0.00  0.00    +0.383 N 
ATOM     28  C   UNL     1      37.854 -24.750 -12.570  0.00  0.00    -0.098 C 
ATOM     29  C   UNL     1      36.918 -26.525 -13.908  0.00  0.00    -0.098 C 
ATOM     30  C   UNL     1      39.221 -24.976 -13.227  0.00  0.00    -0.101 C 
ATOM     31  C   UNL     1      38.284 -26.749 -14.566  0.00  0.00    -0.101 C 
ATOM     32  C   UNL     1      40.673 -26.584 -14.283  0.00  0.00    -0.101 C 
ATOM     33  H   UNL     1      36.820 -24.532 -14.308  0.00  0.00    -0.077 HD
ATOM     34  H   UNL     1      39.320 -26.968 -12.828  0.00  0.00    -0.080 HD
ENDBRANCH  25  26
ENDBRANCH   3  25
TORSDOF 3
ENDMDL
MODEL 2
REMARK VINA RESULT:     -11.7      2.209      6.594
REMARK  Name = 24780387
REMARK  3 active torsions:
REMARK  status: ('A' for Active; 'I' for Inactive)
REMARK    1  A    between atoms: N_3  and  C_25
REMARK    2  A    between atoms: C_18  and  O_23
REMARK    3  A    between atoms: C_25  and  N_26
REMARK                            x       y       z     vdW  Elec       q    Type
REMARK                         _______ _______ _______ _____ _____    ______ ____
ROOT
ATOM      1  O   UNL     1      32.617 -22.548 -19.166  0.00  0.00    -0.270 OA
ATOM      2  O   UNL     1      36.706 -22.972 -17.056  0.00  0.00    -0.270 OA
ATOM      3  N   UNL     1      34.856 -22.671 -18.458  0.00  0.00    -0.244 N 
ATOM      4  N   UNL     1      33.608 -24.044 -12.953  0.00  0.00    -0.353 N 
ATOM      5  C   UNL     1      32.055 -23.233 -16.263  0.00  0.00    -0.020 A 
ATOM      6  C   UNL     1      32.091 -23.574 -14.902  0.00  0.00    -0.010 A 
ATOM      7  C   UNL     1      33.235 -23.058 -16.933  0.00  0.00    +0.054 A 
ATOM      8  C   UNL     1      30.648 -23.166 -16.760  0.00  0.00    +0.027 C 
ATOM      9  C   UNL     1      30.698 -23.772 -14.373  0.00  0.00    +0.028 C 
ATOM     10  C   UNL     1      33.326 -23.716 -14.254  0.00  0.00    +0.052 A 
ATOM     11  C   UNL     1      34.462 -23.193 -16.283  0.00  0.00    +0.059 A 
ATOM     12  C   UNL     1      29.869 -23.047 -15.442  0.00  0.00    +0.009 C 
ATOM     13  C   UNL     1      34.552 -23.527 -14.919  0.00  0.00    +0.024 A 
ATOM     14  C   UNL     1      33.488 -22.724 -18.334  0.00  0.00    +0.253 C 
ATOM     15  C   UNL     1      35.510 -22.940 -17.273  0.00  0.00    +0.253 C 
ATOM     16  C   UNL     1      35.588 -23.748 -13.949  0.00  0.00    +0.051 A 
ATOM     17  C   UNL     1      34.965 -24.067 -12.738  0.00  0.00    +0.060 A 
ATOM     18  C   UNL     1      37.000 -23.712 -13.965  0.00  0.00    +0.140 C 
ATOM     19  C   UNL     1      35.672 -24.349 -11.563  0.00  0.00    +0.017 C 
ATOM     20  C   UNL     1      37.723 -23.991 -12.798  0.00  0.00    +0.037 C 
ATOM     21  C   UNL     1      37.065 -24.305 -11.613  0.00  0.00    +0.005 C 
ATOM     22  H   UNL     1      32.931 -24.237 -12.265  0.00  0.00    +0.166 HD
ENDROOT
BRANCH  18  23
ATOM     23  O   UNL     1      37.766 -23.410 -15.056  0.00  0.00    -0.471 OA
ATOM     24  C   UNL     1      38.877 -24.262 -15.319  0.00  0.00    +0.252 C 
ENDBRANCH  18  23
BRANCH   3  25
ATOM     25  C   UNL     1      35.552 -22.367 -19.695  0.00  0.00    +0.028 C 
BRANCH  25  26
ATOM     26  N   UNL     1      35.430 -20.939 -19.974  0.00  0.00    +0.396 N 
ATOM     27  N   UNL     1      35.577 -18.631 -21.710  0.00  0.00    +0.383 N 
ATOM     28  C   UNL     1      36.722 -20.375 -20.386  0.00  0.00    -0.098 C 
ATOM     29  C   UNL     1      34.412 -20.693 -21.004  0.00  0.00    -0.098 C 
ATOM     30  C   UNL     1      36.595 -18.877 -20.682  0.00  0.00    -0.101 C 
ATOM     31  C   UNL     1      34.285 -19.194 -21.298  0.00  0.00    -0.101 C 
ATOM     32  C   UNL     1      35.455 -17.201 -21.987  0.00  0.00    -0.101 C 
ATOM     33  H   UNL     1      35.136 -20.473 -19.115  0.00  0.00    -0.077 HD
ATOM     34  H   UNL     1      35.870 -19.094 -22.570  0.00  0.00    -0.080 HD
ENDBRANCH  25  26
ENDBRANCH   3  25
TORSDOF 3
ENDMDL
MODEL 3
REMARK VINA RESULT:     -10.9      2.435      6.613
REMARK  Name = 24780387
REMARK  3 active torsions:
REMARK  status: ('A' for Active; 'I' for Inactive)
REMARK    1  A    between atoms: N_3  and  C_25
REMARK    2  A    between atoms: C_18  and  O_23
REMARK    3  A    between atoms: C_25  and  N_26
REMARK                            x       y       z     vdW  Elec       q    Type
REMARK                         _______ _______ _______ _____ _____    ______ ____
ROOT
ATOM      1  O   UNL     1      32.248 -25.306 -12.935  0.00  0.00    -0.270 OA
ATOM      2  O   UNL     1      32.019 -23.728 -17.272  0.00  0.00    -0.270 OA
ATOM      3  N   UNL     1      31.745 -24.638 -15.132  0.00  0.00    -0.244 N 
ATOM      4  N   UNL     1      37.005 -22.436 -16.245  0.00  0.00    -0.353 N 
ATOM      5  C   UNL     1      34.957 -24.101 -13.590  0.00  0.00    -0.020 A 
ATOM      6  C   UNL     1      36.092 -23.509 -14.163  0.00  0.00    -0.010 A 
ATOM      7  C   UNL     1      33.818 -24.216 -14.340  0.00  0.00    +0.054 A 
ATOM      8  C   UNL     1      35.240 -24.562 -12.197  0.00  0.00    +0.027 C 
ATOM      9  C   UNL     1      37.242 -23.530 -13.195  0.00  0.00    +0.028 C 
ATOM     10  C   UNL     1      36.037 -23.036 -15.482  0.00  0.00    +0.052 A 
ATOM     11  C   UNL     1      33.765 -23.738 -15.650  0.00  0.00    +0.059 A 
ATOM     12  C   UNL     1      36.508 -23.760 -11.867  0.00  0.00    +0.009 C 
ATOM     13  C   UNL     1      34.874 -23.130 -16.268  0.00  0.00    +0.024 A 
ATOM     14  C   UNL     1      32.519 -24.798 -14.007  0.00  0.00    +0.253 C 
ATOM     15  C   UNL     1      32.421 -24.011 -16.159  0.00  0.00    +0.253 C 
ATOM     16  C   UNL     1      35.187 -22.545 -17.543  0.00  0.00    +0.051 A 
ATOM     17  C   UNL     1      36.520 -22.125 -17.492  0.00  0.00    +0.060 A 
ATOM     18  C   UNL     1      34.479 -22.326 -18.745  0.00  0.00    +0.140 C 
ATOM     19  C   UNL     1      37.169 -21.506 -18.568  0.00  0.00    +0.017 C 
ATOM     20  C   UNL     1      35.113 -21.708 -19.830  0.00  0.00    +0.037 C 
ATOM     21  C   UNL     1      36.441 -21.304 -19.740  0.00  0.00    +0.005 C 
ATOM     22  H   UNL     1      37.923 -22.252 -15.942  0.00  0.00    +0.166 HD
ENDROOT
BRANCH  18  23
ATOM     23  O   UNL     1      33.173 -22.664 -18.961  0.00  0.00    -0.471 OA
ATOM     24  C   UNL     1      32.346 -21.681 -19.576  0.00  0.00    +0.252 C 
ENDBRANCH  18  23
BRANCH   3  25
ATOM     25  C   UNL     1      30.367 -25.077 -15.244  0.00  0.00    +0.028 C 
BRANCH  25  26
ATOM     26  N   UNL     1      29.586 -24.037 -15.910  0.00  0.00    +0.396 N 
ATOM     27  N   UNL     1      27.105 -22.720 -16.597  0.00  0.00    +0.383 N 
ATOM     28  C   UNL     1      28.654 -24.625 -16.880  0.00  0.00    -0.098 C 
ATOM     29  C   UNL     1      28.858 -23.222 -14.928  0.00  0.00    -0.098 C 
ATOM     30  C   UNL     1      27.832 -23.535 -17.578  0.00  0.00    -0.101 C 
ATOM     31  C   UNL     1      28.038 -22.132 -15.627  0.00  0.00    -0.101 C 
ATOM     32  C   UNL     1      26.326 -21.679 -17.264  0.00  0.00    -0.101 C 
ATOM     33  H   UNL     1      30.233 -23.431 -16.414  0.00  0.00    -0.077 HD
ATOM     34  H   UNL     1      26.457 -23.325 -16.094  0.00  0.00    -0.080 HD
ENDBRANCH  25  26
ENDBRANCH   3  25
TORSDOF 3
ENDMDL
MODEL 4
REMARK VINA RESULT:     -10.4      1.034      4.559
REMARK  Name = 24780387
REMARK  3 active torsions:
REMARK  status: ('A' for Active; 'I' for Inactive)
REMARK    1  A    between atoms: N_3  and  C_25
REMARK    2  A    between atoms: C_18  and  O_23
REMARK    3  A    between atoms: C_25  and  N_26
REMARK                            x       y       z     vdW  Elec       q    Type
REMARK                         _______ _______ _______ _____ _____    ______ ____
ROOT
ATOM      1  O   UNL     1      37.118 -23.304 -15.985  0.00  0.00    -0.270 OA
ATOM      2  O   UNL     1      33.340 -24.456 -13.589  0.00  0.00    -0.270 OA
ATOM      3  N   UNL     1      35.459 -24.004 -14.473  0.00  0.00    -0.244 N 
ATOM      4  N   UNL     1      30.985 -22.709 -17.945  0.00  0.00    -0.353 N 
ATOM      5  C   UNL     1      34.721 -22.625 -17.719  0.00  0.00    -0.020 A 
ATOM      6  C   UNL     1      33.459 -22.437 -18.301  0.00  0.00    -0.010 A 
ATOM      7  C   UNL     1      34.799 -23.166 -16.465  0.00  0.00    +0.054 A 
ATOM      8  C   UNL     1      35.809 -22.213 -18.657  0.00  0.00    +0.027 C 
ATOM      9  C   UNL     1      33.597 -21.884 -19.692  0.00  0.00    +0.028 C 
ATOM     10  C   UNL     1      32.306 -22.792 -17.587  0.00  0.00    +0.052 A 
ATOM     11  C   UNL     1      33.650 -23.512 -15.755  0.00  0.00    +0.059 A 
ATOM     12  C   UNL     1      35.031 -21.339 -19.653  0.00  0.00    +0.009 C 
ATOM     13  C   UNL     1      32.360 -23.337 -16.291  0.00  0.00    +0.024 A 
ATOM     14  C   UNL     1      35.965 -23.485 -15.642  0.00  0.00    +0.253 C 
ATOM     15  C   UNL     1      34.080 -24.053 -14.465  0.00  0.00    +0.253 C 
ATOM     16  C   UNL     1      31.002 -23.569 -15.881  0.00  0.00    +0.051 A 
ATOM     17  C   UNL     1      30.175 -23.166 -16.934  0.00  0.00    +0.060 A 
ATOM     18  C   UNL     1      30.380 -24.081 -14.722  0.00  0.00    +0.140 C 
ATOM     19  C   UNL     1      28.777 -23.250 -16.886  0.00  0.00    +0.017 C 
ATOM     20  C   UNL     1      28.984 -24.170 -14.657  0.00  0.00    +0.037 C 
ATOM     21  C   UNL     1      28.194 -23.760 -15.726  0.00  0.00    +0.005 C 
ATOM     22  H   UNL     1      30.659 -22.367 -18.809  0.00  0.00    +0.166 HD
ENDROOT
BRANCH  18  23
ATOM     23  O   UNL     1      31.035 -24.508 -13.601  0.00  0.00    -0.471 OA
ATOM     24  C   UNL     1      30.402 -24.257 -12.350  0.00  0.00    +0.252 C 
ENDBRANCH  18  23
BRANCH   3  25
ATOM     25  C   UNL     1      36.274 -24.457 -13.362  0.00  0.00    +0.028 C 
BRANCH  25  26
ATOM     26  N   UNL     1      37.549 -24.953 -13.875  0.00  0.00    +0.396 N 
ATOM     27  N   UNL     1      39.916 -26.608 -13.731  0.00  0.00    +0.383 N 
ATOM     28  C   UNL     1      38.642 -24.641 -12.945  0.00  0.00    -0.098 C 
ATOM     29  C   UNL     1      37.485 -26.398 -14.123  0.00  0.00    -0.098 C 
ATOM     30  C   UNL     1      39.980 -25.163 -13.481  0.00  0.00    -0.101 C 
ATOM     31  C   UNL     1      38.822 -26.919 -14.661  0.00  0.00    -0.101 C 
ATOM     32  C   UNL     1      41.191 -27.102 -14.246  0.00  0.00    -0.101 C 
ATOM     33  H   UNL     1      37.737 -24.482 -14.760  0.00  0.00    -0.077 HD
ATOM     34  H   UNL     1      39.729 -27.078 -12.846  0.00  0.00    -0.080 HD
ENDBRANCH  25  26
ENDBRANCH   3  25
TORSDOF 3
ENDMDL
