MODEL 1
REMARK VINA RESULT:     -11.4      0.000      0.000
REMARK  Name = 5288527
REMARK  4 active torsions:
REMARK  status: ('A' for Active; 'I' for Inactive)
REMARK    1  A    between atoms: N_1  and  C_18
REMARK    2  A    between atoms: C_4  and  C_11
REMARK    3  A    between atoms: C_19  and  S_24
REMARK    4  A    between atoms: S_24  and  N_27
REMARK                            x       y       z     vdW  Elec       q    Type
REMARK                         _______ _______ _______ _____ _____    ______ ____
ROOT
ATOM      1  N   UNL     1      34.984 -25.065 -12.983  0.00  0.00    -0.247 N 
ATOM      2  N   UNL     1      34.104 -24.072 -14.918  0.00  0.00    -0.336 NA
ATOM      3  N   UNL     1      32.716 -24.465 -12.988  0.00  0.00    -0.170 NA
ATOM      4  C   UNL     1      33.027 -23.545 -15.534  0.00  0.00    +0.161 C 
ATOM      5  C   UNL     1      33.880 -24.506 -13.664  0.00  0.00    +0.149 C 
ATOM      6  C   UNL     1      31.781 -23.444 -14.957  0.00  0.00    +0.056 C 
ATOM      7  C   UNL     1      31.683 -23.925 -13.668  0.00  0.00    +0.114 C 
ATOM      8  H   UNL     1      34.774 -25.368 -12.070  0.00  0.00    +0.165 HD
ENDROOT
BRANCH   4  11
ATOM      9  N   UNL     1      34.493 -22.690 -17.366  0.00  0.00    -0.246 N 
ATOM     10  N   UNL     1      33.035 -22.459 -19.048  0.00  0.00    -0.227 NA
ATOM     11  C   UNL     1      33.272 -23.082 -16.879  0.00  0.00    +0.107 C 
ATOM     12  C   UNL     1      34.296 -22.319 -18.694  0.00  0.00    +0.139 C 
ATOM     13  C   UNL     1      32.397 -22.931 -17.929  0.00  0.00    +0.118 C 
ATOM     14  C   UNL     1      35.728 -22.643 -16.727  0.00  0.00    +0.071 C 
ATOM     15  C   UNL     1      35.441 -21.871 -19.416  0.00  0.00    +0.035 C 
ATOM     16  C   UNL     1      36.801 -22.220 -17.414  0.00  0.00    +0.017 C 
ATOM     17  C   UNL     1      36.640 -21.822 -18.804  0.00  0.00    +0.004 C 
ENDBRANCH   4  11
BRANCH   1  18
ATOM     18  C   UNL     1      36.326 -25.271 -13.353  0.00  0.00    +0.058 C 
ATOM     19  C   UNL     1      38.988 -25.682 -14.090  0.00  0.00    +0.122 C 
ATOM     20  C   UNL     1      37.358 -24.851 -12.512  0.00  0.00    +0.017 C 
ATOM     21  C   UNL     1      36.630 -25.899 -14.564  0.00  0.00    +0.017 C 
ATOM     22  C   UNL     1      38.687 -25.056 -12.880  0.00  0.00    +0.021 C 
ATOM     23  C   UNL     1      37.959 -26.104 -14.931  0.00  0.00    +0.021 C 
BRANCH  19  24
ATOM     24  S   UNL     1      40.653 -25.939 -14.551  0.00  0.00    +0.057 S 
ATOM     25  O   UNL     1      41.369 -24.679 -14.403  0.00  0.00    -0.153 OA
ATOM     26  O   UNL     1      41.142 -27.132 -13.875  0.00  0.00    -0.153 OA
BRANCH  24  27
ATOM     27  N   UNL     1      40.480 -26.283 -16.216  0.00  0.00    -0.203 NA
ATOM     28  H   UNL     1      39.536 -26.045 -16.516  0.00  0.00    +0.144 HD
ATOM     29  H   UNL     1      40.648 -27.277 -16.377  0.00  0.00    +0.144 HD
ENDBRANCH  24  27
ENDBRANCH  19  24
ENDBRANCH   1  18
TORSDOF 4
ENDMDL
MODEL 2
REMARK VINA RESULT:     -11.3      4.968      6.938
REMARK  Name = 5288527
REMARK  4 active torsions:
REMARK  status: ('A' for Active; 'I' for Inactive)
REMARK    1  A    between atoms: N_1  and  C_18
REMARK    2  A    between atoms: C_4  and  C_11
REMARK    3  A    between atoms: C_19  and  S_24
REMARK    4  A    between atoms: S_24  and  N_27
REMARK                            x       y       z     vdW  Elec       q    Type
REMARK                         _______ _______ _______ _____ _____    ______ ____
ROOT
ATOM      1  N   UNL     1      32.841 -24.684 -13.102  0.00  0.00    -0.247 N 
ATOM      2  N   UNL     1      34.542 -23.782 -14.442  0.00  0.00    -0.336 NA
ATOM      3  N   UNL     1      35.049 -24.797 -12.316  0.00  0.00    -0.170 NA
ATOM      4  C   UNL     1      35.859 -23.535 -14.591  0.00  0.00    +0.161 C 
ATOM      5  C   UNL     1      34.212 -24.407 -13.297  0.00  0.00    +0.149 C 
ATOM      6  C   UNL     1      36.819 -23.881 -13.666  0.00  0.00    +0.056 C 
ATOM      7  C   UNL     1      36.350 -24.517 -12.535  0.00  0.00    +0.114 C 
ATOM      8  H   UNL     1      32.646 -25.142 -12.253  0.00  0.00    +0.165 HD
ENDROOT
BRANCH   4  11
ATOM      9  N   UNL     1      35.406 -22.785 -16.930  0.00  0.00    -0.246 N 
ATOM     10  N   UNL     1      37.290 -21.689 -17.432  0.00  0.00    -0.227 NA
ATOM     11  C   UNL     1      36.209 -22.864 -15.820  0.00  0.00    +0.107 C 
ATOM     12  C   UNL     1      36.110 -22.058 -17.886  0.00  0.00    +0.139 C 
ATOM     13  C   UNL     1      37.356 -22.184 -16.154  0.00  0.00    +0.118 C 
ATOM     14  C   UNL     1      34.130 -23.301 -17.139  0.00  0.00    +0.071 C 
ATOM     15  C   UNL     1      35.466 -21.845 -19.140  0.00  0.00    +0.035 C 
ATOM     16  C   UNL     1      33.530 -23.096 -18.322  0.00  0.00    +0.017 C 
ATOM     17  C   UNL     1      34.231 -22.342 -19.350  0.00  0.00    +0.004 C 
ENDBRANCH   4  11
BRANCH   1  18
ATOM     18  C   UNL     1      31.698 -24.436 -13.886  0.00  0.00    +0.058 C 
ATOM     19  C   UNL     1      29.432 -23.941 -15.441  0.00  0.00    +0.122 C 
ATOM     20  C   UNL     1      30.847 -25.485 -14.236  0.00  0.00    +0.017 C 
ATOM     21  C   UNL     1      31.413 -23.138 -14.316  0.00  0.00    +0.017 C 
ATOM     22  C   UNL     1      29.715 -25.238 -15.013  0.00  0.00    +0.021 C 
ATOM     23  C   UNL     1      30.282 -22.891 -15.092  0.00  0.00    +0.021 C 
BRANCH  19  24
ATOM     24  S   UNL     1      28.016 -23.631 -16.413  0.00  0.00    +0.057 S 
ATOM     25  O   UNL     1      27.802 -24.775 -17.289  0.00  0.00    -0.153 OA
ATOM     26  O   UNL     1      26.943 -23.179 -15.539  0.00  0.00    -0.153 OA
BRANCH  24  27
ATOM     27  N   UNL     1      28.549 -22.308 -17.355  0.00  0.00    -0.203 NA
ATOM     28  H   UNL     1      29.539 -22.141 -17.175  0.00  0.00    +0.144 HD
ATOM     29  H   UNL     1      28.013 -21.476 -17.107  0.00  0.00    +0.144 HD
ENDBRANCH  24  27
ENDBRANCH  19  24
ENDBRANCH   1  18
TORSDOF 4
ENDMDL
MODEL 3
REMARK VINA RESULT:     -10.4      4.336      7.259
REMARK  Name = 5288527
REMARK  4 active torsions:
REMARK  status: ('A' for Active; 'I' for Inactive)
REMARK    1  A    between atoms: N_1  and  C_18
REMARK    2  A    between atoms: C_4  and  C_11
REMARK    3  A    between atoms: C_19  and  S_24
REMARK    4  A    between atoms: S_24  and  N_27
REMARK                            x       y       z     vdW  Elec       q    Type
REMARK                         _______ _______ _______ _____ _____    ______ ____
ROOT
ATOM      1  N   UNL     1      32.552 -22.358 -18.548  0.00  0.00    -0.247 N 
ATOM      2  N   UNL     1      34.110 -23.025 -16.927  0.00  0.00    -0.336 NA
ATOM      3  N   UNL     1      31.807 -23.717 -16.787  0.00  0.00    -0.170 NA
ATOM      4  C   UNL     1      34.343 -23.716 -15.793  0.00  0.00    +0.161 C 
ATOM      5  C   UNL     1      32.837 -23.068 -17.362  0.00  0.00    +0.149 C 
ATOM      6  C   UNL     1      33.379 -24.421 -15.107  0.00  0.00    +0.056 C 
ATOM      7  C   UNL     1      32.115 -24.386 -15.657  0.00  0.00    +0.114 C 
ATOM      8  H   UNL     1      31.610 -22.417 -18.829  0.00  0.00    +0.165 HD
ENDROOT
BRANCH   4  11
ATOM      9  N   UNL     1      36.504 -24.761 -15.104  0.00  0.00    -0.246 N 
ATOM     10  N   UNL     1      37.745 -22.965 -14.614  0.00  0.00    -0.227 NA
ATOM     11  C   UNL     1      35.709 -23.666 -15.329  0.00  0.00    +0.107 C 
ATOM     12  C   UNL     1      37.737 -24.281 -14.669  0.00  0.00    +0.139 C 
ATOM     13  C   UNL     1      36.494 -22.579 -15.022  0.00  0.00    +0.118 C 
ATOM     14  C   UNL     1      36.213 -26.114 -15.256  0.00  0.00    +0.071 C 
ATOM     15  C   UNL     1      38.739 -25.251 -14.369  0.00  0.00    +0.035 C 
ATOM     16  C   UNL     1      37.161 -27.020 -14.971  0.00  0.00    +0.017 C 
ATOM     17  C   UNL     1      38.464 -26.561 -14.513  0.00  0.00    +0.004 C 
ENDBRANCH   4  11
BRANCH   1  18
ATOM     18  C   UNL     1      33.350 -21.581 -19.409  0.00  0.00    +0.058 C 
ATOM     19  C   UNL     1      34.933 -20.040 -21.117  0.00  0.00    +0.122 C 
ATOM     20  C   UNL     1      34.741 -21.706 -19.378  0.00  0.00    +0.017 C 
ATOM     21  C   UNL     1      32.754 -20.684 -20.298  0.00  0.00    +0.017 C 
ATOM     22  C   UNL     1      35.531 -20.936 -20.230  0.00  0.00    +0.021 C 
ATOM     23  C   UNL     1      33.544 -19.914 -21.150  0.00  0.00    +0.021 C 
BRANCH  19  24
ATOM     24  S   UNL     1      35.922 -19.076 -22.185  0.00  0.00    +0.057 S 
ATOM     25  O   UNL     1      37.314 -19.236 -21.790  0.00  0.00    -0.153 OA
ATOM     26  O   UNL     1      35.523 -19.349 -23.558  0.00  0.00    -0.153 OA
BRANCH  24  27
ATOM     27  N   UNL     1      35.410 -17.499 -21.768  0.00  0.00    -0.203 NA
ATOM     28  H   UNL     1      35.809 -17.239 -20.867  0.00  0.00    +0.144 HD
ATOM     29  H   UNL     1      34.391 -17.477 -21.709  0.00  0.00    +0.144 HD
ENDBRANCH  24  27
ENDBRANCH  19  24
ENDBRANCH   1  18
TORSDOF 4
ENDMDL
MODEL 4
REMARK VINA RESULT:      -9.9      1.780      2.935
REMARK  Name = 5288527
REMARK  4 active torsions:
REMARK  status: ('A' for Active; 'I' for Inactive)
REMARK    1  A    between atoms: N_1  and  C_18
REMARK    2  A    between atoms: C_4  and  C_11
REMARK    3  A    between atoms: C_19  and  S_24
REMARK    4  A    between atoms: S_24  and  N_27
REMARK                            x       y       z     vdW  Elec       q    Type
REMARK                         _______ _______ _______ _____ _____    ______ ____
ROOT
ATOM      1  N   UNL     1      34.537 -24.777 -15.055  0.00  0.00    -0.247 N 
ATOM      2  N   UNL     1      34.571 -23.395 -16.950  0.00  0.00    -0.336 NA
ATOM      3  N   UNL     1      32.493 -23.968 -15.874  0.00  0.00    -0.170 NA
ATOM      4  C   UNL     1      33.863 -22.671 -17.840  0.00  0.00    +0.161 C 
ATOM      5  C   UNL     1      33.832 -24.009 -16.007  0.00  0.00    +0.149 C 
ATOM      6  C   UNL     1      32.492 -22.546 -17.817  0.00  0.00    +0.056 C 
ATOM      7  C   UNL     1      31.852 -23.224 -16.800  0.00  0.00    +0.114 C 
ATOM      8  H   UNL     1      33.957 -25.207 -14.386  0.00  0.00    +0.165 HD
ENDROOT
BRANCH   4  11
ATOM      9  N   UNL     1      34.159 -21.251 -19.873  0.00  0.00    -0.246 N 
ATOM     10  N   UNL     1      36.383 -21.251 -20.111  0.00  0.00    -0.227 NA
ATOM     11  C   UNL     1      34.660 -22.015 -18.850  0.00  0.00    +0.107 C 
ATOM     12  C   UNL     1      35.250 -20.807 -20.615  0.00  0.00    +0.139 C 
ATOM     13  C   UNL     1      36.024 -21.998 -19.019  0.00  0.00    +0.118 C 
ATOM     14  C   UNL     1      32.838 -20.934 -20.178  0.00  0.00    +0.071 C 
ATOM     15  C   UNL     1      34.971 -19.984 -21.746  0.00  0.00    +0.035 C 
ATOM     16  C   UNL     1      32.584 -20.159 -21.244  0.00  0.00    +0.017 C 
ATOM     17  C   UNL     1      33.696 -19.674 -22.047  0.00  0.00    +0.004 C 
ENDBRANCH   4  11
BRANCH   1  18
ATOM     18  C   UNL     1      35.906 -25.049 -14.875  0.00  0.00    +0.058 C 
ATOM     19  C   UNL     1      38.623 -25.586 -14.517  0.00  0.00    +0.122 C 
ATOM     20  C   UNL     1      36.420 -26.307 -15.196  0.00  0.00    +0.017 C 
ATOM     21  C   UNL     1      36.756 -24.060 -14.375  0.00  0.00    +0.017 C 
ATOM     22  C   UNL     1      37.776 -26.575 -15.017  0.00  0.00    +0.021 C 
ATOM     23  C   UNL     1      38.113 -24.328 -14.196  0.00  0.00    +0.021 C 
BRANCH  19  24
ATOM     24  S   UNL     1      40.322 -25.921 -14.292  0.00  0.00    +0.057 S 
ATOM     25  O   UNL     1      40.986 -24.685 -13.904  0.00  0.00    -0.153 OA
ATOM     26  O   UNL     1      40.453 -27.106 -13.457  0.00  0.00    -0.153 OA
BRANCH  24  27
ATOM     27  N   UNL     1      40.789 -26.321 -15.887  0.00  0.00    -0.203 NA
ATOM     28  H   UNL     1      40.242 -27.117 -16.212  0.00  0.00    +0.144 HD
ATOM     29  H   UNL     1      41.781 -26.560 -15.901  0.00  0.00    +0.144 HD
ENDBRANCH  24  27
ENDBRANCH  19  24
ENDBRANCH   1  18
TORSDOF 4
ENDMDL
MODEL 5
REMARK VINA RESULT:      -9.6      4.263      7.296
REMARK  Name = 5288527
REMARK  4 active torsions:
REMARK  status: ('A' for Active; 'I' for Inactive)
REMARK    1  A    between atoms: N_1  and  C_18
REMARK    2  A    between atoms: C_4  and  C_11
REMARK    3  A    between atoms: C_19  and  S_24
REMARK    4  A    between atoms: S_24  and  N_27
REMARK                            x       y       z     vdW  Elec       q    Type
REMARK                         _______ _______ _______ _____ _____    ______ ____
ROOT
ATOM      1  N   UNL     1      32.463 -22.568 -18.397  0.00  0.00    -0.247 N 
ATOM      2  N   UNL     1      33.965 -23.045 -16.659  0.00  0.00    -0.336 NA
ATOM      3  N   UNL     1      31.723 -23.928 -16.634  0.00  0.00    -0.170 NA
ATOM      4  C   UNL     1      34.182 -23.676 -15.488  0.00  0.00    +0.161 C 
ATOM      5  C   UNL     1      32.731 -23.212 -17.169  0.00  0.00    +0.149 C 
ATOM      6  C   UNL     1      33.239 -24.438 -14.835  0.00  0.00    +0.056 C 
ATOM      7  C   UNL     1      32.013 -24.530 -15.462  0.00  0.00    +0.114 C 
ATOM      8  H   UNL     1      31.549 -22.718 -18.732  0.00  0.00    +0.165 HD
ENDROOT
BRANCH   4  11
ATOM      9  N   UNL     1      35.862 -23.731 -13.641  0.00  0.00    -0.246 N 
ATOM     10  N   UNL     1      37.713 -23.031 -14.684  0.00  0.00    -0.227 NA
ATOM     11  C   UNL     1      35.507 -23.494 -14.944  0.00  0.00    +0.107 C 
ATOM     12  C   UNL     1      37.218 -23.434 -13.532  0.00  0.00    +0.139 C 
ATOM     13  C   UNL     1      36.659 -23.067 -15.562  0.00  0.00    +0.118 C 
ATOM     14  C   UNL     1      35.083 -24.179 -12.578  0.00  0.00    +0.071 C 
ATOM     15  C   UNL     1      37.817 -23.608 -12.250  0.00  0.00    +0.035 C 
ATOM     16  C   UNL     1      35.654 -24.340 -11.373  0.00  0.00    +0.017 C 
ATOM     17  C   UNL     1      37.069 -24.041 -11.216  0.00  0.00    +0.004 C 
ENDBRANCH   4  11
BRANCH   1  18
ATOM     18  C   UNL     1      33.247 -21.755 -19.237  0.00  0.00    +0.058 C 
ATOM     19  C   UNL     1      34.804 -20.142 -20.902  0.00  0.00    +0.122 C 
ATOM     20  C   UNL     1      32.636 -20.848 -20.105  0.00  0.00    +0.017 C 
ATOM     21  C   UNL     1      34.640 -21.852 -19.204  0.00  0.00    +0.017 C 
ATOM     22  C   UNL     1      33.413 -20.043 -20.937  0.00  0.00    +0.021 C 
ATOM     23  C   UNL     1      35.418 -21.047 -20.035  0.00  0.00    +0.021 C 
BRANCH  19  24
ATOM     24  S   UNL     1      35.778 -19.135 -21.944  0.00  0.00    +0.057 S 
ATOM     25  O   UNL     1      35.360 -17.751 -21.765  0.00  0.00    -0.153 OA
ATOM     26  O   UNL     1      37.176 -19.497 -21.763  0.00  0.00    -0.153 OA
BRANCH  24  27
ATOM     27  N   UNL     1      35.268 -19.670 -23.485  0.00  0.00    -0.203 NA
ATOM     28  H   UNL     1      34.339 -19.299 -23.682  0.00  0.00    +0.144 HD
ATOM     29  H   UNL     1      35.238 -20.690 -23.497  0.00  0.00    +0.144 HD
ENDBRANCH  24  27
ENDBRANCH  19  24
ENDBRANCH   1  18
TORSDOF 4
ENDMDL
MODEL 6
REMARK VINA RESULT:      -9.1      2.456      4.862
REMARK  Name = 5288527
REMARK  4 active torsions:
REMARK  status: ('A' for Active; 'I' for Inactive)
REMARK    1  A    between atoms: N_1  and  C_18
REMARK    2  A    between atoms: C_4  and  C_11
REMARK    3  A    between atoms: C_19  and  S_24
REMARK    4  A    between atoms: S_24  and  N_27
REMARK                            x       y       z     vdW  Elec       q    Type
REMARK                         _______ _______ _______ _____ _____    ______ ____
ROOT
ATOM      1  N   UNL     1      36.049 -23.010 -16.842  0.00  0.00    -0.247 N 
ATOM      2  N   UNL     1      33.704 -23.053 -16.884  0.00  0.00    -0.336 NA
ATOM      3  N   UNL     1      34.958 -22.142 -18.729  0.00  0.00    -0.170 NA
ATOM      4  C   UNL     1      32.576 -22.763 -17.562  0.00  0.00    +0.161 C 
ATOM      5  C   UNL     1      34.844 -22.721 -17.518  0.00  0.00    +0.149 C 
ATOM      6  C   UNL     1      32.552 -22.172 -18.806  0.00  0.00    +0.056 C 
ATOM      7  C   UNL     1      33.788 -21.880 -19.347  0.00  0.00    +0.114 C 
ATOM      8  H   UNL     1      36.857 -22.750 -17.342  0.00  0.00    +0.165 HD
ENDROOT
BRANCH   4  11
ATOM      9  N   UNL     1      31.289 -23.840 -15.712  0.00  0.00    -0.246 N 
ATOM     10  N   UNL     1      29.179 -23.368 -16.287  0.00  0.00    -0.227 NA
ATOM     11  C   UNL     1      31.356 -23.121 -16.878  0.00  0.00    +0.107 C 
ATOM     12  C   UNL     1      29.940 -23.965 -15.392  0.00  0.00    +0.139 C 
ATOM     13  C   UNL     1      30.050 -22.844 -17.208  0.00  0.00    +0.118 C 
ATOM     14  C   UNL     1      32.317 -24.374 -14.941  0.00  0.00    +0.071 C 
ATOM     15  C   UNL     1      29.621 -24.684 -14.203  0.00  0.00    +0.035 C 
ATOM     16  C   UNL     1      32.009 -25.051 -13.823  0.00  0.00    +0.017 C 
ATOM     17  C   UNL     1      30.611 -25.205 -13.452  0.00  0.00    +0.004 C 
ENDBRANCH   4  11
BRANCH   1  18
ATOM     18  C   UNL     1      36.323 -23.597 -15.592  0.00  0.00    +0.058 C 
ATOM     19  C   UNL     1      36.867 -24.762 -13.113  0.00  0.00    +0.122 C 
ATOM     20  C   UNL     1      36.076 -24.957 -15.388  0.00  0.00    +0.017 C 
ATOM     21  C   UNL     1      36.843 -22.823 -14.553  0.00  0.00    +0.017 C 
ATOM     22  C   UNL     1      36.347 -25.538 -14.150  0.00  0.00    +0.021 C 
ATOM     23  C   UNL     1      37.114 -23.404 -13.315  0.00  0.00    +0.021 C 
BRANCH  19  24
ATOM     24  S   UNL     1      37.206 -25.490 -11.563  0.00  0.00    +0.057 S 
ATOM     25  O   UNL     1      37.326 -26.929 -11.748  0.00  0.00    -0.153 OA
ATOM     26  O   UNL     1      38.288 -24.750 -10.931  0.00  0.00    -0.153 OA
BRANCH  24  27
ATOM     27  N   UNL     1      35.754 -25.161 -10.724  0.00  0.00    -0.203 NA
ATOM     28  H   UNL     1      35.503 -24.181 -10.851  0.00  0.00    +0.144 HD
ATOM     29  H   UNL     1      35.884 -25.353  -9.730  0.00  0.00    +0.144 HD
ENDBRANCH  24  27
ENDBRANCH  19  24
ENDBRANCH   1  18
TORSDOF 4
ENDMDL
MODEL 7
REMARK VINA RESULT:      -8.8      4.876      6.830
REMARK  Name = 5288527
REMARK  4 active torsions:
REMARK  status: ('A' for Active; 'I' for Inactive)
REMARK    1  A    between atoms: N_1  and  C_18
REMARK    2  A    between atoms: C_4  and  C_11
REMARK    3  A    between atoms: C_19  and  S_24
REMARK    4  A    between atoms: S_24  and  N_27
REMARK                            x       y       z     vdW  Elec       q    Type
REMARK                         _______ _______ _______ _____ _____    ______ ____
ROOT
ATOM      1  N   UNL     1      34.315 -24.204 -14.733  0.00  0.00    -0.247 N 
ATOM      2  N   UNL     1      35.331 -23.049 -16.504  0.00  0.00    -0.336 NA
ATOM      3  N   UNL     1      36.653 -24.000 -14.728  0.00  0.00    -0.170 NA
ATOM      4  C   UNL     1      36.476 -22.612 -17.066  0.00  0.00    +0.161 C 
ATOM      5  C   UNL     1      35.491 -23.727 -15.352  0.00  0.00    +0.149 C 
ATOM      6  C   UNL     1      37.727 -22.822 -16.531  0.00  0.00    +0.056 C 
ATOM      7  C   UNL     1      37.756 -23.531 -15.348  0.00  0.00    +0.114 C 
ATOM      8  H   UNL     1      34.480 -24.693 -13.894  0.00  0.00    +0.165 HD
ENDROOT
BRANCH   4  11
ATOM      9  N   UNL     1      35.096 -21.677 -18.926  0.00  0.00    -0.246 N 
ATOM     10  N   UNL     1      36.649 -20.681 -20.191  0.00  0.00    -0.227 NA
ATOM     11  C   UNL     1      36.299 -21.885 -18.300  0.00  0.00    +0.107 C 
ATOM     12  C   UNL     1      35.363 -20.938 -20.076  0.00  0.00    +0.139 C 
ATOM     13  C   UNL     1      37.233 -21.264 -19.095  0.00  0.00    +0.118 C 
ATOM     14  C   UNL     1      33.820 -22.090 -18.553  0.00  0.00    +0.071 C 
ATOM     15  C   UNL     1      34.248 -20.598 -20.898  0.00  0.00    +0.035 C 
ATOM     16  C   UNL     1      32.777 -21.766 -19.333  0.00  0.00    +0.017 C 
ATOM     17  C   UNL     1      33.011 -20.994 -20.543  0.00  0.00    +0.004 C 
ENDBRANCH   4  11
BRANCH   1  18
ATOM     18  C   UNL     1      32.954 -24.117 -15.079  0.00  0.00    +0.058 C 
ATOM     19  C   UNL     1      30.252 -23.947 -15.765  0.00  0.00    +0.122 C 
ATOM     20  C   UNL     1      32.535 -23.213 -16.057  0.00  0.00    +0.017 C 
ATOM     21  C   UNL     1      32.017 -24.936 -14.445  0.00  0.00    +0.017 C 
ATOM     22  C   UNL     1      31.186 -23.127 -16.399  0.00  0.00    +0.021 C 
ATOM     23  C   UNL     1      30.668 -24.851 -14.787  0.00  0.00    +0.021 C 
BRANCH  19  24
ATOM     24  S   UNL     1      28.563 -23.840 -16.192  0.00  0.00    +0.057 S 
ATOM     25  O   UNL     1      28.460 -23.770 -17.643  0.00  0.00    -0.153 OA
ATOM     26  O   UNL     1      27.835 -24.869 -15.464  0.00  0.00    -0.153 OA
BRANCH  24  27
ATOM     27  N   UNL     1      28.156 -22.314 -15.538  0.00  0.00    -0.203 NA
ATOM     28  H   UNL     1      28.097 -22.385 -14.522  0.00  0.00    +0.144 HD
ATOM     29  H   UNL     1      27.256 -22.013 -15.911  0.00  0.00    +0.144 HD
ENDBRANCH  24  27
ENDBRANCH  19  24
ENDBRANCH   1  18
TORSDOF 4
ENDMDL
MODEL 8
REMARK VINA RESULT:      -8.8     11.914     15.477
REMARK  Name = 5288527
REMARK  4 active torsions:
REMARK  status: ('A' for Active; 'I' for Inactive)
REMARK    1  A    between atoms: N_1  and  C_18
REMARK    2  A    between atoms: C_4  and  C_11
REMARK    3  A    between atoms: C_19  and  S_24
REMARK    4  A    between atoms: S_24  and  N_27
REMARK                            x       y       z     vdW  Elec       q    Type
REMARK                         _______ _______ _______ _____ _____    ______ ____
ROOT
ATOM      1  N   UNL     1      32.993 -11.167 -24.862  0.00  0.00    -0.247 N 
ATOM      2  N   UNL     1      33.712 -13.151 -23.837  0.00  0.00    -0.336 NA
ATOM      3  N   UNL     1      33.338 -13.052 -26.215  0.00  0.00    -0.170 NA
ATOM      4  C   UNL     1      34.063 -14.444 -23.988  0.00  0.00    +0.161 C 
ATOM      5  C   UNL     1      33.366 -12.524 -24.977  0.00  0.00    +0.149 C 
ATOM      6  C   UNL     1      34.077 -15.104 -25.197  0.00  0.00    +0.056 C 
ATOM      7  C   UNL     1      33.701 -14.350 -26.289  0.00  0.00    +0.114 C 
ATOM      8  H   UNL     1      32.749 -10.749 -25.719  0.00  0.00    +0.165 HD
ENDROOT
BRANCH   4  11
ATOM      9  N   UNL     1      34.882 -16.406 -22.678  0.00  0.00    -0.246 N 
ATOM     10  N   UNL     1      34.853 -15.605 -20.589  0.00  0.00    -0.227 NA
ATOM     11  C   UNL     1      34.432 -15.113 -22.763  0.00  0.00    +0.107 C 
ATOM     12  C   UNL     1      35.125 -16.660 -21.330  0.00  0.00    +0.139 C 
ATOM     13  C   UNL     1      34.425 -14.645 -21.470  0.00  0.00    +0.118 C 
ATOM     14  C   UNL     1      35.083 -17.343 -23.687  0.00  0.00    +0.071 C 
ATOM     15  C   UNL     1      35.606 -17.959 -20.993  0.00  0.00    +0.035 C 
ATOM     16  C   UNL     1      35.535 -18.564 -23.362  0.00  0.00    +0.017 C 
ATOM     17  C   UNL     1      35.802 -18.871 -21.965  0.00  0.00    +0.004 C 
ENDBRANCH   4  11
BRANCH   1  18
ATOM     18  C   UNL     1      32.904 -10.294 -23.761  0.00  0.00    +0.058 C 
ATOM     19  C   UNL     1      32.724  -8.563 -21.578  0.00  0.00    +0.122 C 
ATOM     20  C   UNL     1      33.721  -9.164 -23.695  0.00  0.00    +0.017 C 
ATOM     21  C   UNL     1      31.996 -10.556 -22.732  0.00  0.00    +0.017 C 
ATOM     22  C   UNL     1      33.631  -8.299 -22.605  0.00  0.00    +0.021 C 
ATOM     23  C   UNL     1      31.907  -9.691 -21.642  0.00  0.00    +0.021 C 
BRANCH  19  24
ATOM     24  S   UNL     1      32.612  -7.481 -20.212  0.00  0.00    +0.057 S 
ATOM     25  O   UNL     1      31.752  -8.095 -19.210  0.00  0.00    -0.153 OA
ATOM     26  O   UNL     1      33.955  -7.054 -19.848  0.00  0.00    -0.153 OA
BRANCH  24  27
ATOM     27  N   UNL     1      31.787  -6.158 -20.911  0.00  0.00    -0.203 NA
ATOM     28  H   UNL     1      31.465  -5.531 -20.174  0.00  0.00    +0.144 HD
ATOM     29  H   UNL     1      30.985  -6.499 -21.442  0.00  0.00    +0.144 HD
ENDBRANCH  24  27
ENDBRANCH  19  24
ENDBRANCH   1  18
TORSDOF 4
ENDMDL
MODEL 9
REMARK VINA RESULT:      -8.8      3.538      6.446
REMARK  Name = 5288527
REMARK  4 active torsions:
REMARK  status: ('A' for Active; 'I' for Inactive)
REMARK    1  A    between atoms: N_1  and  C_18
REMARK    2  A    between atoms: C_4  and  C_11
REMARK    3  A    between atoms: C_19  and  S_24
REMARK    4  A    between atoms: S_24  and  N_27
REMARK                            x       y       z     vdW  Elec       q    Type
REMARK                         _______ _______ _______ _____ _____    ______ ____
ROOT
ATOM      1  N   UNL     1      32.179 -23.215 -17.269  0.00  0.00    -0.247 N 
ATOM      2  N   UNL     1      33.479 -23.857 -15.424  0.00  0.00    -0.336 NA
ATOM      3  N   UNL     1      31.125 -24.362 -15.515  0.00  0.00    -0.170 NA
ATOM      4  C   UNL     1      33.520 -24.465 -14.222  0.00  0.00    +0.161 C 
ATOM      5  C   UNL     1      32.265 -23.842 -16.007  0.00  0.00    +0.149 C 
ATOM      6  C   UNL     1      32.428 -25.036 -13.607  0.00  0.00    +0.056 C 
ATOM      7  C   UNL     1      31.243 -24.954 -14.308  0.00  0.00    +0.114 C 
ATOM      8  H   UNL     1      31.275 -23.228 -17.657  0.00  0.00    +0.165 HD
ENDROOT
BRANCH   4  11
ATOM      9  N   UNL     1      35.885 -25.239 -14.015  0.00  0.00    -0.246 N 
ATOM     10  N   UNL     1      36.595 -24.074 -12.242  0.00  0.00    -0.227 NA
ATOM     11  C   UNL     1      34.823 -24.477 -13.600  0.00  0.00    +0.107 C 
ATOM     12  C   UNL     1      36.943 -24.958 -13.154  0.00  0.00    +0.139 C 
ATOM     13  C   UNL     1      35.285 -23.773 -12.513  0.00  0.00    +0.118 C 
ATOM     14  C   UNL     1      35.971 -26.138 -15.074  0.00  0.00    +0.071 C 
ATOM     15  C   UNL     1      38.171 -25.643 -13.393  0.00  0.00    +0.035 C 
ATOM     16  C   UNL     1      37.130 -26.779 -15.293  0.00  0.00    +0.017 C 
ATOM     17  C   UNL     1      38.261 -26.515 -14.416  0.00  0.00    +0.004 C 
ENDBRANCH   4  11
BRANCH   1  18
ATOM     18  C   UNL     1      33.134 -22.576 -18.082  0.00  0.00    +0.058 C 
ATOM     19  C   UNL     1      35.029 -21.308 -19.694  0.00  0.00    +0.122 C 
ATOM     20  C   UNL     1      32.722 -21.744 -19.125  0.00  0.00    +0.017 C 
ATOM     21  C   UNL     1      34.497 -22.771 -17.847  0.00  0.00    +0.017 C 
ATOM     22  C   UNL     1      33.668 -21.111 -19.930  0.00  0.00    +0.021 C 
ATOM     23  C   UNL     1      35.443 -22.138 -18.652  0.00  0.00    +0.021 C 
BRANCH  19  24
ATOM     24  S   UNL     1      36.214 -20.515 -20.702  0.00  0.00    +0.057 S 
ATOM     25  O   UNL     1      36.622 -19.281 -20.047  0.00  0.00    -0.153 OA
ATOM     26  O   UNL     1      37.220 -21.494 -21.091  0.00  0.00    -0.153 OA
BRANCH  24  27
ATOM     27  N   UNL     1      35.270 -20.127 -22.072  0.00  0.00    -0.203 NA
ATOM     28  H   UNL     1      34.281 -20.175 -21.827  0.00  0.00    +0.144 HD
ATOM     29  H   UNL     1      35.468 -20.790 -22.821  0.00  0.00    +0.144 HD
ENDBRANCH  24  27
ENDBRANCH  19  24
ENDBRANCH   1  18
TORSDOF 4
ENDMDL
