MODEL 1
REMARK VINA RESULT:     -11.7      0.000      0.000
REMARK  Name = 11314340
REMARK  7 active torsions:
REMARK  status: ('A' for Active; 'I' for Inactive)
REMARK    1  A    between atoms: C_2  and  C_10
REMARK    2  A    between atoms: C_3  and  O_18
REMARK    3  A    between atoms: O_18  and  C_19
REMARK    4  A    between atoms: C_19  and  C_20
REMARK    5  A    between atoms: C_20  and  N_21
REMARK    6  A    between atoms: C_20  and  C_25
REMARK    7  A    between atoms: C_25  and  C_26
REMARK                            x       y       z     vdW  Elec       q    Type
REMARK                         _______ _______ _______ _____ _____    ______ ____
ROOT
ATOM      1  N   UNL     1      33.418 -15.365 -25.407  0.00  0.00    -0.239 NA
ATOM      2  C   UNL     1      33.455 -13.776 -23.594  0.00  0.00    +0.022 C 
ATOM      3  C   UNL     1      34.775 -15.773 -23.449  0.00  0.00    +0.158 C 
ATOM      4  C   UNL     1      34.345 -14.573 -22.891  0.00  0.00    +0.040 C 
ATOM      5  C   UNL     1      33.022 -14.206 -24.833  0.00  0.00    +0.099 C 
ATOM      6  C   UNL     1      34.285 -16.120 -24.697  0.00  0.00    +0.136 C 
ENDROOT
BRANCH   2  10
ATOM      7  N   UNL     1      32.555  -8.199 -22.279  0.00  0.00    -0.280 N 
ATOM      8  N   UNL     1      31.719  -8.940 -21.525  0.00  0.00    -0.173 NA
ATOM      9  C   UNL     1      33.014 -10.220 -22.886  0.00  0.00    +0.032 A 
ATOM     10  C   UNL     1      32.987 -12.519 -23.039  0.00  0.00    +0.002 C 
ATOM     11  C   UNL     1      31.980 -10.212 -21.879  0.00  0.00    +0.102 A 
ATOM     12  C   UNL     1      33.570 -11.327 -23.512  0.00  0.00    +0.003 C 
ATOM     13  C   UNL     1      33.357  -8.918 -23.117  0.00  0.00    +0.053 A 
ATOM     14  C   UNL     1      31.959 -12.565 -22.044  0.00  0.00    +0.002 C 
ATOM     15  C   UNL     1      31.415 -11.418 -21.424  0.00  0.00    +0.021 C 
ATOM     16  C   UNL     1      34.329  -8.269 -24.013  0.00  0.00    +0.051 C 
ATOM     17  H   UNL     1      32.583  -7.216 -22.230  0.00  0.00    +0.189 HD
ENDBRANCH   2  10
BRANCH   3  18
ATOM     18  O   UNL     1      35.646 -16.576 -22.789  0.00  0.00    -0.476 OA
BRANCH  18  19
ATOM     19  C   UNL     1      35.639 -17.965 -23.124  0.00  0.00    +0.184 C 
BRANCH  19  20
ATOM     20  C   UNL     1      35.631 -18.819 -21.851  0.00  0.00    -0.017 C 
BRANCH  20  21
ATOM     21  N   UNL     1      35.645 -17.921 -20.692  0.00  0.00    +0.384 N 
ATOM     22  H   UNL     1      36.583 -17.544 -20.564  0.00  0.00    -0.089 HD
ATOM     23  H   UNL     1      35.369 -18.440 -19.857  0.00  0.00    -0.089 HD
ATOM     24  H   UNL     1      34.988 -17.155 -20.848  0.00  0.00    -0.089 HD
ENDBRANCH  20  21
BRANCH  20  25
ATOM     25  C   UNL     1      34.391 -19.732 -21.739  0.00  0.00    +0.008 C 
BRANCH  25  26
ATOM     26  C   UNL     1      34.437 -20.718 -20.598  0.00  0.00    -0.024 C 
ATOM     27  C   UNL     1      33.250 -21.168 -20.040  0.00  0.00    -0.004 C 
ATOM     28  C   UNL     1      35.665 -21.158 -20.127  0.00  0.00    -0.004 C 
ATOM     29  C   UNL     1      33.291 -22.079 -18.986  0.00  0.00    -0.000 C 
ATOM     30  C   UNL     1      35.705 -22.070 -19.072  0.00  0.00    -0.000 C 
ATOM     31  C   UNL     1      34.520 -22.530 -18.501  0.00  0.00    -0.000 C 
ENDBRANCH  25  26
ENDBRANCH  20  25
ENDBRANCH  19  20
ENDBRANCH  18  19
ENDBRANCH   3  18
TORSDOF 7
ENDMDL
MODEL 2
REMARK VINA RESULT:     -11.4      0.637      1.712
REMARK  Name = 11314340
REMARK  7 active torsions:
REMARK  status: ('A' for Active; 'I' for Inactive)
REMARK    1  A    between atoms: C_2  and  C_10
REMARK    2  A    between atoms: C_3  and  O_18
REMARK    3  A    between atoms: O_18  and  C_19
REMARK    4  A    between atoms: C_19  and  C_20
REMARK    5  A    between atoms: C_20  and  N_21
REMARK    6  A    between atoms: C_20  and  C_25
REMARK    7  A    between atoms: C_25  and  C_26
REMARK                            x       y       z     vdW  Elec       q    Type
REMARK                         _______ _______ _______ _____ _____    ______ ____
ROOT
ATOM      1  N   UNL     1      33.391 -15.663 -25.626  0.00  0.00    -0.239 NA
ATOM      2  C   UNL     1      33.749 -13.828 -24.103  0.00  0.00    +0.022 C 
ATOM      3  C   UNL     1      34.746 -15.960 -23.647  0.00  0.00    +0.158 C 
ATOM      4  C   UNL     1      34.532 -14.633 -23.291  0.00  0.00    +0.040 C 
ATOM      5  C   UNL     1      33.204 -14.378 -25.248  0.00  0.00    +0.099 C 
ATOM      6  C   UNL     1      34.159 -16.422 -24.813  0.00  0.00    +0.136 C 
ENDROOT
BRANCH   2  10
ATOM      7  N   UNL     1      31.960  -8.863 -21.698  0.00  0.00    -0.280 N 
ATOM      8  N   UNL     1      32.774  -8.553 -22.727  0.00  0.00    -0.173 NA
ATOM      9  C   UNL     1      32.528 -10.797 -22.470  0.00  0.00    +0.032 A 
ATOM     10  C   UNL     1      33.505 -12.439 -23.758  0.00  0.00    +0.002 C 
ATOM     11  C   UNL     1      33.148  -9.741 -23.234  0.00  0.00    +0.102 A 
ATOM     12  C   UNL     1      32.656 -12.166 -22.669  0.00  0.00    +0.003 C 
ATOM     13  C   UNL     1      31.777 -10.200 -21.498  0.00  0.00    +0.053 A 
ATOM     14  C   UNL     1      34.144 -11.429 -24.546  0.00  0.00    +0.002 C 
ATOM     15  C   UNL     1      33.992 -10.043 -24.318  0.00  0.00    +0.021 C 
ATOM     16  C   UNL     1      30.921 -10.717 -20.417  0.00  0.00    +0.051 C 
ATOM     17  H   UNL     1      31.533  -8.177 -21.134  0.00  0.00    +0.189 HD
ENDBRANCH   2  10
BRANCH   3  18
ATOM     18  O   UNL     1      35.508 -16.776 -22.876  0.00  0.00    -0.476 OA
BRANCH  18  19
ATOM     19  C   UNL     1      35.474 -18.174 -23.168  0.00  0.00    +0.184 C 
BRANCH  19  20
ATOM     20  C   UNL     1      35.516 -18.989 -21.871  0.00  0.00    -0.017 C 
BRANCH  20  21
ATOM     21  N   UNL     1      35.695 -18.064 -20.749  0.00  0.00    +0.384 N 
ATOM     22  H   UNL     1      35.784 -17.112 -21.103  0.00  0.00    -0.089 HD
ATOM     23  H   UNL     1      36.539 -18.315 -20.232  0.00  0.00    -0.089 HD
ATOM     24  H   UNL     1      34.887 -18.122 -20.127  0.00  0.00    -0.089 HD
ENDBRANCH  20  21
BRANCH  20  25
ATOM     25  C   UNL     1      34.229 -19.804 -21.623  0.00  0.00    +0.008 C 
BRANCH  25  26
ATOM     26  C   UNL     1      34.320 -20.795 -20.488  0.00  0.00    -0.024 C 
ATOM     27  C   UNL     1      33.155 -21.274 -19.909  0.00  0.00    -0.004 C 
ATOM     28  C   UNL     1      35.567 -21.208 -20.044  0.00  0.00    -0.004 C 
ATOM     29  C   UNL     1      33.238 -22.189 -18.860  0.00  0.00    -0.000 C 
ATOM     30  C   UNL     1      35.649 -22.124 -18.995  0.00  0.00    -0.000 C 
ATOM     31  C   UNL     1      34.486 -22.614 -18.402  0.00  0.00    -0.000 C 
ENDBRANCH  25  26
ENDBRANCH  20  25
ENDBRANCH  19  20
ENDBRANCH  18  19
ENDBRANCH   3  18
TORSDOF 7
ENDMDL
MODEL 3
REMARK VINA RESULT:     -11.3      2.155      9.673
REMARK  Name = 11314340
REMARK  7 active torsions:
REMARK  status: ('A' for Active; 'I' for Inactive)
REMARK    1  A    between atoms: C_2  and  C_10
REMARK    2  A    between atoms: C_3  and  O_18
REMARK    3  A    between atoms: O_18  and  C_19
REMARK    4  A    between atoms: C_19  and  C_20
REMARK    5  A    between atoms: C_20  and  N_21
REMARK    6  A    between atoms: C_20  and  C_25
REMARK    7  A    between atoms: C_25  and  C_26
REMARK                            x       y       z     vdW  Elec       q    Type
REMARK                         _______ _______ _______ _____ _____    ______ ____
ROOT
ATOM      1  N   UNL     1      33.356 -18.338 -25.746  0.00  0.00    -0.239 NA
ATOM      2  C   UNL     1      34.626 -18.205 -23.700  0.00  0.00    +0.022 C 
ATOM      3  C   UNL     1      34.112 -16.200 -24.911  0.00  0.00    +0.158 C 
ATOM      4  C   UNL     1      34.709 -16.827 -23.822  0.00  0.00    +0.040 C 
ATOM      5  C   UNL     1      33.947 -18.913 -24.675  0.00  0.00    +0.099 C 
ATOM      6  C   UNL     1      33.455 -16.993 -25.836  0.00  0.00    +0.136 C 
ENDROOT
BRANCH   2  10
ATOM      7  N   UNL     1      35.770 -21.530 -19.088  0.00  0.00    -0.280 N 
ATOM      8  N   UNL     1      36.894 -20.855 -19.398  0.00  0.00    -0.173 NA
ATOM      9  C   UNL     1      35.177 -20.359 -20.802  0.00  0.00    +0.032 A 
ATOM     10  C   UNL     1      35.238 -18.889 -22.576  0.00  0.00    +0.002 C 
ATOM     11  C   UNL     1      36.559 -20.110 -20.468  0.00  0.00    +0.102 A 
ATOM     12  C   UNL     1      34.447 -19.790 -21.837  0.00  0.00    +0.003 C 
ATOM     13  C   UNL     1      34.705 -21.270 -19.900  0.00  0.00    +0.053 A 
ATOM     14  C   UNL     1      36.611 -18.609 -22.287  0.00  0.00    +0.002 C 
ATOM     15  C   UNL     1      37.327 -19.206 -21.224  0.00  0.00    +0.021 C 
ATOM     16  C   UNL     1      33.399 -21.921 -19.707  0.00  0.00    +0.051 C 
ATOM     17  H   UNL     1      35.722 -22.163 -18.335  0.00  0.00    +0.189 HD
ENDBRANCH   2  10
BRANCH   3  18
ATOM     18  O   UNL     1      34.173 -14.853 -25.060  0.00  0.00    -0.476 OA
BRANCH  18  19
ATOM     19  C   UNL     1      33.032 -14.096 -24.652  0.00  0.00    +0.184 C 
BRANCH  19  20
ATOM     20  C   UNL     1      33.462 -12.928 -23.757  0.00  0.00    -0.017 C 
BRANCH  20  21
ATOM     21  N   UNL     1      34.491 -13.409 -22.832  0.00  0.00    +0.384 N 
ATOM     22  H   UNL     1      34.288 -13.072 -21.891  0.00  0.00    -0.089 HD
ATOM     23  H   UNL     1      35.404 -13.060 -23.128  0.00  0.00    -0.089 HD
ATOM     24  H   UNL     1      34.501 -14.429 -22.833  0.00  0.00    -0.089 HD
ENDBRANCH  20  21
BRANCH  20  25
ATOM     25  C   UNL     1      34.043 -11.737 -24.549  0.00  0.00    +0.008 C 
BRANCH  25  26
ATOM     26  C   UNL     1      33.843 -10.390 -23.898  0.00  0.00    -0.024 C 
ATOM     27  C   UNL     1      32.724 -10.178 -23.106  0.00  0.00    -0.004 C 
ATOM     28  C   UNL     1      34.780  -9.390 -24.102  0.00  0.00    -0.004 C 
ATOM     29  C   UNL     1      32.539  -8.934 -22.504  0.00  0.00    -0.000 C 
ATOM     30  C   UNL     1      34.594  -8.146 -23.499  0.00  0.00    -0.000 C 
ATOM     31  C   UNL     1      33.474  -7.917 -22.700  0.00  0.00    -0.000 C 
ENDBRANCH  25  26
ENDBRANCH  20  25
ENDBRANCH  19  20
ENDBRANCH  18  19
ENDBRANCH   3  18
TORSDOF 7
ENDMDL
MODEL 4
REMARK VINA RESULT:     -11.2      3.408      6.489
REMARK  Name = 11314340
REMARK  7 active torsions:
REMARK  status: ('A' for Active; 'I' for Inactive)
REMARK    1  A    between atoms: C_2  and  C_10
REMARK    2  A    between atoms: C_3  and  O_18
REMARK    3  A    between atoms: O_18  and  C_19
REMARK    4  A    between atoms: C_19  and  C_20
REMARK    5  A    between atoms: C_20  and  N_21
REMARK    6  A    between atoms: C_20  and  C_25
REMARK    7  A    between atoms: C_25  and  C_26
REMARK                            x       y       z     vdW  Elec       q    Type
REMARK                         _______ _______ _______ _____ _____    ______ ____
ROOT
ATOM      1  N   UNL     1      37.478 -19.220 -20.605  0.00  0.00    -0.239 NA
ATOM      2  C   UNL     1      35.658 -19.105 -22.183  0.00  0.00    +0.022 C 
ATOM      3  C   UNL     1      35.754 -20.914 -20.611  0.00  0.00    +0.158 C 
ATOM      4  C   UNL     1      35.114 -20.270 -21.665  0.00  0.00    +0.040 C 
ATOM      5  C   UNL     1      36.828 -18.622 -21.629  0.00  0.00    +0.099 C 
ATOM      6  C   UNL     1      36.922 -20.355 -20.123  0.00  0.00    +0.136 C 
ENDROOT
BRANCH   2  10
ATOM      7  N   UNL     1      33.284 -15.182 -25.733  0.00  0.00    -0.280 N 
ATOM      8  N   UNL     1      33.211 -16.383 -26.339  0.00  0.00    -0.173 NA
ATOM      9  C   UNL     1      34.199 -16.508 -24.296  0.00  0.00    +0.032 A 
ATOM     10  C   UNL     1      35.014 -18.410 -23.282  0.00  0.00    +0.002 C 
ATOM     11  C   UNL     1      33.775 -17.238 -25.467  0.00  0.00    +0.102 A 
ATOM     12  C   UNL     1      34.823 -17.020 -23.166  0.00  0.00    +0.003 C 
ATOM     13  C   UNL     1      33.869 -15.198 -24.501  0.00  0.00    +0.053 A 
ATOM     14  C   UNL     1      34.614 -19.179 -24.421  0.00  0.00    +0.002 C 
ATOM     15  C   UNL     1      33.979 -18.627 -25.556  0.00  0.00    +0.021 C 
ATOM     16  C   UNL     1      34.033 -13.974 -23.698  0.00  0.00    +0.051 C 
ATOM     17  H   UNL     1      32.942 -14.357 -26.148  0.00  0.00    +0.189 HD
ENDBRANCH   2  10
BRANCH   3  18
ATOM     18  O   UNL     1      35.248 -22.055 -20.080  0.00  0.00    -0.476 OA
BRANCH  18  19
ATOM     19  C   UNL     1      35.123 -22.117 -18.658  0.00  0.00    +0.184 C 
BRANCH  19  20
ATOM     20  C   UNL     1      33.664 -22.367 -18.263  0.00  0.00    -0.017 C 
BRANCH  20  21
ATOM     21  N   UNL     1      32.860 -22.443 -19.486  0.00  0.00    +0.384 N 
ATOM     22  H   UNL     1      31.904 -22.151 -19.284  0.00  0.00    -0.089 HD
ATOM     23  H   UNL     1      32.857 -23.403 -19.832  0.00  0.00    -0.089 HD
ATOM     24  H   UNL     1      33.261 -21.828 -20.195  0.00  0.00    -0.089 HD
ENDBRANCH  20  21
BRANCH  20  25
ATOM     25  C   UNL     1      33.464 -23.678 -17.472  0.00  0.00    +0.008 C 
BRANCH  25  26
ATOM     26  C   UNL     1      32.551 -23.558 -16.276  0.00  0.00    -0.024 C 
ATOM     27  C   UNL     1      31.195 -23.346 -16.475  0.00  0.00    -0.004 C 
ATOM     28  C   UNL     1      33.083 -23.663 -15.001  0.00  0.00    -0.004 C 
ATOM     29  C   UNL     1      30.351 -23.236 -15.371  0.00  0.00    -0.000 C 
ATOM     30  C   UNL     1      32.238 -23.553 -13.896  0.00  0.00    -0.000 C 
ATOM     31  C   UNL     1      30.872 -23.339 -14.081  0.00  0.00    -0.000 C 
ENDBRANCH  25  26
ENDBRANCH  20  25
ENDBRANCH  19  20
ENDBRANCH  18  19
ENDBRANCH   3  18
TORSDOF 7
ENDMDL
MODEL 5
REMARK VINA RESULT:     -11.0      5.078     11.391
REMARK  Name = 11314340
REMARK  7 active torsions:
REMARK  status: ('A' for Active; 'I' for Inactive)
REMARK    1  A    between atoms: C_2  and  C_10
REMARK    2  A    between atoms: C_3  and  O_18
REMARK    3  A    between atoms: O_18  and  C_19
REMARK    4  A    between atoms: C_19  and  C_20
REMARK    5  A    between atoms: C_20  and  N_21
REMARK    6  A    between atoms: C_20  and  C_25
REMARK    7  A    between atoms: C_25  and  C_26
REMARK                            x       y       z     vdW  Elec       q    Type
REMARK                         _______ _______ _______ _____ _____    ______ ____
ROOT
ATOM      1  N   UNL     1      36.737 -22.411 -17.217  0.00  0.00    -0.239 NA
ATOM      2  C   UNL     1      34.406 -22.995 -17.017  0.00  0.00    +0.022 C 
ATOM      3  C   UNL     1      35.220 -22.047 -19.063  0.00  0.00    +0.158 C 
ATOM      4  C   UNL     1      34.168 -22.559 -18.311  0.00  0.00    +0.040 C 
ATOM      5  C   UNL     1      35.690 -22.903 -16.516  0.00  0.00    +0.099 C 
ATOM      6  C   UNL     1      36.473 -21.994 -18.475  0.00  0.00    +0.136 C 
ENDROOT
BRANCH   2  10
ATOM      7  N   UNL     1      29.284 -24.608 -14.825  0.00  0.00    -0.280 N 
ATOM      8  N   UNL     1      30.245 -25.025 -13.977  0.00  0.00    -0.173 NA
ATOM      9  C   UNL     1      31.100 -23.936 -15.779  0.00  0.00    +0.032 A 
ATOM     10  C   UNL     1      33.329 -23.533 -16.206  0.00  0.00    +0.002 C 
ATOM     11  C   UNL     1      31.397 -24.621 -14.543  0.00  0.00    +0.102 A 
ATOM     12  C   UNL     1      32.007 -23.366 -16.662  0.00  0.00    +0.003 C 
ATOM     13  C   UNL     1      29.743 -23.947 -15.927  0.00  0.00    +0.053 A 
ATOM     14  C   UNL     1      33.675 -24.205 -14.990  0.00  0.00    +0.002 C 
ATOM     15  C   UNL     1      32.727 -24.774 -14.111  0.00  0.00    +0.021 C 
ATOM     16  C   UNL     1      28.831 -23.423 -16.958  0.00  0.00    +0.051 C 
ATOM     17  H   UNL     1      28.326 -24.770 -14.662  0.00  0.00    +0.189 HD
ENDBRANCH   2  10
BRANCH   3  18
ATOM     18  O   UNL     1      35.023 -21.613 -20.333  0.00  0.00    -0.476 OA
BRANCH  18  19
ATOM     19  C   UNL     1      34.151 -20.496 -20.516  0.00  0.00    +0.184 C 
BRANCH  19  20
ATOM     20  C   UNL     1      34.871 -19.378 -21.279  0.00  0.00    -0.017 C 
BRANCH  20  21
ATOM     21  N   UNL     1      36.185 -19.172 -20.665  0.00  0.00    +0.384 N 
ATOM     22  H   UNL     1      36.560 -18.270 -20.957  0.00  0.00    -0.089 HD
ATOM     23  H   UNL     1      36.819 -19.916 -20.959  0.00  0.00    -0.089 HD
ATOM     24  H   UNL     1      36.092 -19.188 -19.648  0.00  0.00    -0.089 HD
ENDBRANCH  20  21
BRANCH  20  25
ATOM     25  C   UNL     1      35.082 -19.700 -22.774  0.00  0.00    +0.008 C 
BRANCH  25  26
ATOM     26  C   UNL     1      34.692 -18.589 -23.718  0.00  0.00    -0.024 C 
ATOM     27  C   UNL     1      33.954 -18.890 -24.853  0.00  0.00    -0.004 C 
ATOM     28  C   UNL     1      35.077 -17.288 -23.434  0.00  0.00    -0.004 C 
ATOM     29  C   UNL     1      33.593 -17.864 -25.726  0.00  0.00    -0.000 C 
ATOM     30  C   UNL     1      34.715 -16.262 -24.308  0.00  0.00    -0.000 C 
ATOM     31  C   UNL     1      33.974 -16.550 -25.453  0.00  0.00    -0.000 C 
ENDBRANCH  25  26
ENDBRANCH  20  25
ENDBRANCH  19  20
ENDBRANCH  18  19
ENDBRANCH   3  18
TORSDOF 7
ENDMDL
MODEL 6
REMARK VINA RESULT:     -10.9      4.944      7.769
REMARK  Name = 11314340
REMARK  7 active torsions:
REMARK  status: ('A' for Active; 'I' for Inactive)
REMARK    1  A    between atoms: C_2  and  C_10
REMARK    2  A    between atoms: C_3  and  O_18
REMARK    3  A    between atoms: O_18  and  C_19
REMARK    4  A    between atoms: C_19  and  C_20
REMARK    5  A    between atoms: C_20  and  N_21
REMARK    6  A    between atoms: C_20  and  C_25
REMARK    7  A    between atoms: C_25  and  C_26
REMARK                            x       y       z     vdW  Elec       q    Type
REMARK                         _______ _______ _______ _____ _____    ______ ____
ROOT
ATOM      1  N   UNL     1      36.646 -21.596 -19.127  0.00  0.00    -0.239 NA
ATOM      2  C   UNL     1      35.254 -20.284 -20.595  0.00  0.00    +0.022 C 
ATOM      3  C   UNL     1      34.266 -22.000 -19.242  0.00  0.00    +0.158 C 
ATOM      4  C   UNL     1      34.131 -20.987 -20.186  0.00  0.00    +0.040 C 
ATOM      5  C   UNL     1      36.477 -20.619 -20.046  0.00  0.00    +0.099 C 
ATOM      6  C   UNL     1      35.533 -22.264 -18.749  0.00  0.00    +0.136 C 
ENDROOT
BRANCH   2  10
ATOM      7  N   UNL     1      34.342 -17.105 -25.359  0.00  0.00    -0.280 N 
ATOM      8  N   UNL     1      34.816 -16.284 -24.401  0.00  0.00    -0.173 NA
ATOM      9  C   UNL     1      34.623 -18.431 -23.679  0.00  0.00    +0.032 A 
ATOM     10  C   UNL     1      35.147 -19.222 -21.578  0.00  0.00    +0.002 C 
ATOM     11  C   UNL     1      35.003 -17.082 -23.333  0.00  0.00    +0.102 A 
ATOM     12  C   UNL     1      34.666 -19.552 -22.861  0.00  0.00    +0.003 C 
ATOM     13  C   UNL     1      34.206 -18.408 -24.979  0.00  0.00    +0.053 A 
ATOM     14  C   UNL     1      35.535 -17.902 -21.187  0.00  0.00    +0.002 C 
ATOM     15  C   UNL     1      35.480 -16.781 -22.045  0.00  0.00    +0.021 C 
ATOM     16  C   UNL     1      33.702 -19.441 -25.900  0.00  0.00    +0.051 C 
ATOM     17  H   UNL     1      34.112 -16.788 -26.263  0.00  0.00    +0.189 HD
ENDBRANCH   2  10
BRANCH   3  18
ATOM     18  O   UNL     1      33.189 -22.707 -18.818  0.00  0.00    -0.476 OA
BRANCH  18  19
ATOM     19  C   UNL     1      33.406 -23.686 -17.801  0.00  0.00    +0.184 C 
BRANCH  19  20
ATOM     20  C   UNL     1      32.903 -23.167 -16.448  0.00  0.00    -0.017 C 
BRANCH  20  21
ATOM     21  N   UNL     1      31.440 -23.243 -16.439  0.00  0.00    +0.384 N 
ATOM     22  H   UNL     1      31.061 -22.463 -15.902  0.00  0.00    -0.089 HD
ATOM     23  H   UNL     1      31.147 -24.123 -16.014  0.00  0.00    -0.089 HD
ATOM     24  H   UNL     1      31.091 -23.197 -17.398  0.00  0.00    -0.089 HD
ENDBRANCH  20  21
BRANCH  20  25
ATOM     25  C   UNL     1      33.436 -23.980 -15.249  0.00  0.00    +0.008 C 
BRANCH  25  26
ATOM     26  C   UNL     1      34.941 -24.044 -15.151  0.00  0.00    -0.024 C 
ATOM     27  C   UNL     1      35.563 -25.279 -15.042  0.00  0.00    -0.004 C 
ATOM     28  C   UNL     1      35.674 -22.868 -15.171  0.00  0.00    -0.004 C 
ATOM     29  C   UNL     1      36.952 -25.339 -14.952  0.00  0.00    -0.000 C 
ATOM     30  C   UNL     1      37.065 -22.929 -15.080  0.00  0.00    -0.000 C 
ATOM     31  C   UNL     1      37.704 -24.163 -14.970  0.00  0.00    -0.000 C 
ENDBRANCH  25  26
ENDBRANCH  20  25
ENDBRANCH  19  20
ENDBRANCH  18  19
ENDBRANCH   3  18
TORSDOF 7
ENDMDL
MODEL 7
REMARK VINA RESULT:     -10.9      5.689     12.510
REMARK  Name = 11314340
REMARK  7 active torsions:
REMARK  status: ('A' for Active; 'I' for Inactive)
REMARK    1  A    between atoms: C_2  and  C_10
REMARK    2  A    between atoms: C_3  and  O_18
REMARK    3  A    between atoms: O_18  and  C_19
REMARK    4  A    between atoms: C_19  and  C_20
REMARK    5  A    between atoms: C_20  and  N_21
REMARK    6  A    between atoms: C_20  and  C_25
REMARK    7  A    between atoms: C_25  and  C_26
REMARK                            x       y       z     vdW  Elec       q    Type
REMARK                         _______ _______ _______ _____ _____    ______ ____
ROOT
ATOM      1  N   UNL     1      31.562 -23.561 -15.580  0.00  0.00    -0.239 NA
ATOM      2  C   UNL     1      33.973 -23.546 -15.557  0.00  0.00    +0.022 C 
ATOM      3  C   UNL     1      32.801 -22.944 -17.561  0.00  0.00    +0.158 C 
ATOM      4  C   UNL     1      33.999 -23.141 -16.883  0.00  0.00    +0.040 C 
ATOM      5  C   UNL     1      32.746 -23.742 -14.953  0.00  0.00    +0.099 C 
ATOM      6  C   UNL     1      31.621 -23.166 -16.872  0.00  0.00    +0.136 C 
ENDROOT
BRANCH   2  10
ATOM      7  N   UNL     1      38.003 -24.540 -11.507  0.00  0.00    -0.280 N 
ATOM      8  N   UNL     1      38.635 -24.375 -12.685  0.00  0.00    -0.173 NA
ATOM      9  C   UNL     1      36.380 -24.185 -12.885  0.00  0.00    +0.032 A 
ATOM     10  C   UNL     1      35.206 -23.760 -14.822  0.00  0.00    +0.002 C 
ATOM     11  C   UNL     1      37.649 -24.151 -13.572  0.00  0.00    +0.102 A 
ATOM     12  C   UNL     1      35.119 -23.999 -13.437  0.00  0.00    +0.003 C 
ATOM     13  C   UNL     1      36.644 -24.435 -11.568  0.00  0.00    +0.053 A 
ATOM     14  C   UNL     1      36.438 -23.718 -15.549  0.00  0.00    +0.002 C 
ATOM     15  C   UNL     1      37.706 -23.910 -14.957  0.00  0.00    +0.021 C 
ATOM     16  C   UNL     1      35.795 -24.589 -10.375  0.00  0.00    +0.051 C 
ATOM     17  H   UNL     1      38.485 -24.722 -10.667  0.00  0.00    +0.189 HD
ENDBRANCH   2  10
BRANCH   3  18
ATOM     18  O   UNL     1      32.791 -22.546 -18.858  0.00  0.00    -0.476 OA
BRANCH  18  19
ATOM     19  C   UNL     1      34.055 -22.374 -19.501  0.00  0.00    +0.184 C 
BRANCH  19  20
ATOM     20  C   UNL     1      33.957 -21.295 -20.585  0.00  0.00    -0.017 C 
BRANCH  20  21
ATOM     21  N   UNL     1      32.725 -20.532 -20.369  0.00  0.00    +0.384 N 
ATOM     22  H   UNL     1      32.817 -19.967 -19.525  0.00  0.00    -0.089 HD
ATOM     23  H   UNL     1      31.940 -21.177 -20.263  0.00  0.00    -0.089 HD
ATOM     24  H   UNL     1      32.557 -19.922 -21.170  0.00  0.00    -0.089 HD
ENDBRANCH  20  21
BRANCH  20  25
ATOM     25  C   UNL     1      35.144 -20.308 -20.570  0.00  0.00    +0.008 C 
BRANCH  25  26
ATOM     26  C   UNL     1      35.105 -19.259 -21.654  0.00  0.00    -0.024 C 
ATOM     27  C   UNL     1      35.434 -17.948 -21.344  0.00  0.00    -0.004 C 
ATOM     28  C   UNL     1      34.740 -19.624 -22.941  0.00  0.00    -0.004 C 
ATOM     29  C   UNL     1      35.398 -16.979 -22.346  0.00  0.00    -0.000 C 
ATOM     30  C   UNL     1      34.704 -18.653 -23.942  0.00  0.00    -0.000 C 
ATOM     31  C   UNL     1      35.032 -17.331 -23.645  0.00  0.00    -0.000 C 
ENDBRANCH  25  26
ENDBRANCH  20  25
ENDBRANCH  19  20
ENDBRANCH  18  19
ENDBRANCH   3  18
TORSDOF 7
ENDMDL
MODEL 8
REMARK VINA RESULT:     -10.8      1.188      2.246
REMARK  Name = 11314340
REMARK  7 active torsions:
REMARK  status: ('A' for Active; 'I' for Inactive)
REMARK    1  A    between atoms: C_2  and  C_10
REMARK    2  A    between atoms: C_3  and  O_18
REMARK    3  A    between atoms: O_18  and  C_19
REMARK    4  A    between atoms: C_19  and  C_20
REMARK    5  A    between atoms: C_20  and  N_21
REMARK    6  A    between atoms: C_20  and  C_25
REMARK    7  A    between atoms: C_25  and  C_26
REMARK                            x       y       z     vdW  Elec       q    Type
REMARK                         _______ _______ _______ _____ _____    ______ ____
ROOT
ATOM      1  N   UNL     1      33.232 -14.526 -25.907  0.00  0.00    -0.239 NA
ATOM      2  C   UNL     1      33.543 -12.975 -24.087  0.00  0.00    +0.022 C 
ATOM      3  C   UNL     1      34.198 -15.266 -23.818  0.00  0.00    +0.158 C 
ATOM      4  C   UNL     1      34.082 -13.981 -23.300  0.00  0.00    +0.040 C 
ATOM      5  C   UNL     1      33.135 -13.290 -25.370  0.00  0.00    +0.099 C 
ATOM      6  C   UNL     1      33.761 -15.485 -25.114  0.00  0.00    +0.136 C 
ENDROOT
BRANCH   2  10
ATOM      7  N   UNL     1      32.184  -8.221 -21.056  0.00  0.00    -0.280 N 
ATOM      8  N   UNL     1      32.983  -7.846 -22.075  0.00  0.00    -0.173 NA
ATOM      9  C   UNL     1      32.590 -10.084 -22.068  0.00  0.00    +0.032 A 
ATOM     10  C   UNL     1      33.408 -11.624 -23.576  0.00  0.00    +0.002 C 
ATOM     11  C   UNL     1      33.257  -8.988 -22.730  0.00  0.00    +0.102 A 
ATOM     12  C   UNL     1      32.616 -11.425 -22.428  0.00  0.00    +0.003 C 
ATOM     13  C   UNL     1      31.914  -9.557 -21.004  0.00  0.00    +0.053 A 
ATOM     14  C   UNL     1      34.089 -10.572 -24.267  0.00  0.00    +0.002 C 
ATOM     15  C   UNL     1      34.042  -9.216 -23.875  0.00  0.00    +0.021 C 
ATOM     16  C   UNL     1      31.060 -10.141 -19.956  0.00  0.00    +0.051 C 
ATOM     17  H   UNL     1      31.824  -7.580 -20.401  0.00  0.00    +0.189 HD
ENDBRANCH   2  10
BRANCH   3  18
ATOM     18  O   UNL     1      34.722 -16.274 -23.076  0.00  0.00    -0.476 OA
BRANCH  18  19
ATOM     19  C   UNL     1      35.248 -17.400 -23.779  0.00  0.00    +0.184 C 
BRANCH  19  20
ATOM     20  C   UNL     1      34.796 -18.703 -23.109  0.00  0.00    -0.017 C 
BRANCH  20  21
ATOM     21  N   UNL     1      34.849 -19.777 -24.105  0.00  0.00    +0.384 N 
ATOM     22  H   UNL     1      34.171 -20.499 -23.864  0.00  0.00    -0.089 HD
ATOM     23  H   UNL     1      35.786 -20.182 -24.120  0.00  0.00    -0.089 HD
ATOM     24  H   UNL     1      34.629 -19.398 -25.027  0.00  0.00    -0.089 HD
ENDBRANCH  20  21
BRANCH  20  25
ATOM     25  C   UNL     1      35.681 -19.111 -21.913  0.00  0.00    +0.008 C 
BRANCH  25  26
ATOM     26  C   UNL     1      35.069 -20.145 -21.000  0.00  0.00    -0.024 C 
ATOM     27  C   UNL     1      35.897 -20.995 -20.283  0.00  0.00    -0.004 C 
ATOM     28  C   UNL     1      33.689 -20.227 -20.894  0.00  0.00    -0.004 C 
ATOM     29  C   UNL     1      35.332 -21.951 -19.440  0.00  0.00    -0.000 C 
ATOM     30  C   UNL     1      33.124 -21.184 -20.050  0.00  0.00    -0.000 C 
ATOM     31  C   UNL     1      33.945 -22.046 -19.323  0.00  0.00    -0.000 C 
ENDBRANCH  25  26
ENDBRANCH  20  25
ENDBRANCH  19  20
ENDBRANCH  18  19
ENDBRANCH   3  18
TORSDOF 7
ENDMDL
MODEL 9
REMARK VINA RESULT:     -10.7      5.274      8.198
REMARK  Name = 11314340
REMARK  7 active torsions:
REMARK  status: ('A' for Active; 'I' for Inactive)
REMARK    1  A    between atoms: C_2  and  C_10
REMARK    2  A    between atoms: C_3  and  O_18
REMARK    3  A    between atoms: O_18  and  C_19
REMARK    4  A    between atoms: C_19  and  C_20
REMARK    5  A    between atoms: C_20  and  N_21
REMARK    6  A    between atoms: C_20  and  C_25
REMARK    7  A    between atoms: C_25  and  C_26
REMARK                            x       y       z     vdW  Elec       q    Type
REMARK                         _______ _______ _______ _____ _____    ______ ____
ROOT
ATOM      1  N   UNL     1      32.743 -21.967 -19.440  0.00  0.00    -0.239 NA
ATOM      2  C   UNL     1      34.366 -20.584 -20.566  0.00  0.00    +0.022 C 
ATOM      3  C   UNL     1      35.093 -22.163 -18.914  0.00  0.00    +0.158 C 
ATOM      4  C   UNL     1      35.393 -21.172 -19.843  0.00  0.00    +0.040 C 
ATOM      5  C   UNL     1      33.071 -21.007 -20.334  0.00  0.00    +0.099 C 
ATOM      6  C   UNL     1      33.765 -22.520 -18.751  0.00  0.00    +0.136 C 
ENDROOT
BRANCH   2  10
ATOM      7  N   UNL     1      34.620 -17.237 -25.296  0.00  0.00    -0.280 N 
ATOM      8  N   UNL     1      35.384 -16.665 -24.344  0.00  0.00    -0.173 NA
ATOM      9  C   UNL     1      34.416 -18.592 -23.627  0.00  0.00    +0.032 A 
ATOM     10  C   UNL     1      34.645 -19.547 -21.542  0.00  0.00    +0.002 C 
ATOM     11  C   UNL     1      35.280 -17.487 -23.284  0.00  0.00    +0.102 A 
ATOM     12  C   UNL     1      34.052 -19.658 -22.815  0.00  0.00    +0.003 C 
ATOM     13  C   UNL     1      34.014 -18.400 -24.918  0.00  0.00    +0.053 A 
ATOM     14  C   UNL     1      35.507 -18.473 -21.153  0.00  0.00    +0.002 C 
ATOM     15  C   UNL     1      35.859 -17.402 -22.005  0.00  0.00    +0.021 C 
ATOM     16  C   UNL     1      33.143 -19.158 -25.832  0.00  0.00    +0.051 C 
ATOM     17  H   UNL     1      34.509 -16.846 -26.192  0.00  0.00    +0.189 HD
ENDBRANCH   2  10
BRANCH   3  18
ATOM     18  O   UNL     1      36.073 -22.760 -18.190  0.00  0.00    -0.476 OA
BRANCH  18  19
ATOM     19  C   UNL     1      36.785 -21.947 -17.255  0.00  0.00    +0.184 C 
BRANCH  19  20
ATOM     20  C   UNL     1      36.777 -22.601 -15.869  0.00  0.00    -0.017 C 
BRANCH  20  21
ATOM     21  N   UNL     1      35.541 -23.376 -15.730  0.00  0.00    +0.384 N 
ATOM     22  H   UNL     1      35.592 -23.951 -14.889  0.00  0.00    -0.089 HD
ATOM     23  H   UNL     1      35.424 -23.978 -16.547  0.00  0.00    -0.089 HD
ATOM     24  H   UNL     1      34.746 -22.740 -15.661  0.00  0.00    -0.089 HD
ENDBRANCH  20  21
BRANCH  20  25
ATOM     25  C   UNL     1      37.971 -23.550 -15.637  0.00  0.00    +0.008 C 
BRANCH  25  26
ATOM     26  C   UNL     1      37.777 -24.544 -14.518  0.00  0.00    -0.024 C 
ATOM     27  C   UNL     1      37.671 -24.086 -13.213  0.00  0.00    -0.004 C 
ATOM     28  C   UNL     1      37.709 -25.897 -14.813  0.00  0.00    -0.004 C 
ATOM     29  C   UNL     1      37.491 -25.004 -12.179  0.00  0.00    -0.000 C 
ATOM     30  C   UNL     1      37.529 -26.814 -13.778  0.00  0.00    -0.000 C 
ATOM     31  C   UNL     1      37.421 -26.369 -12.461  0.00  0.00    -0.000 C 
ENDBRANCH  25  26
ENDBRANCH  20  25
ENDBRANCH  19  20
ENDBRANCH  18  19
ENDBRANCH   3  18
TORSDOF 7
ENDMDL
