MODEL 1
REMARK VINA RESULT:     -11.1      0.000      0.000
REMARK  Name = 2267
REMARK  3 active torsions:
REMARK  status: ('A' for Active; 'I' for Inactive)
REMARK    1  A    between atoms: N_2  and  C_13
REMARK    2  A    between atoms: C_6  and  C_21
REMARK    3  A    between atoms: C_21  and  C_23
REMARK                            x       y       z     vdW  Elec       q    Type
REMARK                         _______ _______ _______ _____ _____    ______ ____
ROOT
ATOM      1  O   UNL     1      32.386 -22.710 -18.643  0.00  0.00    -0.266 OA
ATOM      2  N   UNL     1      33.836 -23.266 -16.918  0.00  0.00    -0.219 N 
ATOM      3  N   UNL     1      35.090 -23.233 -16.377  0.00  0.00    -0.171 NA
ATOM      4  C   UNL     1      33.509 -22.688 -18.144  0.00  0.00    +0.276 A 
ATOM      5  C   UNL     1      34.598 -22.011 -18.872  0.00  0.00    +0.059 A 
ATOM      6  C   UNL     1      36.050 -22.639 -17.012  0.00  0.00    +0.083 A 
ATOM      7  C   UNL     1      35.872 -21.981 -18.317  0.00  0.00    +0.020 A 
ATOM      8  C   UNL     1      34.356 -21.405 -20.110  0.00  0.00    +0.005 C 
ATOM      9  C   UNL     1      36.916 -21.344 -18.995  0.00  0.00    +0.001 C 
ATOM     10  C   UNL     1      35.397 -20.770 -20.786  0.00  0.00    +0.000 C 
ATOM     11  C   UNL     1      36.674 -20.740 -20.229  0.00  0.00    +0.000 C 
ENDROOT
BRANCH   2  13
ATOM     12  N   UNL     1      30.370 -25.062 -14.862  0.00  0.00    +0.386 N 
ATOM     13  C   UNL     1      32.848 -23.958 -16.117  0.00  0.00    +0.106 C 
ATOM     14  C   UNL     1      33.409 -24.165 -14.707  0.00  0.00    +0.022 C 
ATOM     15  C   UNL     1      31.548 -23.149 -16.095  0.00  0.00    +0.002 C 
ATOM     16  C   UNL     1      32.588 -25.078 -13.800  0.00  0.00    -0.021 C 
ATOM     17  C   UNL     1      30.281 -23.973 -15.841  0.00  0.00    -0.075 C 
ATOM     18  C   UNL     1      31.108 -24.717 -13.647  0.00  0.00    -0.077 C 
ATOM     19  C   UNL     1      29.029 -25.560 -14.550  0.00  0.00    -0.101 C 
ATOM     20  H   UNL     1      30.918 -25.801 -15.301  0.00  0.00    -0.080 HD
ENDBRANCH   2  13
BRANCH   6  21
ATOM     21  C   UNL     1      37.414 -22.636 -16.364  0.00  0.00    +0.074 C 
BRANCH  21  23
ATOM     22 CL   UNL     1      37.520 -26.375 -11.671  0.00  0.00    -0.082 Cl
ATOM     23  C   UNL     1      37.442 -23.567 -15.194  0.00  0.00    -0.016 C 
ATOM     24  C   UNL     1      37.889 -24.876 -15.361  0.00  0.00    -0.003 C 
ATOM     25  C   UNL     1      37.018 -23.123 -13.944  0.00  0.00    -0.003 C 
ATOM     26  C   UNL     1      37.914 -25.745 -14.270  0.00  0.00    +0.011 C 
ATOM     27  C   UNL     1      37.042 -23.992 -12.853  0.00  0.00    +0.011 C 
ATOM     28  C   UNL     1      37.490 -25.304 -13.016  0.00  0.00    +0.058 C 
ENDBRANCH  21  23
ENDBRANCH   6  21
TORSDOF 3
ENDMDL
MODEL 2
REMARK VINA RESULT:     -10.4      1.542      5.558
REMARK  Name = 2267
REMARK  3 active torsions:
REMARK  status: ('A' for Active; 'I' for Inactive)
REMARK    1  A    between atoms: N_2  and  C_13
REMARK    2  A    between atoms: C_6  and  C_21
REMARK    3  A    between atoms: C_21  and  C_23
REMARK                            x       y       z     vdW  Elec       q    Type
REMARK                         _______ _______ _______ _____ _____    ______ ____
ROOT
ATOM      1  O   UNL     1      31.532 -22.818 -17.733  0.00  0.00    -0.266 OA
ATOM      2  N   UNL     1      33.545 -23.041 -16.600  0.00  0.00    -0.219 N 
ATOM      3  N   UNL     1      34.247 -23.512 -15.528  0.00  0.00    -0.171 NA
ATOM      4  C   UNL     1      32.177 -23.237 -16.774  0.00  0.00    +0.276 A 
ATOM      5  C   UNL     1      31.475 -23.998 -15.724  0.00  0.00    +0.059 A 
ATOM      6  C   UNL     1      33.636 -24.181 -14.603  0.00  0.00    +0.083 A 
ATOM      7  C   UNL     1      32.194 -24.474 -14.633  0.00  0.00    +0.020 A 
ATOM      8  C   UNL     1      30.100 -24.239 -15.819  0.00  0.00    +0.005 C 
ATOM      9  C   UNL     1      31.544 -25.197 -13.628  0.00  0.00    +0.001 C 
ATOM     10  C   UNL     1      29.452 -24.959 -14.816  0.00  0.00    +0.000 C 
ATOM     11  C   UNL     1      30.173 -25.437 -13.723  0.00  0.00    +0.000 C 
ENDROOT
BRANCH   2  13
ATOM     12  N   UNL     1      35.418 -20.862 -19.949  0.00  0.00    +0.386 N 
ATOM     13  C   UNL     1      34.336 -22.306 -17.567  0.00  0.00    +0.106 C 
ATOM     14  C   UNL     1      35.816 -22.634 -17.348  0.00  0.00    +0.022 C 
ATOM     15  C   UNL     1      33.881 -22.670 -18.983  0.00  0.00    +0.002 C 
ATOM     16  C   UNL     1      36.802 -21.773 -18.133  0.00  0.00    -0.021 C 
ATOM     17  C   UNL     1      34.151 -21.596 -20.042  0.00  0.00    -0.075 C 
ATOM     18  C   UNL     1      36.577 -21.702 -19.645  0.00  0.00    -0.077 C 
ATOM     19  C   UNL     1      35.630 -20.080 -21.169  0.00  0.00    -0.101 C 
ATOM     20  H   UNL     1      35.331 -20.235 -19.150  0.00  0.00    -0.080 HD
ENDBRANCH   2  13
BRANCH   6  21
ATOM     21  C   UNL     1      34.465 -24.676 -13.440  0.00  0.00    +0.074 C 
BRANCH  21  23
ATOM     22 CL   UNL     1      40.110 -25.743 -15.178  0.00  0.00    -0.082 Cl
ATOM     23  C   UNL     1      35.872 -24.941 -13.874  0.00  0.00    -0.016 C 
ATOM     24  C   UNL     1      36.145 -26.010 -14.724  0.00  0.00    -0.003 C 
ATOM     25  C   UNL     1      36.903 -24.119 -13.425  0.00  0.00    -0.003 C 
ATOM     26  C   UNL     1      37.457 -26.258 -15.129  0.00  0.00    +0.011 C 
ATOM     27  C   UNL     1      38.214 -24.368 -13.828  0.00  0.00    +0.011 C 
ATOM     28  C   UNL     1      38.492 -25.437 -14.680  0.00  0.00    +0.058 C 
ENDBRANCH  21  23
ENDBRANCH   6  21
TORSDOF 3
ENDMDL
MODEL 3
REMARK VINA RESULT:      -9.9      2.228      5.210
REMARK  Name = 2267
REMARK  3 active torsions:
REMARK  status: ('A' for Active; 'I' for Inactive)
REMARK    1  A    between atoms: N_2  and  C_13
REMARK    2  A    between atoms: C_6  and  C_21
REMARK    3  A    between atoms: C_21  and  C_23
REMARK                            x       y       z     vdW  Elec       q    Type
REMARK                         _______ _______ _______ _____ _____    ______ ____
ROOT
ATOM      1  O   UNL     1      37.494 -22.398 -17.216  0.00  0.00    -0.266 OA
ATOM      2  N   UNL     1      35.529 -23.216 -16.289  0.00  0.00    -0.219 N 
ATOM      3  N   UNL     1      34.176 -23.385 -16.358  0.00  0.00    -0.171 NA
ATOM      4  C   UNL     1      36.276 -22.558 -17.265  0.00  0.00    +0.276 A 
ATOM      5  C   UNL     1      35.535 -22.025 -18.423  0.00  0.00    +0.059 A 
ATOM      6  C   UNL     1      33.520 -22.920 -17.373  0.00  0.00    +0.083 A 
ATOM      7  C   UNL     1      34.157 -22.199 -18.488  0.00  0.00    +0.020 A 
ATOM      8  C   UNL     1      36.207 -21.350 -19.448  0.00  0.00    +0.005 C 
ATOM      9  C   UNL     1      33.439 -21.699 -19.579  0.00  0.00    +0.001 C 
ATOM     10  C   UNL     1      35.490 -20.852 -20.536  0.00  0.00    +0.000 C 
ATOM     11  C   UNL     1      34.110 -21.026 -20.600  0.00  0.00    +0.000 C 
ENDROOT
BRANCH   2  13
ATOM     12  N   UNL     1      37.704 -25.370 -13.112  0.00  0.00    +0.386 N 
ATOM     13  C   UNL     1      36.152 -23.777 -15.108  0.00  0.00    +0.106 C 
ATOM     14  C   UNL     1      35.225 -23.558 -13.908  0.00  0.00    +0.022 C 
ATOM     15  C   UNL     1      36.437 -25.264 -15.337  0.00  0.00    +0.002 C 
ATOM     16  C   UNL     1      35.827 -23.887 -12.544  0.00  0.00    -0.021 C 
ATOM     17  C   UNL     1      37.585 -25.836 -14.498  0.00  0.00    -0.075 C 
ATOM     18  C   UNL     1      36.430 -25.285 -12.397  0.00  0.00    -0.077 C 
ATOM     19  C   UNL     1      38.668 -26.202 -12.389  0.00  0.00    -0.101 C 
ATOM     20  H   UNL     1      38.044 -24.410 -13.157  0.00  0.00    -0.080 HD
ENDBRANCH   2  13
BRANCH   6  21
ATOM     21  C   UNL     1      32.025 -23.137 -17.394  0.00  0.00    +0.074 C 
BRANCH  21  23
ATOM     22 CL   UNL     1      30.096 -24.977 -12.016  0.00  0.00    -0.082 Cl
ATOM     23  C   UNL     1      31.543 -23.595 -16.054  0.00  0.00    -0.016 C 
ATOM     24  C   UNL     1      31.876 -22.869 -14.912  0.00  0.00    -0.003 C 
ATOM     25  C   UNL     1      30.766 -24.747 -15.952  0.00  0.00    -0.003 C 
ATOM     26  C   UNL     1      31.427 -23.296 -13.663  0.00  0.00    +0.011 C 
ATOM     27  C   UNL     1      30.319 -25.174 -14.703  0.00  0.00    +0.011 C 
ATOM     28  C   UNL     1      30.649 -24.449 -13.558  0.00  0.00    +0.058 C 
ENDBRANCH  21  23
ENDBRANCH   6  21
TORSDOF 3
ENDMDL
MODEL 4
REMARK VINA RESULT:      -9.8     13.647     17.230
REMARK  Name = 2267
REMARK  3 active torsions:
REMARK  status: ('A' for Active; 'I' for Inactive)
REMARK    1  A    between atoms: N_2  and  C_13
REMARK    2  A    between atoms: C_6  and  C_21
REMARK    3  A    between atoms: C_21  and  C_23
REMARK                            x       y       z     vdW  Elec       q    Type
REMARK                         _______ _______ _______ _____ _____    ______ ____
ROOT
ATOM      1  O   UNL     1      31.461 -11.600 -21.934  0.00  0.00    -0.266 OA
ATOM      2  N   UNL     1      33.057 -10.785 -23.409  0.00  0.00    -0.219 N 
ATOM      3  N   UNL     1      33.915  -9.792 -23.785  0.00  0.00    -0.171 NA
ATOM      4  C   UNL     1      32.238 -10.714 -22.284  0.00  0.00    +0.276 A 
ATOM      5  C   UNL     1      32.324  -9.484 -21.475  0.00  0.00    +0.059 A 
ATOM      6  C   UNL     1      33.995  -8.709 -23.078  0.00  0.00    +0.083 A 
ATOM      7  C   UNL     1      33.198  -8.475 -21.862  0.00  0.00    +0.020 A 
ATOM      8  C   UNL     1      31.535  -9.329 -20.330  0.00  0.00    +0.005 C 
ATOM      9  C   UNL     1      33.291  -7.301 -21.108  0.00  0.00    +0.001 C 
ATOM     10  C   UNL     1      31.628  -8.159 -19.578  0.00  0.00    +0.000 C 
ATOM     11  C   UNL     1      32.504  -7.148 -19.966  0.00  0.00    +0.000 C 
ENDROOT
BRANCH   2  13
ATOM     12  N   UNL     1      33.188 -14.669 -25.498  0.00  0.00    +0.386 N 
ATOM     13  C   UNL     1      33.055 -11.945 -24.278  0.00  0.00    +0.106 C 
ATOM     14  C   UNL     1      33.521 -11.520 -25.673  0.00  0.00    +0.022 C 
ATOM     15  C   UNL     1      33.960 -13.030 -23.686  0.00  0.00    +0.002 C 
ATOM     16  C   UNL     1      33.361 -12.571 -26.768  0.00  0.00    -0.021 C 
ATOM     17  C   UNL     1      33.609 -14.460 -24.108  0.00  0.00    -0.075 C 
ATOM     18  C   UNL     1      33.987 -13.938 -26.482  0.00  0.00    -0.077 C 
ATOM     19  C   UNL     1      33.154 -16.102 -25.797  0.00  0.00    -0.101 C 
ATOM     20  H   UNL     1      32.250 -14.279 -25.578  0.00  0.00    -0.080 HD
ENDBRANCH   2  13
BRANCH   6  21
ATOM     21  C   UNL     1      34.961  -7.645 -23.543  0.00  0.00    +0.074 C 
BRANCH  21  23
ATOM     22 CL   UNL     1      32.076  -3.383 -26.630  0.00  0.00    -0.082 Cl
ATOM     23  C   UNL     1      34.242  -6.584 -24.313  0.00  0.00    -0.016 C 
ATOM     24  C   UNL     1      34.919  -5.857 -25.290  0.00  0.00    -0.003 C 
ATOM     25  C   UNL     1      32.898  -6.325 -24.050  0.00  0.00    -0.003 C 
ATOM     26  C   UNL     1      34.248  -4.866 -26.007  0.00  0.00    +0.011 C 
ATOM     27  C   UNL     1      32.228  -5.335 -24.767  0.00  0.00    +0.011 C 
ATOM     28  C   UNL     1      32.903  -4.605 -25.746  0.00  0.00    +0.058 C 
ENDBRANCH  21  23
ENDBRANCH   6  21
TORSDOF 3
ENDMDL
MODEL 5
REMARK VINA RESULT:      -9.3      2.925      5.580
REMARK  Name = 2267
REMARK  3 active torsions:
REMARK  status: ('A' for Active; 'I' for Inactive)
REMARK    1  A    between atoms: N_2  and  C_13
REMARK    2  A    between atoms: C_6  and  C_21
REMARK    3  A    between atoms: C_21  and  C_23
REMARK                            x       y       z     vdW  Elec       q    Type
REMARK                         _______ _______ _______ _____ _____    ______ ____
ROOT
ATOM      1  O   UNL     1      32.751 -24.650 -12.751  0.00  0.00    -0.266 OA
ATOM      2  N   UNL     1      33.165 -24.103 -14.968  0.00  0.00    -0.219 N 
ATOM      3  N   UNL     1      34.043 -23.729 -15.945  0.00  0.00    -0.171 NA
ATOM      4  C   UNL     1      33.531 -24.313 -13.640  0.00  0.00    +0.276 A 
ATOM      5  C   UNL     1      34.952 -24.112 -13.301  0.00  0.00    +0.059 A 
ATOM      6  C   UNL     1      35.292 -23.551 -15.653  0.00  0.00    +0.083 A 
ATOM      7  C   UNL     1      35.841 -23.731 -14.299  0.00  0.00    +0.020 A 
ATOM      8  C   UNL     1      35.404 -24.301 -11.991  0.00  0.00    +0.005 C 
ATOM      9  C   UNL     1      37.192 -23.535 -13.995  0.00  0.00    +0.001 C 
ATOM     10  C   UNL     1      36.751 -24.106 -11.688  0.00  0.00    +0.000 C 
ATOM     11  C   UNL     1      37.642 -23.723 -12.688  0.00  0.00    +0.000 C 
ENDROOT
BRANCH   2  13
ATOM     12  N   UNL     1      29.032 -23.962 -16.506  0.00  0.00    +0.386 N 
ATOM     13  C   UNL     1      31.796 -24.269 -15.414  0.00  0.00    +0.106 C 
ATOM     14  C   UNL     1      31.112 -25.318 -14.532  0.00  0.00    +0.022 C 
ATOM     15  C   UNL     1      31.071 -22.922 -15.355  0.00  0.00    +0.002 C 
ATOM     16  C   UNL     1      29.736 -25.779 -15.008  0.00  0.00    -0.021 C 
ATOM     17  C   UNL     1      29.887 -22.785 -16.318  0.00  0.00    -0.075 C 
ATOM     18  C   UNL     1      28.711 -24.674 -15.269  0.00  0.00    -0.077 C 
ATOM     19  C   UNL     1      27.819 -23.583 -17.234  0.00  0.00    -0.101 C 
ATOM     20  H   UNL     1      29.571 -24.627 -17.060  0.00  0.00    -0.080 HD
ENDBRANCH   2  13
BRANCH   6  21
ATOM     21  C   UNL     1      36.215 -23.137 -16.775  0.00  0.00    +0.074 C 
BRANCH  21  23
ATOM     22 CL   UNL     1      33.112 -20.536 -21.205  0.00  0.00    -0.082 Cl
ATOM     23  C   UNL     1      35.442 -22.490 -17.879  0.00  0.00    -0.016 C 
ATOM     24  C   UNL     1      36.107 -21.728 -18.837  0.00  0.00    -0.003 C 
ATOM     25  C   UNL     1      34.060 -22.650 -17.945  0.00  0.00    -0.003 C 
ATOM     26  C   UNL     1      35.387 -21.124 -19.867  0.00  0.00    +0.011 C 
ATOM     27  C   UNL     1      33.339 -22.044 -18.974  0.00  0.00    +0.011 C 
ATOM     28  C   UNL     1      34.002 -21.282 -19.935  0.00  0.00    +0.058 C 
ENDBRANCH  21  23
ENDBRANCH   6  21
TORSDOF 3
ENDMDL
MODEL 6
REMARK VINA RESULT:      -9.0     11.998     15.600
REMARK  Name = 2267
REMARK  3 active torsions:
REMARK  status: ('A' for Active; 'I' for Inactive)
REMARK    1  A    between atoms: N_2  and  C_13
REMARK    2  A    between atoms: C_6  and  C_21
REMARK    3  A    between atoms: C_21  and  C_23
REMARK                            x       y       z     vdW  Elec       q    Type
REMARK                         _______ _______ _______ _____ _____    ______ ____
ROOT
ATOM      1  O   UNL     1      31.750 -13.595 -21.224  0.00  0.00    -0.266 OA
ATOM      2  N   UNL     1      33.019 -12.751 -22.974  0.00  0.00    -0.219 N 
ATOM      3  N   UNL     1      33.600 -11.685 -23.601  0.00  0.00    -0.171 NA
ATOM      4  C   UNL     1      32.278 -12.645 -21.799  0.00  0.00    +0.276 A 
ATOM      5  C   UNL     1      32.130 -11.295 -21.224  0.00  0.00    +0.059 A 
ATOM      6  C   UNL     1      33.473 -10.497 -23.100  0.00  0.00    +0.083 A 
ATOM      7  C   UNL     1      32.722 -10.214 -21.866  0.00  0.00    +0.020 A 
ATOM      8  C   UNL     1      31.400 -11.100 -20.046  0.00  0.00    +0.005 C 
ATOM      9  C   UNL     1      32.590  -8.927 -21.336  0.00  0.00    +0.001 C 
ATOM     10  C   UNL     1      31.269  -9.816 -19.517  0.00  0.00    +0.000 C 
ATOM     11  C   UNL     1      31.862  -8.733 -20.161  0.00  0.00    +0.000 C 
ENDROOT
BRANCH   2  13
ATOM     12  N   UNL     1      34.058 -16.779 -24.444  0.00  0.00    +0.386 N 
ATOM     13  C   UNL     1      33.228 -14.027 -23.628  0.00  0.00    +0.106 C 
ATOM     14  C   UNL     1      33.117 -13.831 -25.143  0.00  0.00    +0.022 C 
ATOM     15  C   UNL     1      34.596 -14.588 -23.230  0.00  0.00    +0.002 C 
ATOM     16  C   UNL     1      33.086 -15.114 -25.970  0.00  0.00    -0.021 C 
ATOM     17  C   UNL     1      34.715 -16.113 -23.315  0.00  0.00    -0.075 C 
ATOM     18  C   UNL     1      34.233 -16.097 -25.727  0.00  0.00    -0.077 C 
ATOM     19  C   UNL     1      34.491 -18.176 -24.519  0.00  0.00    -0.101 C 
ATOM     20  H   UNL     1      33.056 -16.739 -24.261  0.00  0.00    -0.080 HD
ENDBRANCH   2  13
BRANCH   6  21
ATOM     21  C   UNL     1      34.137  -9.358 -23.838  0.00  0.00    +0.074 C 
BRANCH  21  23
ATOM     22 CL   UNL     1      30.679  -4.455 -23.695  0.00  0.00    -0.082 Cl
ATOM     23  C   UNL     1      33.275  -8.136 -23.801  0.00  0.00    -0.016 C 
ATOM     24  C   UNL     1      31.934  -8.223 -24.166  0.00  0.00    -0.003 C 
ATOM     25  C   UNL     1      33.817  -6.916 -23.404  0.00  0.00    -0.003 C 
ATOM     26  C   UNL     1      31.130  -7.084 -24.133  0.00  0.00    +0.011 C 
ATOM     27  C   UNL     1      33.014  -5.777 -23.372  0.00  0.00    +0.011 C 
ATOM     28  C   UNL     1      31.669  -5.861 -23.736  0.00  0.00    +0.058 C 
ENDBRANCH  21  23
ENDBRANCH   6  21
TORSDOF 3
ENDMDL
MODEL 7
REMARK VINA RESULT:      -8.8      7.265     10.742
REMARK  Name = 2267
REMARK  3 active torsions:
REMARK  status: ('A' for Active; 'I' for Inactive)
REMARK    1  A    between atoms: N_2  and  C_13
REMARK    2  A    between atoms: C_6  and  C_21
REMARK    3  A    between atoms: C_21  and  C_23
REMARK                            x       y       z     vdW  Elec       q    Type
REMARK                         _______ _______ _______ _____ _____    ______ ____
ROOT
ATOM      1  O   UNL     1      32.932 -15.313 -25.457  0.00  0.00    -0.266 OA
ATOM      2  N   UNL     1      34.202 -15.136 -23.523  0.00  0.00    -0.219 N 
ATOM      3  N   UNL     1      35.024 -15.711 -22.597  0.00  0.00    -0.171 NA
ATOM      4  C   UNL     1      33.673 -15.819 -24.617  0.00  0.00    +0.276 A 
ATOM      5  C   UNL     1      34.039 -17.240 -24.754  0.00  0.00    +0.059 A 
ATOM      6  C   UNL     1      35.349 -16.960 -22.713  0.00  0.00    +0.083 A 
ATOM      7  C   UNL     1      34.875 -17.822 -23.809  0.00  0.00    +0.020 A 
ATOM      8  C   UNL     1      33.551 -18.000 -25.823  0.00  0.00    +0.005 C 
ATOM      9  C   UNL     1      35.232 -19.169 -23.923  0.00  0.00    +0.001 C 
ATOM     10  C   UNL     1      33.906 -19.344 -25.937  0.00  0.00    +0.000 C 
ATOM     11  C   UNL     1      34.744 -19.926 -24.989  0.00  0.00    +0.000 C 
ENDROOT
BRANCH   2  13
ATOM     12  N   UNL     1      32.844 -11.099 -22.372  0.00  0.00    +0.386 N 
ATOM     13  C   UNL     1      33.909 -13.737 -23.287  0.00  0.00    +0.106 C 
ATOM     14  C   UNL     1      34.191 -12.948 -24.570  0.00  0.00    +0.022 C 
ATOM     15  C   UNL     1      32.452 -13.587 -22.841  0.00  0.00    +0.002 C 
ATOM     16  C   UNL     1      34.151 -11.429 -24.428  0.00  0.00    -0.021 C 
ATOM     17  C   UNL     1      32.162 -12.341 -21.996  0.00  0.00    -0.075 C 
ATOM     18  C   UNL     1      32.877 -10.845 -23.812  0.00  0.00    -0.077 C 
ATOM     19  C   UNL     1      32.259  -9.971 -21.644  0.00  0.00    -0.101 C 
ATOM     20  H   UNL     1      33.821 -11.212 -22.103  0.00  0.00    -0.080 HD
ENDBRANCH   2  13
BRANCH   6  21
ATOM     21  C   UNL     1      36.261 -17.541 -21.658  0.00  0.00    +0.074 C 
BRANCH  21  23
ATOM     22 CL   UNL     1      34.025 -22.699 -19.555  0.00  0.00    -0.082 Cl
ATOM     23  C   UNL     1      35.703 -18.826 -21.133  0.00  0.00    -0.016 C 
ATOM     24  C   UNL     1      36.563 -19.804 -20.637  0.00  0.00    -0.003 C 
ATOM     25  C   UNL     1      34.327 -19.041 -21.144  0.00  0.00    -0.003 C 
ATOM     26  C   UNL     1      36.044 -21.002 -20.149  0.00  0.00    +0.011 C 
ATOM     27  C   UNL     1      33.808 -20.240 -20.656  0.00  0.00    +0.011 C 
ATOM     28  C   UNL     1      34.666 -21.221 -20.158  0.00  0.00    +0.058 C 
ENDBRANCH  21  23
ENDBRANCH   6  21
TORSDOF 3
ENDMDL
MODEL 8
REMARK VINA RESULT:      -8.7      1.628      5.609
REMARK  Name = 2267
REMARK  3 active torsions:
REMARK  status: ('A' for Active; 'I' for Inactive)
REMARK    1  A    between atoms: N_2  and  C_13
REMARK    2  A    between atoms: C_6  and  C_21
REMARK    3  A    between atoms: C_21  and  C_23
REMARK                            x       y       z     vdW  Elec       q    Type
REMARK                         _______ _______ _______ _____ _____    ______ ____
ROOT
ATOM      1  O   UNL     1      31.228 -22.064 -17.727  0.00  0.00    -0.266 OA
ATOM      2  N   UNL     1      33.272 -22.986 -17.127  0.00  0.00    -0.219 N 
ATOM      3  N   UNL     1      33.991 -23.863 -16.367  0.00  0.00    -0.171 NA
ATOM      4  C   UNL     1      31.888 -22.849 -17.049  0.00  0.00    +0.276 A 
ATOM      5  C   UNL     1      31.188 -23.714 -16.080  0.00  0.00    +0.059 A 
ATOM      6  C   UNL     1      33.381 -24.625 -15.515  0.00  0.00    +0.083 A 
ATOM      7  C   UNL     1      31.924 -24.604 -15.308  0.00  0.00    +0.020 A 
ATOM      8  C   UNL     1      29.798 -23.640 -15.936  0.00  0.00    +0.005 C 
ATOM      9  C   UNL     1      31.276 -25.430 -14.384  0.00  0.00    +0.001 C 
ATOM     10  C   UNL     1      29.152 -24.464 -15.015  0.00  0.00    +0.000 C 
ATOM     11  C   UNL     1      29.890 -25.356 -14.241  0.00  0.00    +0.000 C 
ENDROOT
BRANCH   2  13
ATOM     12  N   UNL     1      35.122 -20.522 -20.286  0.00  0.00    +0.386 N 
ATOM     13  C   UNL     1      34.063 -22.187 -18.042  0.00  0.00    +0.106 C 
ATOM     14  C   UNL     1      35.525 -22.640 -17.958  0.00  0.00    +0.022 C 
ATOM     15  C   UNL     1      33.507 -22.333 -19.461  0.00  0.00    +0.002 C 
ATOM     16  C   UNL     1      36.529 -21.752 -18.688  0.00  0.00    -0.021 C 
ATOM     17  C   UNL     1      33.801 -21.151 -20.392  0.00  0.00    -0.075 C 
ATOM     18  C   UNL     1      36.230 -21.471 -20.162  0.00  0.00    -0.077 C 
ATOM     19  C   UNL     1      35.327 -19.606 -21.409  0.00  0.00    -0.101 C 
ATOM     20  H   UNL     1      35.125 -20.000 -19.411  0.00  0.00    -0.080 HD
ENDBRANCH   2  13
BRANCH   6  21
ATOM     21  C   UNL     1      34.229 -25.575 -14.701  0.00  0.00    +0.074 C 
BRANCH  21  23
ATOM     22 CL   UNL     1      38.395 -22.561 -11.605  0.00  0.00    -0.082 Cl
ATOM     23  C   UNL     1      35.266 -24.823 -13.930  0.00  0.00    -0.016 C 
ATOM     24  C   UNL     1      36.530 -24.624 -14.481  0.00  0.00    -0.003 C 
ATOM     25  C   UNL     1      34.966 -24.327 -12.664  0.00  0.00    -0.003 C 
ATOM     26  C   UNL     1      37.498 -23.923 -13.762  0.00  0.00    +0.011 C 
ATOM     27  C   UNL     1      35.934 -23.627 -11.944  0.00  0.00    +0.011 C 
ATOM     28  C   UNL     1      37.201 -23.425 -12.493  0.00  0.00    +0.058 C 
ENDBRANCH  21  23
ENDBRANCH   6  21
TORSDOF 3
ENDMDL
MODEL 9
REMARK VINA RESULT:      -8.5      1.761      2.691
REMARK  Name = 2267
REMARK  3 active torsions:
REMARK  status: ('A' for Active; 'I' for Inactive)
REMARK    1  A    between atoms: N_2  and  C_13
REMARK    2  A    between atoms: C_6  and  C_21
REMARK    3  A    between atoms: C_21  and  C_23
REMARK                            x       y       z     vdW  Elec       q    Type
REMARK                         _______ _______ _______ _____ _____    ______ ____
ROOT
ATOM      1  O   UNL     1      33.144 -22.875 -18.196  0.00  0.00    -0.266 OA
ATOM      2  N   UNL     1      33.026 -23.748 -16.049  0.00  0.00    -0.219 N 
ATOM      3  N   UNL     1      33.633 -24.040 -14.861  0.00  0.00    -0.171 NA
ATOM      4  C   UNL     1      33.678 -23.144 -17.122  0.00  0.00    +0.276 A 
ATOM      5  C   UNL     1      35.103 -22.815 -16.934  0.00  0.00    +0.059 A 
ATOM      6  C   UNL     1      34.885 -23.753 -14.691  0.00  0.00    +0.083 A 
ATOM      7  C   UNL     1      35.718 -23.115 -15.724  0.00  0.00    +0.020 A 
ATOM      8  C   UNL     1      35.834 -22.208 -17.961  0.00  0.00    +0.005 C 
ATOM      9  C   UNL     1      37.068 -22.812 -15.530  0.00  0.00    +0.001 C 
ATOM     10  C   UNL     1      37.182 -21.905 -17.768  0.00  0.00    +0.000 C 
ATOM     11  C   UNL     1      37.797 -22.206 -16.555  0.00  0.00    +0.000 C 
ENDROOT
BRANCH   2  13
ATOM     12  N   UNL     1      28.672 -24.265 -16.546  0.00  0.00    +0.386 N 
ATOM     13  C   UNL     1      31.626 -24.117 -16.121  0.00  0.00    +0.106 C 
ATOM     14  C   UNL     1      31.300 -25.054 -14.954  0.00  0.00    +0.022 C 
ATOM     15  C   UNL     1      30.762 -22.853 -16.089  0.00  0.00    +0.002 C 
ATOM     16  C   UNL     1      29.926 -25.717 -15.009  0.00  0.00    -0.021 C 
ATOM     17  C   UNL     1      29.386 -22.999 -16.748  0.00  0.00    -0.075 C 
ATOM     18  C   UNL     1      28.732 -24.775 -15.176  0.00  0.00    -0.077 C 
ATOM     19  C   UNL     1      27.289 -24.134 -17.007  0.00  0.00    -0.101 C 
ATOM     20  H   UNL     1      29.158 -24.963 -17.108  0.00  0.00    -0.080 HD
ENDBRANCH   2  13
BRANCH   6  21
ATOM     21  C   UNL     1      35.502 -24.101 -13.356  0.00  0.00    +0.074 C 
BRANCH  21  23
ATOM     22 CL   UNL     1      40.772 -26.866 -14.135  0.00  0.00    -0.082 Cl
ATOM     23  C   UNL     1      36.815 -24.791 -13.550  0.00  0.00    -0.016 C 
ATOM     24  C   UNL     1      37.944 -24.334 -12.874  0.00  0.00    -0.003 C 
ATOM     25  C   UNL     1      36.904 -25.886 -14.406  0.00  0.00    -0.003 C 
ATOM     26  C   UNL     1      39.169 -24.976 -13.054  0.00  0.00    +0.011 C 
ATOM     27  C   UNL     1      38.129 -26.528 -14.587  0.00  0.00    +0.011 C 
ATOM     28  C   UNL     1      39.261 -26.074 -13.911  0.00  0.00    +0.058 C 
ENDBRANCH  21  23
ENDBRANCH   6  21
TORSDOF 3
ENDMDL
