MODEL 1
REMARK VINA RESULT:     -11.7      0.000      0.000
REMARK  Name = 446752
REMARK  3 active torsions:
REMARK  status: ('A' for Active; 'I' for Inactive)
REMARK    1  A    between atoms: C_6  and  C_18
REMARK    2  A    between atoms: C_18  and  N_19
REMARK    3  A    between atoms: N_19  and  C_22
REMARK                            x       y       z     vdW  Elec       q    Type
REMARK                         _______ _______ _______ _____ _____    ______ ____
ROOT
ATOM      1  N   UNL     1      33.038 -20.560 -20.889  0.00  0.00    -0.182 NA
ATOM      2  N   UNL     1      32.774 -22.066 -19.150  0.00  0.00    -0.273 NA
ATOM      3  N   UNL     1      34.655 -22.853 -17.870  0.00  0.00    -0.312 NA
ATOM      4  N   UNL     1      36.812 -22.127 -18.335  0.00  0.00    -0.332 N 
ATOM      5  N   UNL     1      32.486 -23.593 -17.391  0.00  0.00    -0.283 N 
ATOM      6  C   UNL     1      35.214 -19.726 -21.478  0.00  0.00    +0.010 C 
ATOM      7  C   UNL     1      35.779 -20.483 -20.478  0.00  0.00    -0.009 C 
ATOM      8  C   UNL     1      34.950 -21.283 -19.678  0.00  0.00    +0.115 C 
ATOM      9  C   UNL     1      33.570 -21.303 -19.909  0.00  0.00    +0.104 C 
ATOM     10  C   UNL     1      33.854 -19.793 -21.651  0.00  0.00    +0.107 C 
ATOM     11  C   UNL     1      37.265 -20.391 -20.313  0.00  0.00    +0.032 C 
ATOM     12  C   UNL     1      35.436 -22.080 -18.644  0.00  0.00    +0.201 C 
ATOM     13  C   UNL     1      33.351 -22.798 -18.174  0.00  0.00    +0.206 C 
ATOM     14  H   UNL     1      37.132 -22.698 -17.599  0.00  0.00    +0.145 HD
ATOM     15  H   UNL     1      37.452 -21.590 -18.857  0.00  0.00    +0.145 HD
ATOM     16  H   UNL     1      31.518 -23.592 -17.571  0.00  0.00    +0.156 HD
ATOM     17  H   UNL     1      32.851 -24.148 -16.665  0.00  0.00    +0.156 HD
ENDROOT
BRANCH   6  18
ATOM     18  C   UNL     1      36.032 -18.842 -22.380  0.00  0.00    +0.097 C 
BRANCH  18  19
ATOM     19  N   UNL     1      35.486 -17.524 -22.416  0.00  0.00    -0.288 NA
ATOM     20  H   UNL     1      35.586 -16.950 -21.622  0.00  0.00    +0.124 HD
BRANCH  19  22
ATOM     21  N   UNL     1      33.236 -13.924 -24.806  0.00  0.00    -0.248 NA
ATOM     22  C   UNL     1      34.807 -17.007 -23.546  0.00  0.00    +0.101 C 
ATOM     23  C   UNL     1      34.356 -15.678 -23.591  0.00  0.00    +0.010 C 
ATOM     24  C   UNL     1      33.682 -15.192 -24.730  0.00  0.00    +0.061 C 
ATOM     25  C   UNL     1      34.596 -17.860 -24.626  0.00  0.00    -0.010 C 
ATOM     26  C   UNL     1      34.556 -14.798 -22.518  0.00  0.00    +0.000 C 
ATOM     27  C   UNL     1      33.483 -16.066 -25.795  0.00  0.00    +0.071 C 
ATOM     28  C   UNL     1      33.933 -17.388 -25.752  0.00  0.00    -0.023 C 
ATOM     29  C   UNL     1      34.098 -13.492 -22.592  0.00  0.00    +0.020 C 
ATOM     30  C   UNL     1      33.450 -13.107 -23.749  0.00  0.00    +0.098 C 
ENDBRANCH  19  22
ENDBRANCH  18  19
ENDBRANCH   6  18
TORSDOF 3
ENDMDL
MODEL 2
REMARK VINA RESULT:     -11.5      1.486      2.242
REMARK  Name = 446752
REMARK  3 active torsions:
REMARK  status: ('A' for Active; 'I' for Inactive)
REMARK    1  A    between atoms: C_6  and  C_18
REMARK    2  A    between atoms: C_18  and  N_19
REMARK    3  A    between atoms: N_19  and  C_22
REMARK                            x       y       z     vdW  Elec       q    Type
REMARK                         _______ _______ _______ _____ _____    ______ ____
ROOT
ATOM      1  N   UNL     1      32.639 -21.779 -19.510  0.00  0.00    -0.182 NA
ATOM      2  N   UNL     1      31.970 -22.984 -17.650  0.00  0.00    -0.273 NA
ATOM      3  N   UNL     1      33.559 -23.766 -16.019  0.00  0.00    -0.312 NA
ATOM      4  N   UNL     1      35.831 -23.339 -16.253  0.00  0.00    -0.332 N 
ATOM      5  N   UNL     1      31.272 -24.204 -15.771  0.00  0.00    -0.283 N 
ATOM      6  C   UNL     1      34.959 -21.265 -19.878  0.00  0.00    +0.010 C 
ATOM      7  C   UNL     1      35.292 -21.923 -18.717  0.00  0.00    -0.009 C 
ATOM      8  C   UNL     1      34.276 -22.512 -17.951  0.00  0.00    +0.115 C 
ATOM      9  C   UNL     1      32.945 -22.424 -18.376  0.00  0.00    +0.104 C 
ATOM     10  C   UNL     1      33.635 -21.216 -20.237  0.00  0.00    +0.107 C 
ATOM     11  C   UNL     1      36.745 -21.961 -18.350  0.00  0.00    +0.032 C 
ATOM     12  C   UNL     1      34.522 -23.197 -16.763  0.00  0.00    +0.201 C 
ATOM     13  C   UNL     1      32.322 -23.623 -16.514  0.00  0.00    +0.206 C 
ATOM     14  H   UNL     1      35.980 -23.828 -15.412  0.00  0.00    +0.145 HD
ATOM     15  H   UNL     1      36.593 -22.952 -16.741  0.00  0.00    +0.145 HD
ATOM     16  H   UNL     1      30.343 -24.130 -16.088  0.00  0.00    +0.156 HD
ATOM     17  H   UNL     1      31.470 -24.684 -14.933  0.00  0.00    +0.156 HD
ENDROOT
BRANCH   6  18
ATOM     18  C   UNL     1      35.988 -20.608 -20.756  0.00  0.00    +0.097 C 
BRANCH  18  19
ATOM     19  N   UNL     1      35.746 -19.205 -20.846  0.00  0.00    -0.288 NA
ATOM     20  H   UNL     1      35.841 -18.656 -20.034  0.00  0.00    +0.124 HD
BRANCH  19  22
ATOM     21  N   UNL     1      34.417 -15.280 -23.409  0.00  0.00    -0.248 NA
ATOM     22  C   UNL     1      35.375 -18.568 -22.056  0.00  0.00    +0.101 C 
ATOM     23  C   UNL     1      35.077 -17.197 -22.106  0.00  0.00    +0.010 C 
ATOM     24  C   UNL     1      34.710 -16.591 -23.326  0.00  0.00    +0.061 C 
ATOM     25  C   UNL     1      35.314 -19.346 -23.209  0.00  0.00    -0.010 C 
ATOM     26  C   UNL     1      35.131 -16.391 -20.960  0.00  0.00    +0.000 C 
ATOM     27  C   UNL     1      34.655 -17.392 -24.463  0.00  0.00    +0.071 C 
ATOM     28  C   UNL     1      34.953 -18.756 -24.414  0.00  0.00    -0.023 C 
ATOM     29  C   UNL     1      34.830 -15.040 -21.042  0.00  0.00    +0.020 C 
ATOM     30  C   UNL     1      34.482 -14.537 -22.279  0.00  0.00    +0.098 C 
ENDBRANCH  19  22
ENDBRANCH  18  19
ENDBRANCH   6  18
TORSDOF 3
ENDMDL
MODEL 3
REMARK VINA RESULT:     -11.4      0.711      2.083
REMARK  Name = 446752
REMARK  3 active torsions:
REMARK  status: ('A' for Active; 'I' for Inactive)
REMARK    1  A    between atoms: C_6  and  C_18
REMARK    2  A    between atoms: C_18  and  N_19
REMARK    3  A    between atoms: N_19  and  C_22
REMARK                            x       y       z     vdW  Elec       q    Type
REMARK                         _______ _______ _______ _____ _____    ______ ____
ROOT
ATOM      1  N   UNL     1      32.682 -20.755 -20.652  0.00  0.00    -0.182 NA
ATOM      2  N   UNL     1      32.642 -22.213 -18.855  0.00  0.00    -0.273 NA
ATOM      3  N   UNL     1      34.663 -22.885 -17.733  0.00  0.00    -0.312 NA
ATOM      4  N   UNL     1      36.737 -22.091 -18.417  0.00  0.00    -0.332 N 
ATOM      5  N   UNL     1      32.580 -23.693 -17.034  0.00  0.00    -0.283 N 
ATOM      6  C   UNL     1      34.758 -19.857 -21.465  0.00  0.00    +0.010 C 
ATOM      7  C   UNL     1      35.443 -20.558 -20.500  0.00  0.00    -0.009 C 
ATOM      8  C   UNL     1      34.726 -21.364 -19.605  0.00  0.00    +0.115 C 
ATOM      9  C   UNL     1      33.332 -21.445 -19.705  0.00  0.00    +0.104 C 
ATOM     10  C   UNL     1      33.393 -19.982 -21.509  0.00  0.00    +0.107 C 
ATOM     11  C   UNL     1      36.934 -20.403 -20.477  0.00  0.00    +0.032 C 
ATOM     12  C   UNL     1      35.337 -22.107 -18.597  0.00  0.00    +0.201 C 
ATOM     13  C   UNL     1      33.336 -22.891 -17.916  0.00  0.00    +0.206 C 
ATOM     14  H   UNL     1      37.147 -22.625 -17.698  0.00  0.00    +0.145 HD
ATOM     15  H   UNL     1      37.303 -21.547 -19.011  0.00  0.00    +0.145 HD
ATOM     16  H   UNL     1      31.601 -23.735 -17.123  0.00  0.00    +0.156 HD
ATOM     17  H   UNL     1      33.033 -24.210 -16.329  0.00  0.00    +0.156 HD
ENDROOT
BRANCH   6  18
ATOM     18  C   UNL     1      35.453 -18.971 -22.463  0.00  0.00    +0.097 C 
BRANCH  18  19
ATOM     19  N   UNL     1      35.813 -17.728 -21.863  0.00  0.00    -0.288 NA
ATOM     20  H   UNL     1      36.573 -17.709 -21.236  0.00  0.00    +0.124 HD
BRANCH  19  22
ATOM     21  N   UNL     1      33.408 -14.718 -24.845  0.00  0.00    -0.248 NA
ATOM     22  C   UNL     1      35.125 -16.520 -22.130  0.00  0.00    +0.101 C 
ATOM     23  C   UNL     1      34.601 -16.235 -23.402  0.00  0.00    +0.010 C 
ATOM     24  C   UNL     1      33.921 -15.023 -23.638  0.00  0.00    +0.061 C 
ATOM     25  C   UNL     1      34.976 -15.610 -21.087  0.00  0.00    -0.010 C 
ATOM     26  C   UNL     1      34.736 -17.134 -24.470  0.00  0.00    +0.000 C 
ATOM     27  C   UNL     1      33.788 -14.130 -22.578  0.00  0.00    +0.071 C 
ATOM     28  C   UNL     1      34.307 -14.414 -21.312  0.00  0.00    -0.023 C 
ATOM     29  C   UNL     1      34.209 -16.824 -25.714  0.00  0.00    +0.020 C 
ATOM     30  C   UNL     1      33.559 -15.613 -25.849  0.00  0.00    +0.098 C 
ENDBRANCH  19  22
ENDBRANCH  18  19
ENDBRANCH   6  18
TORSDOF 3
ENDMDL
MODEL 4
REMARK VINA RESULT:     -11.4      1.245      3.096
REMARK  Name = 446752
REMARK  3 active torsions:
REMARK  status: ('A' for Active; 'I' for Inactive)
REMARK    1  A    between atoms: C_6  and  C_18
REMARK    2  A    between atoms: C_18  and  N_19
REMARK    3  A    between atoms: N_19  and  C_22
REMARK                            x       y       z     vdW  Elec       q    Type
REMARK                         _______ _______ _______ _____ _____    ______ ____
ROOT
ATOM      1  N   UNL     1      36.879 -21.319 -19.172  0.00  0.00    -0.182 NA
ATOM      2  N   UNL     1      36.356 -22.656 -17.356  0.00  0.00    -0.273 NA
ATOM      3  N   UNL     1      34.090 -23.333 -16.903  0.00  0.00    -0.312 NA
ATOM      4  N   UNL     1      32.340 -22.667 -18.277  0.00  0.00    -0.332 N 
ATOM      5  N   UNL     1      35.845 -24.011 -15.509  0.00  0.00    -0.283 N 
ATOM      6  C   UNL     1      35.166 -20.557 -20.676  0.00  0.00    +0.010 C 
ATOM      7  C   UNL     1      34.216 -21.220 -19.936  0.00  0.00    -0.009 C 
ATOM      8  C   UNL     1      34.616 -21.940 -18.801  0.00  0.00    +0.115 C 
ATOM      9  C   UNL     1      35.967 -21.972 -18.438  0.00  0.00    +0.104 C 
ATOM     10  C   UNL     1      36.473 -20.629 -20.266  0.00  0.00    +0.107 C 
ATOM     11  C   UNL     1      32.797 -21.123 -20.408  0.00  0.00    +0.032 C 
ATOM     12  C   UNL     1      33.723 -22.640 -17.994  0.00  0.00    +0.201 C 
ATOM     13  C   UNL     1      35.405 -23.299 -16.646  0.00  0.00    +0.206 C 
ATOM     14  H   UNL     1      31.727 -23.169 -17.692  0.00  0.00    +0.145 HD
ATOM     15  H   UNL     1      31.989 -22.182 -19.059  0.00  0.00    +0.145 HD
ATOM     16  H   UNL     1      36.801 -24.021 -15.273  0.00  0.00    +0.156 HD
ATOM     17  H   UNL     1      35.196 -24.500 -14.953  0.00  0.00    +0.156 HD
ENDROOT
BRANCH   6  18
ATOM     18  C   UNL     1      34.820 -19.762 -21.906  0.00  0.00    +0.097 C 
BRANCH  18  19
ATOM     19  N   UNL     1      35.698 -18.646 -22.044  0.00  0.00    -0.288 NA
ATOM     20  H   UNL     1      36.668 -18.812 -22.103  0.00  0.00    +0.124 HD
BRANCH  19  22
ATOM     21  N   UNL     1      33.821 -14.837 -24.432  0.00  0.00    -0.248 NA
ATOM     22  C   UNL     1      35.235 -17.309 -22.097  0.00  0.00    +0.101 C 
ATOM     23  C   UNL     1      34.747 -16.744 -23.287  0.00  0.00    +0.010 C 
ATOM     24  C   UNL     1      34.293 -15.410 -23.309  0.00  0.00    +0.061 C 
ATOM     25  C   UNL     1      35.273 -16.559 -20.925  0.00  0.00    -0.010 C 
ATOM     26  C   UNL     1      34.697 -17.477 -24.481  0.00  0.00    +0.000 C 
ATOM     27  C   UNL     1      34.344 -14.681 -22.124  0.00  0.00    +0.071 C 
ATOM     28  C   UNL     1      34.827 -15.243 -20.939  0.00  0.00    -0.023 C 
ATOM     29  C   UNL     1      34.211 -16.892 -25.640  0.00  0.00    +0.020 C 
ATOM     30  C   UNL     1      33.788 -15.580 -25.563  0.00  0.00    +0.098 C 
ENDBRANCH  19  22
ENDBRANCH  18  19
ENDBRANCH   6  18
TORSDOF 3
ENDMDL
MODEL 5
REMARK VINA RESULT:     -11.0      1.863      3.462
REMARK  Name = 446752
REMARK  3 active torsions:
REMARK  status: ('A' for Active; 'I' for Inactive)
REMARK    1  A    between atoms: C_6  and  C_18
REMARK    2  A    between atoms: C_18  and  N_19
REMARK    3  A    between atoms: N_19  and  C_22
REMARK                            x       y       z     vdW  Elec       q    Type
REMARK                         _______ _______ _______ _____ _____    ______ ____
ROOT
ATOM      1  N   UNL     1      32.639 -22.336 -18.810  0.00  0.00    -0.182 NA
ATOM      2  N   UNL     1      32.252 -23.422 -16.803  0.00  0.00    -0.273 NA
ATOM      3  N   UNL     1      34.044 -23.917 -15.273  0.00  0.00    -0.312 NA
ATOM      4  N   UNL     1      36.237 -23.322 -15.758  0.00  0.00    -0.332 N 
ATOM      5  N   UNL     1      31.839 -24.525 -14.772  0.00  0.00    -0.283 N 
ATOM      6  C   UNL     1      34.859 -21.662 -19.439  0.00  0.00    +0.010 C 
ATOM      7  C   UNL     1      35.354 -22.183 -18.266  0.00  0.00    -0.009 C 
ATOM      8  C   UNL     1      34.468 -22.785 -17.360  0.00  0.00    +0.115 C 
ATOM      9  C   UNL     1      33.103 -22.848 -17.661  0.00  0.00    +0.104 C 
ATOM     10  C   UNL     1      33.511 -21.758 -19.672  0.00  0.00    +0.107 C 
ATOM     11  C   UNL     1      36.830 -22.064 -18.038  0.00  0.00    +0.032 C 
ATOM     12  C   UNL     1      34.881 -23.337 -16.150  0.00  0.00    +0.201 C 
ATOM     13  C   UNL     1      32.761 -23.925 -15.658  0.00  0.00    +0.206 C 
ATOM     14  H   UNL     1      36.505 -23.718 -14.898  0.00  0.00    +0.145 HD
ATOM     15  H   UNL     1      36.914 -22.915 -16.346  0.00  0.00    +0.145 HD
ATOM     16  H   UNL     1      30.883 -24.559 -15.004  0.00  0.00    +0.156 HD
ATOM     17  H   UNL     1      32.154 -24.909 -13.921  0.00  0.00    +0.156 HD
ENDROOT
BRANCH   6  18
ATOM     18  C   UNL     1      35.742 -21.001 -20.462  0.00  0.00    +0.097 C 
BRANCH  18  19
ATOM     19  N   UNL     1      34.957 -20.458 -21.523  0.00  0.00    -0.288 NA
ATOM     20  H   UNL     1      34.335 -21.052 -22.003  0.00  0.00    +0.124 HD
BRANCH  19  22
ATOM     21  N   UNL     1      34.539 -16.905 -24.830  0.00  0.00    -0.248 NA
ATOM     22  C   UNL     1      35.035 -19.099 -21.915  0.00  0.00    +0.101 C 
ATOM     23  C   UNL     1      34.733 -18.691 -23.224  0.00  0.00    +0.010 C 
ATOM     24  C   UNL     1      34.820 -17.330 -23.584  0.00  0.00    +0.061 C 
ATOM     25  C   UNL     1      35.421 -18.166 -20.957  0.00  0.00    -0.010 C 
ATOM     26  C   UNL     1      34.341 -19.609 -24.208  0.00  0.00    +0.000 C 
ATOM     27  C   UNL     1      35.210 -16.418 -22.608  0.00  0.00    +0.071 C 
ATOM     28  C   UNL     1      35.509 -16.824 -21.304  0.00  0.00    -0.023 C 
ATOM     29  C   UNL     1      34.050 -19.175 -25.492  0.00  0.00    +0.020 C 
ATOM     30  C   UNL     1      34.163 -17.824 -25.750  0.00  0.00    +0.098 C 
ENDBRANCH  19  22
ENDBRANCH  18  19
ENDBRANCH   6  18
TORSDOF 3
ENDMDL
MODEL 6
REMARK VINA RESULT:     -10.9      1.343      8.100
REMARK  Name = 446752
REMARK  3 active torsions:
REMARK  status: ('A' for Active; 'I' for Inactive)
REMARK    1  A    between atoms: C_6  and  C_18
REMARK    2  A    between atoms: C_18  and  N_19
REMARK    3  A    between atoms: N_19  and  C_22
REMARK                            x       y       z     vdW  Elec       q    Type
REMARK                         _______ _______ _______ _____ _____    ______ ____
ROOT
ATOM      1  N   UNL     1      35.142 -15.467 -21.817  0.00  0.00    -0.182 NA
ATOM      2  N   UNL     1      34.203 -13.572 -22.759  0.00  0.00    -0.273 NA
ATOM      3  N   UNL     1      33.229 -13.611 -24.960  0.00  0.00    -0.312 NA
ATOM      4  N   UNL     1      33.196 -15.560 -26.225  0.00  0.00    -0.332 N 
ATOM      5  N   UNL     1      33.256 -11.640 -23.697  0.00  0.00    -0.283 N 
ATOM      6  C   UNL     1      35.176 -17.551 -23.014  0.00  0.00    +0.010 C 
ATOM      7  C   UNL     1      34.539 -16.956 -24.078  0.00  0.00    -0.009 C 
ATOM      8  C   UNL     1      34.203 -15.597 -23.996  0.00  0.00    +0.115 C 
ATOM      9  C   UNL     1      34.520 -14.870 -22.843  0.00  0.00    +0.104 C 
ATOM     10  C   UNL     1      35.459 -16.781 -21.915  0.00  0.00    +0.107 C 
ATOM     11  C   UNL     1      34.244 -17.821 -25.265  0.00  0.00    +0.032 C 
ATOM     12  C   UNL     1      33.556 -14.913 -25.023  0.00  0.00    +0.201 C 
ATOM     13  C   UNL     1      33.576 -13.010 -23.815  0.00  0.00    +0.206 C 
ATOM     14  H   UNL     1      32.740 -15.056 -26.938  0.00  0.00    +0.145 HD
ATOM     15  H   UNL     1      33.403 -16.514 -26.351  0.00  0.00    +0.145 HD
ATOM     16  H   UNL     1      33.488 -11.148 -22.876  0.00  0.00    +0.156 HD
ATOM     17  H   UNL     1      32.798 -11.177 -24.436  0.00  0.00    +0.156 HD
ENDROOT
BRANCH   6  18
ATOM     18  C   UNL     1      35.572 -19.003 -23.022  0.00  0.00    +0.097 C 
BRANCH  18  19
ATOM     19  N   UNL     1      35.811 -19.463 -21.693  0.00  0.00    -0.288 NA
ATOM     20  H   UNL     1      36.676 -19.256 -21.270  0.00  0.00    +0.124 HD
BRANCH  19  22
ATOM     21  N   UNL     1      34.582 -22.553 -18.132  0.00  0.00    -0.248 NA
ATOM     22  C   UNL     1      34.856 -20.205 -20.956  0.00  0.00    +0.101 C 
ATOM     23  C   UNL     1      35.231 -21.028 -19.881  0.00  0.00    +0.010 C 
ATOM     24  C   UNL     1      34.257 -21.755 -19.166  0.00  0.00    +0.061 C 
ATOM     25  C   UNL     1      33.519 -20.096 -21.327  0.00  0.00    -0.010 C 
ATOM     26  C   UNL     1      36.570 -21.155 -19.486  0.00  0.00    +0.000 C 
ATOM     27  C   UNL     1      32.927 -21.629 -19.559  0.00  0.00    +0.071 C 
ATOM     28  C   UNL     1      32.554 -20.809 -20.627  0.00  0.00    -0.023 C 
ATOM     29  C   UNL     1      36.908 -21.976 -18.421  0.00  0.00    +0.020 C 
ATOM     30  C   UNL     1      35.886 -22.648 -17.783  0.00  0.00    +0.098 C 
ENDBRANCH  19  22
ENDBRANCH  18  19
ENDBRANCH   6  18
TORSDOF 3
ENDMDL
MODEL 7
REMARK VINA RESULT:     -10.9      1.448      2.759
REMARK  Name = 446752
REMARK  3 active torsions:
REMARK  status: ('A' for Active; 'I' for Inactive)
REMARK    1  A    between atoms: C_6  and  C_18
REMARK    2  A    between atoms: C_18  and  N_19
REMARK    3  A    between atoms: N_19  and  C_22
REMARK                            x       y       z     vdW  Elec       q    Type
REMARK                         _______ _______ _______ _____ _____    ______ ____
ROOT
ATOM      1  N   UNL     1      36.994 -21.428 -18.906  0.00  0.00    -0.182 NA
ATOM      2  N   UNL     1      36.763 -22.720 -16.999  0.00  0.00    -0.273 NA
ATOM      3  N   UNL     1      34.630 -23.626 -16.343  0.00  0.00    -0.312 NA
ATOM      4  N   UNL     1      32.720 -23.234 -17.606  0.00  0.00    -0.332 N 
ATOM      5  N   UNL     1      36.548 -24.027 -15.061  0.00  0.00    -0.283 N 
ATOM      6  C   UNL     1      35.101 -20.944 -20.305  0.00  0.00    +0.010 C 
ATOM      7  C   UNL     1      34.290 -21.672 -19.465  0.00  0.00    -0.009 C 
ATOM      8  C   UNL     1      34.852 -22.282 -18.334  0.00  0.00    +0.115 C 
ATOM      9  C   UNL     1      36.220 -22.141 -18.076  0.00  0.00    +0.104 C 
ATOM     10  C   UNL     1      36.433 -20.846 -19.993  0.00  0.00    +0.107 C 
ATOM     11  C   UNL     1      32.839 -21.761 -19.830  0.00  0.00    +0.032 C 
ATOM     12  C   UNL     1      34.107 -23.036 -17.431  0.00  0.00    +0.201 C 
ATOM     13  C   UNL     1      35.947 -23.430 -16.190  0.00  0.00    +0.206 C 
ATOM     14  H   UNL     1      32.213 -23.772 -16.954  0.00  0.00    +0.145 HD
ATOM     15  H   UNL     1      32.259 -22.834 -18.378  0.00  0.00    +0.145 HD
ATOM     16  H   UNL     1      37.512 -23.916 -14.899  0.00  0.00    +0.156 HD
ATOM     17  H   UNL     1      36.001 -24.557 -14.436  0.00  0.00    +0.156 HD
ENDROOT
BRANCH   6  18
ATOM     18  C   UNL     1      34.577 -20.259 -21.537  0.00  0.00    +0.097 C 
BRANCH  18  19
ATOM     19  N   UNL     1      35.401 -19.146 -21.879  0.00  0.00    -0.288 NA
ATOM     20  H   UNL     1      36.251 -19.022 -21.396  0.00  0.00    +0.124 HD
BRANCH  19  22
ATOM     21  N   UNL     1      34.347 -14.630 -23.372  0.00  0.00    -0.248 NA
ATOM     22  C   UNL     1      35.049 -18.212 -22.883  0.00  0.00    +0.101 C 
ATOM     23  C   UNL     1      34.874 -16.848 -22.594  0.00  0.00    +0.010 C 
ATOM     24  C   UNL     1      34.523 -15.942 -23.615  0.00  0.00    +0.061 C 
ATOM     25  C   UNL     1      34.880 -18.684 -24.182  0.00  0.00    -0.010 C 
ATOM     26  C   UNL     1      35.039 -16.346 -21.295  0.00  0.00    +0.000 C 
ATOM     27  C   UNL     1      34.358 -16.441 -24.904  0.00  0.00    +0.071 C 
ATOM     28  C   UNL     1      34.534 -17.797 -25.193  0.00  0.00    -0.023 C 
ATOM     29  C   UNL     1      34.858 -14.995 -21.041  0.00  0.00    +0.020 C 
ATOM     30  C   UNL     1      34.516 -14.186 -22.105  0.00  0.00    +0.098 C 
ENDBRANCH  19  22
ENDBRANCH  18  19
ENDBRANCH   6  18
TORSDOF 3
ENDMDL
MODEL 8
REMARK VINA RESULT:     -10.7      3.611      6.594
REMARK  Name = 446752
REMARK  3 active torsions:
REMARK  status: ('A' for Active; 'I' for Inactive)
REMARK    1  A    between atoms: C_6  and  C_18
REMARK    2  A    between atoms: C_18  and  N_19
REMARK    3  A    between atoms: N_19  and  C_22
REMARK                            x       y       z     vdW  Elec       q    Type
REMARK                         _______ _______ _______ _____ _____    ______ ____
ROOT
ATOM      1  N   UNL     1      37.413 -22.786 -15.594  0.00  0.00    -0.182 NA
ATOM      2  N   UNL     1      37.909 -23.404 -13.419  0.00  0.00    -0.273 NA
ATOM      3  N   UNL     1      36.255 -24.410 -11.988  0.00  0.00    -0.312 NA
ATOM      4  N   UNL     1      34.091 -24.797 -12.741  0.00  0.00    -0.332 N 
ATOM      5  N   UNL     1      38.431 -24.025 -11.216  0.00  0.00    -0.283 N 
ATOM      6  C   UNL     1      35.215 -23.129 -16.502  0.00  0.00    +0.010 C 
ATOM      7  C   UNL     1      34.802 -23.674 -15.309  0.00  0.00    -0.009 C 
ATOM      8  C   UNL     1      35.718 -23.772 -14.252  0.00  0.00    +0.115 C 
ATOM      9  C   UNL     1      37.030 -23.315 -14.424  0.00  0.00    +0.104 C 
ATOM     10  C   UNL     1      36.514 -22.699 -16.604  0.00  0.00    +0.107 C 
ATOM     11  C   UNL     1      33.378 -24.134 -15.227  0.00  0.00    +0.032 C 
ATOM     12  C   UNL     1      35.389 -24.311 -13.010  0.00  0.00    +0.201 C 
ATOM     13  C   UNL     1      37.481 -23.944 -12.258  0.00  0.00    +0.206 C 
ATOM     14  H   UNL     1      33.881 -25.174 -11.855  0.00  0.00    +0.145 HD
ATOM     15  H   UNL     1      33.397 -24.759 -13.438  0.00  0.00    +0.145 HD
ATOM     16  H   UNL     1      39.348 -23.697 -11.359  0.00  0.00    +0.156 HD
ATOM     17  H   UNL     1      38.175 -24.409 -10.346  0.00  0.00    +0.156 HD
ENDROOT
BRANCH   6  18
ATOM     18  C   UNL     1      34.294 -22.987 -17.684  0.00  0.00    +0.097 C 
BRANCH  18  19
ATOM     19  N   UNL     1      35.011 -22.505 -18.820  0.00  0.00    -0.288 NA
ATOM     20  H   UNL     1      35.917 -22.853 -18.990  0.00  0.00    +0.124 HD
BRANCH  19  22
ATOM     21  N   UNL     1      35.480 -18.777 -21.921  0.00  0.00    -0.248 NA
ATOM     22  C   UNL     1      34.473 -21.548 -19.715  0.00  0.00    +0.101 C 
ATOM     23  C   UNL     1      35.291 -20.621 -20.382  0.00  0.00    +0.010 C 
ATOM     24  C   UNL     1      34.726 -19.679 -21.267  0.00  0.00    +0.061 C 
ATOM     25  C   UNL     1      33.096 -21.550 -19.921  0.00  0.00    -0.010 C 
ATOM     26  C   UNL     1      36.679 -20.598 -20.193  0.00  0.00    +0.000 C 
ATOM     27  C   UNL     1      33.347 -19.702 -21.453  0.00  0.00    +0.071 C 
ATOM     28  C   UNL     1      32.533 -20.625 -20.791  0.00  0.00    -0.023 C 
ATOM     29  C   UNL     1      37.460 -19.670 -20.866  0.00  0.00    +0.020 C 
ATOM     30  C   UNL     1      36.817 -18.788 -21.712  0.00  0.00    +0.098 C 
ENDBRANCH  19  22
ENDBRANCH  18  19
ENDBRANCH   6  18
TORSDOF 3
ENDMDL
MODEL 9
REMARK VINA RESULT:     -10.7      2.770      5.809
REMARK  Name = 446752
REMARK  3 active torsions:
REMARK  status: ('A' for Active; 'I' for Inactive)
REMARK    1  A    between atoms: C_6  and  C_18
REMARK    2  A    between atoms: C_18  and  N_19
REMARK    3  A    between atoms: N_19  and  C_22
REMARK                            x       y       z     vdW  Elec       q    Type
REMARK                         _______ _______ _______ _____ _____    ______ ____
ROOT
ATOM      1  N   UNL     1      35.070 -15.649 -21.441  0.00  0.00    -0.182 NA
ATOM      2  N   UNL     1      35.679 -17.816 -20.903  0.00  0.00    -0.273 NA
ATOM      3  N   UNL     1      35.502 -19.607 -22.502  0.00  0.00    -0.312 NA
ATOM      4  N   UNL     1      34.709 -19.224 -24.652  0.00  0.00    -0.332 N 
ATOM      5  N   UNL     1      36.301 -20.008 -20.338  0.00  0.00    -0.283 N 
ATOM      6  C   UNL     1      34.235 -15.110 -23.629  0.00  0.00    +0.010 C 
ATOM      7  C   UNL     1      34.369 -16.425 -24.008  0.00  0.00    -0.009 C 
ATOM      8  C   UNL     1      34.862 -17.355 -23.082  0.00  0.00    +0.115 C 
ATOM      9  C   UNL     1      35.208 -16.935 -21.792  0.00  0.00    +0.104 C 
ATOM     10  C   UNL     1      34.591 -14.765 -22.350  0.00  0.00    +0.107 C 
ATOM     11  C   UNL     1      33.971 -16.772 -25.411  0.00  0.00    +0.032 C 
ATOM     12  C   UNL     1      35.031 -18.705 -23.379  0.00  0.00    +0.201 C 
ATOM     13  C   UNL     1      35.802 -19.101 -21.299  0.00  0.00    +0.206 C 
ATOM     14  H   UNL     1      34.837 -20.182 -24.840  0.00  0.00    +0.145 HD
ATOM     15  H   UNL     1      34.357 -18.627 -25.352  0.00  0.00    +0.145 HD
ATOM     16  H   UNL     1      36.538 -19.691 -19.437  0.00  0.00    +0.156 HD
ATOM     17  H   UNL     1      36.411 -20.959 -20.571  0.00  0.00    +0.156 HD
ENDROOT
BRANCH   6  18
ATOM     18  C   UNL     1      33.713 -14.051 -24.562  0.00  0.00    +0.097 C 
BRANCH  18  19
ATOM     19  N   UNL     1      33.063 -13.014 -23.828  0.00  0.00    -0.288 NA
ATOM     20  H   UNL     1      32.274 -13.244 -23.284  0.00  0.00    +0.124 HD
BRANCH  19  22
ATOM     21  N   UNL     1      32.929  -8.418 -22.216  0.00  0.00    -0.248 NA
ATOM     22  C   UNL     1      33.505 -11.669 -23.849  0.00  0.00    +0.101 C 
ATOM     23  C   UNL     1      32.965 -10.702 -22.985  0.00  0.00    +0.010 C 
ATOM     24  C   UNL     1      33.425  -9.370 -23.029  0.00  0.00    +0.061 C 
ATOM     25  C   UNL     1      34.501 -11.325 -24.758  0.00  0.00    -0.010 C 
ATOM     26  C   UNL     1      31.961 -11.022 -22.060  0.00  0.00    +0.000 C 
ATOM     27  C   UNL     1      34.421  -9.052 -23.948  0.00  0.00    +0.071 C 
ATOM     28  C   UNL     1      34.960 -10.014 -24.807  0.00  0.00    -0.023 C 
ATOM     29  C   UNL     1      31.448 -10.045 -21.221  0.00  0.00    +0.020 C 
ATOM     30  C   UNL     1      31.962  -8.769 -21.337  0.00  0.00    +0.098 C 
ENDBRANCH  19  22
ENDBRANCH  18  19
ENDBRANCH   6  18
TORSDOF 3
ENDMDL
