MODEL 1
REMARK VINA RESULT:     -11.4      0.000      0.000
REMARK  Name = 9804992
REMARK  10 active torsions:
REMARK  status: ('A' for Active; 'I' for Inactive)
REMARK    1  A    between atoms: C_1  and  C_9
REMARK    2  A    between atoms: C_1  and  O_19
REMARK    3  A    between atoms: C_2  and  C_12
REMARK    4  A    between atoms: C_12  and  N_13
REMARK    5  A    between atoms: N_13  and  C_15
REMARK    6  A    between atoms: N_13  and  C_17
REMARK    7  A    between atoms: O_19  and  C_22
REMARK    8  A    between atoms: N_21  and  C_24
REMARK    9  A    between atoms: C_27  and  C_32
REMARK   10  A    between atoms: N_31  and  O_34
REMARK                            x       y       z     vdW  Elec       q    Type
REMARK                         _______ _______ _______ _____ _____    ______ ____
ROOT
ATOM      1  C   UNL     1      36.820 -21.494 -20.060  0.00  0.00    +0.237 C 
ENDROOT
BRANCH   1   9
ATOM      2  C   UNL     1      32.293 -23.529 -15.836  0.00  0.00    -0.043 C 
ATOM      3  C   UNL     1      33.305 -22.601 -17.843  0.00  0.00    -0.000 C 
ATOM      4  C   UNL     1      34.588 -22.807 -17.283  0.00  0.00    -0.000 C 
ATOM      5  C   UNL     1      32.167 -22.967 -17.107  0.00  0.00    -0.006 C 
ATOM      6  C   UNL     1      33.554 -23.732 -15.286  0.00  0.00    -0.006 C 
ATOM      7  C   UNL     1      34.695 -23.374 -16.003  0.00  0.00    -0.000 C 
ATOM      8  C   UNL     1      35.726 -22.440 -18.020  0.00  0.00    -0.001 C 
ATOM      9  C   UNL     1      35.601 -21.877 -19.291  0.00  0.00    +0.021 C 
ATOM     10  C   UNL     1      33.197 -22.033 -19.124  0.00  0.00    -0.000 C 
ATOM     11  C   UNL     1      34.339 -21.675 -19.842  0.00  0.00    -0.001 C 
BRANCH   2  12
ATOM     12  C   UNL     1      31.073 -23.912 -15.067  0.00  0.00    -0.050 C 
BRANCH  12  13
ATOM     13  N   UNL     1      29.849 -23.774 -15.858  0.00  0.00    +0.390 N 
ATOM     14  H   UNL     1      30.105 -23.504 -16.807  0.00  0.00    -0.079 HD
BRANCH  13  15
ATOM     15  C   UNL     1      29.135 -25.049 -15.917  0.00  0.00    -0.077 C 
ATOM     16  C   UNL     1      29.539 -25.959 -14.770  0.00  0.00    -0.025 C 
ENDBRANCH  13  15
BRANCH  13  17
ATOM     17  C   UNL     1      28.993 -22.733 -15.294  0.00  0.00    -0.077 C 
ATOM     18  C   UNL     1      27.621 -22.738 -15.946  0.00  0.00    -0.025 C 
ENDBRANCH  13  17
ENDBRANCH  12  13
ENDBRANCH   2  12
ENDBRANCH   1   9
BRANCH   1  19
ATOM     19  O   UNL     1      37.106 -20.119 -19.836  0.00  0.00    -0.429 OA
BRANCH  19  22
ATOM     20  O   UNL     1      38.079 -18.885 -21.498  0.00  0.00    -0.226 OA
ATOM     21  N   UNL     1      35.755 -19.051 -21.275  0.00  0.00    -0.250 N 
ATOM     22  C   UNL     1      37.071 -19.300 -20.938  0.00  0.00    +0.406 C 
ATOM     23  H   UNL     1      35.075 -19.477 -20.702  0.00  0.00    +0.158 HD
BRANCH  21  24
ATOM     24  C   UNL     1      35.262 -18.262 -22.339  0.00  0.00    +0.053 C 
ATOM     25  C   UNL     1      35.321 -16.870 -22.259  0.00  0.00    +0.015 C 
ATOM     26  C   UNL     1      34.717 -18.874 -23.467  0.00  0.00    +0.015 C 
ATOM     27  C   UNL     1      34.288 -16.703 -24.437  0.00  0.00    +0.055 C 
ATOM     28  C   UNL     1      34.834 -16.090 -23.308  0.00  0.00    +0.006 C 
ATOM     29  C   UNL     1      34.229 -18.094 -24.516  0.00  0.00    +0.006 C 
BRANCH  27  32
ATOM     30  O   UNL     1      33.623 -16.376 -26.666  0.00  0.00    -0.268 OA
ATOM     31  N   UNL     1      33.494 -14.561 -25.252  0.00  0.00    -0.193 N 
ATOM     32  C   UNL     1      33.780 -15.890 -25.530  0.00  0.00    +0.268 C 
ATOM     33  H   UNL     1      33.621 -14.185 -24.350  0.00  0.00    +0.183 HD
BRANCH  31  34
ATOM     34  O   UNL     1      33.017 -13.779 -26.313  0.00  0.00    -0.295 OA
ATOM     35  H   UNL     1      33.325 -14.152 -27.154  0.00  0.00    +0.241 HD
ENDBRANCH  31  34
ENDBRANCH  27  32
ENDBRANCH  21  24
ENDBRANCH  19  22
ENDBRANCH   1  19
TORSDOF 10
ENDMDL
MODEL 2
REMARK VINA RESULT:     -11.3      2.997      4.354
REMARK  Name = 9804992
REMARK  10 active torsions:
REMARK  status: ('A' for Active; 'I' for Inactive)
REMARK    1  A    between atoms: C_1  and  C_9
REMARK    2  A    between atoms: C_1  and  O_19
REMARK    3  A    between atoms: C_2  and  C_12
REMARK    4  A    between atoms: C_12  and  N_13
REMARK    5  A    between atoms: N_13  and  C_15
REMARK    6  A    between atoms: N_13  and  C_17
REMARK    7  A    between atoms: O_19  and  C_22
REMARK    8  A    between atoms: N_21  and  C_24
REMARK    9  A    between atoms: C_27  and  C_32
REMARK   10  A    between atoms: N_31  and  O_34
REMARK                            x       y       z     vdW  Elec       q    Type
REMARK                         _______ _______ _______ _____ _____    ______ ____
ROOT
ATOM      1  C   UNL     1      35.712 -20.989 -20.400  0.00  0.00    +0.237 C 
ENDROOT
BRANCH   1   9
ATOM      2  C   UNL     1      36.035 -23.918 -14.586  0.00  0.00    -0.043 C 
ATOM      3  C   UNL     1      35.154 -23.131 -16.713  0.00  0.00    -0.000 C 
ATOM      4  C   UNL     1      36.399 -22.520 -16.994  0.00  0.00    -0.000 C 
ATOM      5  C   UNL     1      34.989 -23.827 -15.504  0.00  0.00    -0.006 C 
ATOM      6  C   UNL     1      37.259 -23.317 -14.864  0.00  0.00    -0.006 C 
ATOM      7  C   UNL     1      37.442 -22.622 -16.059  0.00  0.00    -0.000 C 
ATOM      8  C   UNL     1      36.565 -21.825 -18.203  0.00  0.00    -0.001 C 
ATOM      9  C   UNL     1      35.518 -21.733 -19.122  0.00  0.00    +0.021 C 
ATOM     10  C   UNL     1      34.112 -23.029 -17.648  0.00  0.00    -0.000 C 
ATOM     11  C   UNL     1      34.294 -22.334 -18.845  0.00  0.00    -0.001 C 
BRANCH   2  12
ATOM     12  C   UNL     1      35.842 -24.660 -13.307  0.00  0.00    -0.050 C 
BRANCH  12  13
ATOM     13  N   UNL     1      37.101 -24.886 -12.598  0.00  0.00    +0.390 N 
ATOM     14  H   UNL     1      37.860 -24.484 -13.147  0.00  0.00    -0.079 HD
BRANCH  13  15
ATOM     15  C   UNL     1      37.077 -24.226 -11.293  0.00  0.00    -0.077 C 
ATOM     16  C   UNL     1      35.786 -24.524 -10.551  0.00  0.00    -0.025 C 
ENDBRANCH  13  15
BRANCH  13  17
ATOM     17  C   UNL     1      37.350 -26.318 -12.443  0.00  0.00    -0.077 C 
ATOM     18  C   UNL     1      37.360 -27.023 -13.789  0.00  0.00    -0.025 C 
ENDBRANCH  13  17
ENDBRANCH  12  13
ENDBRANCH   2  12
ENDBRANCH   1   9
BRANCH   1  19
ATOM     19  O   UNL     1      36.861 -20.159 -20.295  0.00  0.00    -0.429 OA
BRANCH  19  22
ATOM     20  O   UNL     1      37.884 -18.702 -21.730  0.00  0.00    -0.226 OA
ATOM     21  N   UNL     1      35.653 -18.435 -21.072  0.00  0.00    -0.250 N 
ATOM     22  C   UNL     1      36.890 -19.048 -21.102  0.00  0.00    +0.406 C 
ATOM     23  H   UNL     1      34.972 -18.866 -20.505  0.00  0.00    +0.158 HD
BRANCH  21  24
ATOM     24  C   UNL     1      35.243 -17.268 -21.755  0.00  0.00    +0.053 C 
ATOM     25  C   UNL     1      35.100 -17.286 -23.143  0.00  0.00    +0.015 C 
ATOM     26  C   UNL     1      34.981 -16.098 -21.041  0.00  0.00    +0.015 C 
ATOM     27  C   UNL     1      34.435 -14.963 -23.103  0.00  0.00    +0.055 C 
ATOM     28  C   UNL     1      34.697 -16.133 -23.817  0.00  0.00    +0.006 C 
ATOM     29  C   UNL     1      34.578 -14.946 -21.715  0.00  0.00    +0.006 C 
BRANCH  27  32
ATOM     30  O   UNL     1      33.419 -13.838 -24.896  0.00  0.00    -0.268 OA
ATOM     31  N   UNL     1      34.318 -12.543 -23.216  0.00  0.00    -0.193 N 
ATOM     32  C   UNL     1      34.015 -13.762 -23.806  0.00  0.00    +0.268 C 
ATOM     33  H   UNL     1      34.790 -12.492 -22.352  0.00  0.00    +0.183 HD
BRANCH  31  34
ATOM     34  O   UNL     1      33.921 -11.389 -23.905  0.00  0.00    -0.295 OA
ATOM     35  H   UNL     1      33.029 -11.133 -23.623  0.00  0.00    +0.241 HD
ENDBRANCH  31  34
ENDBRANCH  27  32
ENDBRANCH  21  24
ENDBRANCH  19  22
ENDBRANCH   1  19
TORSDOF 10
ENDMDL
MODEL 3
REMARK VINA RESULT:     -10.9      6.287      9.766
REMARK  Name = 9804992
REMARK  10 active torsions:
REMARK  status: ('A' for Active; 'I' for Inactive)
REMARK    1  A    between atoms: C_1  and  C_9
REMARK    2  A    between atoms: C_1  and  O_19
REMARK    3  A    between atoms: C_2  and  C_12
REMARK    4  A    between atoms: C_12  and  N_13
REMARK    5  A    between atoms: N_13  and  C_15
REMARK    6  A    between atoms: N_13  and  C_17
REMARK    7  A    between atoms: O_19  and  C_22
REMARK    8  A    between atoms: N_21  and  C_24
REMARK    9  A    between atoms: C_27  and  C_32
REMARK   10  A    between atoms: N_31  and  O_34
REMARK                            x       y       z     vdW  Elec       q    Type
REMARK                         _______ _______ _______ _____ _____    ______ ____
ROOT
ATOM      1  C   UNL     1      33.452 -12.950 -23.809  0.00  0.00    +0.237 C 
ENDROOT
BRANCH   1   9
ATOM      2  C   UNL     1      35.952 -18.581 -21.682  0.00  0.00    -0.043 C 
ATOM      3  C   UNL     1      35.025 -16.333 -21.668  0.00  0.00    -0.000 C 
ATOM      4  C   UNL     1      34.924 -16.373 -23.080  0.00  0.00    -0.000 C 
ATOM      5  C   UNL     1      35.541 -17.445 -20.985  0.00  0.00    -0.006 C 
ATOM      6  C   UNL     1      35.852 -18.621 -23.070  0.00  0.00    -0.006 C 
ATOM      7  C   UNL     1      35.342 -17.525 -23.765  0.00  0.00    -0.000 C 
ATOM      8  C   UNL     1      34.408 -15.260 -23.763  0.00  0.00    -0.001 C 
ATOM      9  C   UNL     1      33.997 -14.123 -23.066  0.00  0.00    +0.021 C 
ATOM     10  C   UNL     1      34.607 -15.180 -20.983  0.00  0.00    -0.000 C 
ATOM     11  C   UNL     1      34.096 -14.083 -21.678  0.00  0.00    -0.001 C 
BRANCH   2  12
ATOM     12  C   UNL     1      36.498 -19.754 -20.940  0.00  0.00    -0.050 C 
BRANCH  12  13
ATOM     13  N   UNL     1      35.463 -20.478 -20.201  0.00  0.00    +0.390 N 
ATOM     14  H   UNL     1      35.275 -19.978 -19.332  0.00  0.00    -0.079 HD
BRANCH  13  15
ATOM     15  C   UNL     1      34.226 -20.531 -20.979  0.00  0.00    -0.077 C 
ATOM     16  C   UNL     1      33.045 -20.921 -20.107  0.00  0.00    -0.025 C 
ENDBRANCH  13  15
BRANCH  13  17
ATOM     17  C   UNL     1      35.920 -21.826 -19.871  0.00  0.00    -0.077 C 
ATOM     18  C   UNL     1      36.159 -21.975 -18.378  0.00  0.00    -0.025 C 
ENDBRANCH  13  17
ENDBRANCH  12  13
ENDBRANCH   2  12
ENDBRANCH   1   9
BRANCH   1  19
ATOM     19  O   UNL     1      32.981 -11.980 -22.881  0.00  0.00    -0.429 OA
BRANCH  19  22
ATOM     20  O   UNL     1      33.930 -10.274 -24.072  0.00  0.00    -0.226 OA
ATOM     21  N   UNL     1      32.163  -9.912 -22.579  0.00  0.00    -0.250 N 
ATOM     22  C   UNL     1      33.102 -10.665 -23.257  0.00  0.00    +0.406 C 
ATOM     23  H   UNL     1      31.579 -10.408 -21.960  0.00  0.00    +0.158 HD
BRANCH  21  24
ATOM     24  C   UNL     1      31.937  -8.520 -22.665  0.00  0.00    +0.053 C 
ATOM     25  C   UNL     1      32.274  -7.692 -21.593  0.00  0.00    +0.015 C 
ATOM     26  C   UNL     1      31.375  -7.974 -23.819  0.00  0.00    +0.015 C 
ATOM     27  C   UNL     1      31.488  -5.771 -22.831  0.00  0.00    +0.055 C 
ATOM     28  C   UNL     1      32.050  -6.318 -21.676  0.00  0.00    +0.006 C 
ATOM     29  C   UNL     1      31.151  -6.599 -23.902  0.00  0.00    +0.006 C 
BRANCH  27  32
ATOM     30  O   UNL     1      31.875  -3.640 -23.739  0.00  0.00    -0.268 OA
ATOM     31  N   UNL     1      30.325  -3.795 -22.042  0.00  0.00    -0.193 N 
ATOM     32  C   UNL     1      31.254  -4.339 -22.917  0.00  0.00    +0.268 C 
ATOM     33  H   UNL     1      29.837  -4.356 -21.395  0.00  0.00    +0.183 HD
BRANCH  31  34
ATOM     34  O   UNL     1      30.113  -2.412 -22.121  0.00  0.00    -0.295 OA
ATOM     35  H   UNL     1      30.124  -2.135 -23.050  0.00  0.00    +0.241 HD
ENDBRANCH  31  34
ENDBRANCH  27  32
ENDBRANCH  21  24
ENDBRANCH  19  22
ENDBRANCH   1  19
TORSDOF 10
ENDMDL
MODEL 4
REMARK VINA RESULT:     -10.8      3.800     11.131
REMARK  Name = 9804992
REMARK  10 active torsions:
REMARK  status: ('A' for Active; 'I' for Inactive)
REMARK    1  A    between atoms: C_1  and  C_9
REMARK    2  A    between atoms: C_1  and  O_19
REMARK    3  A    between atoms: C_2  and  C_12
REMARK    4  A    between atoms: C_12  and  N_13
REMARK    5  A    between atoms: N_13  and  C_15
REMARK    6  A    between atoms: N_13  and  C_17
REMARK    7  A    between atoms: O_19  and  C_22
REMARK    8  A    between atoms: N_21  and  C_24
REMARK    9  A    between atoms: C_27  and  C_32
REMARK   10  A    between atoms: N_31  and  O_34
REMARK                            x       y       z     vdW  Elec       q    Type
REMARK                         _______ _______ _______ _____ _____    ______ ____
ROOT
ATOM      1  C   UNL     1      34.950 -18.591 -23.799  0.00  0.00    +0.237 C 
ENDROOT
BRANCH   1   9
ATOM      2  C   UNL     1      33.467 -12.250 -24.080  0.00  0.00    -0.043 C 
ATOM      3  C   UNL     1      33.749 -14.571 -24.748  0.00  0.00    -0.000 C 
ATOM      4  C   UNL     1      34.250 -14.875 -23.460  0.00  0.00    -0.000 C 
ATOM      5  C   UNL     1      33.362 -13.254 -25.042  0.00  0.00    -0.006 C 
ATOM      6  C   UNL     1      33.958 -12.548 -22.812  0.00  0.00    -0.006 C 
ATOM      7  C   UNL     1      34.347 -13.851 -22.503  0.00  0.00    -0.000 C 
ATOM      8  C   UNL     1      34.637 -16.192 -23.166  0.00  0.00    -0.001 C 
ATOM      9  C   UNL     1      34.533 -17.197 -24.129  0.00  0.00    +0.021 C 
ATOM     10  C   UNL     1      33.651 -15.595 -25.705  0.00  0.00    -0.000 C 
ATOM     11  C   UNL     1      34.041 -16.899 -25.396  0.00  0.00    -0.001 C 
BRANCH   2  12
ATOM     12  C   UNL     1      33.051 -10.856 -24.409  0.00  0.00    -0.050 C 
BRANCH  12  13
ATOM     13  N   UNL     1      33.489  -9.890 -23.401  0.00  0.00    +0.390 N 
ATOM     14  H   UNL     1      33.864 -10.402 -22.602  0.00  0.00    -0.079 HD
BRANCH  13  15
ATOM     15  C   UNL     1      34.547  -9.036 -23.939  0.00  0.00    -0.077 C 
ATOM     16  C   UNL     1      34.620  -7.716 -23.193  0.00  0.00    -0.025 C 
ENDBRANCH  13  15
BRANCH  13  17
ATOM     17  C   UNL     1      32.361  -9.082 -22.944  0.00  0.00    -0.077 C 
ATOM     18  C   UNL     1      31.771  -9.638 -21.659  0.00  0.00    -0.025 C 
ENDBRANCH  13  17
ENDBRANCH  12  13
ENDBRANCH   2  12
ENDBRANCH   1   9
BRANCH   1  19
ATOM     19  O   UNL     1      36.093 -18.554 -22.954  0.00  0.00    -0.429 OA
BRANCH  19  22
ATOM     20  O   UNL     1      36.342 -18.372 -20.688  0.00  0.00    -0.226 OA
ATOM     21  N   UNL     1      35.186 -20.155 -21.668  0.00  0.00    -0.250 N 
ATOM     22  C   UNL     1      35.911 -18.980 -21.660  0.00  0.00    +0.406 C 
ATOM     23  H   UNL     1      34.923 -20.494 -22.555  0.00  0.00    +0.158 HD
BRANCH  21  24
ATOM     24  C   UNL     1      34.775 -20.933 -20.562  0.00  0.00    +0.053 C 
ATOM     25  C   UNL     1      35.724 -21.606 -19.792  0.00  0.00    +0.015 C 
ATOM     26  C   UNL     1      33.421 -21.027 -20.240  0.00  0.00    +0.015 C 
ATOM     27  C   UNL     1      33.964 -22.469 -18.379  0.00  0.00    +0.055 C 
ATOM     28  C   UNL     1      35.318 -22.374 -18.700  0.00  0.00    +0.006 C 
ATOM     29  C   UNL     1      33.015 -21.795 -19.149  0.00  0.00    +0.006 C 
BRANCH  27  32
ATOM     30  O   UNL     1      34.367 -23.935 -16.589  0.00  0.00    -0.268 OA
ATOM     31  N   UNL     1      32.189 -23.266 -16.931  0.00  0.00    -0.193 N 
ATOM     32  C   UNL     1      33.541 -23.270 -17.241  0.00  0.00    +0.268 C 
ATOM     33  H   UNL     1      31.542 -22.736 -17.452  0.00  0.00    +0.183 HD
BRANCH  31  34
ATOM     34  O   UNL     1      31.787 -24.050 -15.841  0.00  0.00    -0.295 OA
ATOM     35  H   UNL     1      32.422 -23.948 -15.115  0.00  0.00    +0.241 HD
ENDBRANCH  31  34
ENDBRANCH  27  32
ENDBRANCH  21  24
ENDBRANCH  19  22
ENDBRANCH   1  19
TORSDOF 10
ENDMDL
MODEL 5
REMARK VINA RESULT:     -10.8      3.618      5.490
REMARK  Name = 9804992
REMARK  10 active torsions:
REMARK  status: ('A' for Active; 'I' for Inactive)
REMARK    1  A    between atoms: C_1  and  C_9
REMARK    2  A    between atoms: C_1  and  O_19
REMARK    3  A    between atoms: C_2  and  C_12
REMARK    4  A    between atoms: C_12  and  N_13
REMARK    5  A    between atoms: N_13  and  C_15
REMARK    6  A    between atoms: N_13  and  C_17
REMARK    7  A    between atoms: O_19  and  C_22
REMARK    8  A    between atoms: N_21  and  C_24
REMARK    9  A    between atoms: C_27  and  C_32
REMARK   10  A    between atoms: N_31  and  O_34
REMARK                            x       y       z     vdW  Elec       q    Type
REMARK                         _______ _______ _______ _____ _____    ______ ____
ROOT
ATOM      1  C   UNL     1      36.038 -17.354 -22.843  0.00  0.00    +0.237 C 
ENDROOT
BRANCH   1   9
ATOM      2  C   UNL     1      34.043 -22.345 -19.156  0.00  0.00    -0.043 C 
ATOM      3  C   UNL     1      35.511 -20.736 -20.239  0.00  0.00    -0.000 C 
ATOM      4  C   UNL     1      34.387 -20.136 -20.855  0.00  0.00    -0.000 C 
ATOM      5  C   UNL     1      35.322 -21.840 -19.392  0.00  0.00    -0.006 C 
ATOM      6  C   UNL     1      32.938 -21.754 -19.761  0.00  0.00    -0.006 C 
ATOM      7  C   UNL     1      33.107 -20.657 -20.605  0.00  0.00    -0.000 C 
ATOM      8  C   UNL     1      34.577 -19.032 -21.702  0.00  0.00    -0.001 C 
ATOM      9  C   UNL     1      35.856 -18.527 -21.940  0.00  0.00    +0.021 C 
ATOM     10  C   UNL     1      36.791 -20.215 -20.489  0.00  0.00    -0.000 C 
ATOM     11  C   UNL     1      36.961 -19.117 -21.333  0.00  0.00    -0.001 C 
BRANCH   2  12
ATOM     12  C   UNL     1      33.861 -23.518 -18.253  0.00  0.00    -0.050 C 
BRANCH  12  13
ATOM     13  N   UNL     1      33.529 -23.122 -16.884  0.00  0.00    +0.390 N 
ATOM     14  H   UNL     1      33.626 -22.110 -16.806  0.00  0.00    -0.079 HD
BRANCH  13  15
ATOM     15  C   UNL     1      32.147 -23.479 -16.570  0.00  0.00    -0.077 C 
ATOM     16  C   UNL     1      31.840 -23.252 -15.100  0.00  0.00    -0.025 C 
ENDBRANCH  13  15
BRANCH  13  17
ATOM     17  C   UNL     1      34.448 -23.748 -15.935  0.00  0.00    -0.077 C 
ATOM     18  C   UNL     1      35.778 -23.015 -15.892  0.00  0.00    -0.025 C 
ENDBRANCH  13  17
ENDBRANCH  12  13
ENDBRANCH   2  12
ENDBRANCH   1   9
BRANCH   1  19
ATOM     19  O   UNL     1      34.777 -16.745 -23.086  0.00  0.00    -0.429 OA
BRANCH  19  22
ATOM     20  O   UNL     1      34.964 -15.220 -21.392  0.00  0.00    -0.226 OA
ATOM     21  N   UNL     1      33.885 -14.710 -23.406  0.00  0.00    -0.250 N 
ATOM     22  C   UNL     1      34.573 -15.511 -22.516  0.00  0.00    +0.406 C 
ATOM     23  H   UNL     1      33.655 -15.124 -24.271  0.00  0.00    +0.158 HD
BRANCH  21  24
ATOM     24  C   UNL     1      33.469 -13.371 -23.231  0.00  0.00    +0.053 C 
ATOM     25  C   UNL     1      32.537 -13.055 -22.242  0.00  0.00    +0.015 C 
ATOM     26  C   UNL     1      33.990 -12.366 -24.046  0.00  0.00    +0.015 C 
ATOM     27  C   UNL     1      32.646 -10.728 -22.885  0.00  0.00    +0.055 C 
ATOM     28  C   UNL     1      32.125 -11.733 -22.069  0.00  0.00    +0.006 C 
ATOM     29  C   UNL     1      33.578 -11.045 -23.873  0.00  0.00    +0.006 C 
BRANCH  27  32
ATOM     30  O   UNL     1      31.880  -8.655 -23.681  0.00  0.00    -0.268 OA
ATOM     31  N   UNL     1      32.213  -8.853 -21.410  0.00  0.00    -0.193 N 
ATOM     32  C   UNL     1      32.217  -9.351 -22.705  0.00  0.00    +0.268 C 
ATOM     33  H   UNL     1      32.481  -9.410 -20.642  0.00  0.00    +0.183 HD
BRANCH  31  34
ATOM     34  O   UNL     1      31.810  -7.520 -21.244  0.00  0.00    -0.295 OA
ATOM     35  H   UNL     1      32.541  -6.929 -21.482  0.00  0.00    +0.241 HD
ENDBRANCH  31  34
ENDBRANCH  27  32
ENDBRANCH  21  24
ENDBRANCH  19  22
ENDBRANCH   1  19
TORSDOF 10
ENDMDL
MODEL 6
REMARK VINA RESULT:     -10.8      5.441     12.091
REMARK  Name = 9804992
REMARK  10 active torsions:
REMARK  status: ('A' for Active; 'I' for Inactive)
REMARK    1  A    between atoms: C_1  and  C_9
REMARK    2  A    between atoms: C_1  and  O_19
REMARK    3  A    between atoms: C_2  and  C_12
REMARK    4  A    between atoms: C_12  and  N_13
REMARK    5  A    between atoms: N_13  and  C_15
REMARK    6  A    between atoms: N_13  and  C_17
REMARK    7  A    between atoms: O_19  and  C_22
REMARK    8  A    between atoms: N_21  and  C_24
REMARK    9  A    between atoms: C_27  and  C_32
REMARK   10  A    between atoms: N_31  and  O_34
REMARK                            x       y       z     vdW  Elec       q    Type
REMARK                         _______ _______ _______ _____ _____    ______ ____
ROOT
ATOM      1  C   UNL     1      34.167 -15.427 -24.002  0.00  0.00    +0.237 C 
ENDROOT
BRANCH   1   9
ATOM      2  C   UNL     1      31.950  -9.541 -22.292  0.00  0.00    -0.043 C 
ATOM      3  C   UNL     1      33.055 -11.295 -23.563  0.00  0.00    -0.000 C 
ATOM      4  C   UNL     1      32.675 -12.239 -22.579  0.00  0.00    -0.000 C 
ATOM      5  C   UNL     1      32.685  -9.950 -23.404  0.00  0.00    -0.006 C 
ATOM      6  C   UNL     1      31.576 -10.469 -21.324  0.00  0.00    -0.006 C 
ATOM      7  C   UNL     1      31.935 -11.809 -21.465  0.00  0.00    -0.000 C 
ATOM      8  C   UNL     1      33.046 -13.584 -22.737  0.00  0.00    -0.001 C 
ATOM      9  C   UNL     1      33.782 -13.994 -23.850  0.00  0.00    +0.021 C 
ATOM     10  C   UNL     1      33.796 -11.725 -24.676  0.00  0.00    -0.000 C 
ATOM     11  C   UNL     1      34.155 -13.066 -24.818  0.00  0.00    -0.001 C 
BRANCH   2  12
ATOM     12  C   UNL     1      31.565  -8.108 -22.139  0.00  0.00    -0.050 C 
BRANCH  12  13
ATOM     13  N   UNL     1      32.084  -7.273 -23.223  0.00  0.00    +0.390 N 
ATOM     14  H   UNL     1      32.292  -7.871 -24.023  0.00  0.00    -0.079 HD
BRANCH  13  15
ATOM     15  C   UNL     1      31.083  -6.288 -23.632  0.00  0.00    -0.077 C 
ATOM     16  C   UNL     1      31.063  -5.101 -22.685  0.00  0.00    -0.025 C 
ENDBRANCH  13  15
BRANCH  13  17
ATOM     17  C   UNL     1      33.317  -6.608 -22.809  0.00  0.00    -0.077 C 
ATOM     18  C   UNL     1      34.453  -6.908 -23.773  0.00  0.00    -0.025 C 
ENDBRANCH  13  17
ENDBRANCH  12  13
ENDBRANCH   2  12
ENDBRANCH   1   9
BRANCH   1  19
ATOM     19  O   UNL     1      35.344 -15.682 -23.246  0.00  0.00    -0.429 OA
BRANCH  19  22
ATOM     20  O   UNL     1      35.008 -16.013 -21.008  0.00  0.00    -0.226 OA
ATOM     21  N   UNL     1      35.288 -17.797 -22.497  0.00  0.00    -0.250 N 
ATOM     22  C   UNL     1      35.195 -16.469 -22.130  0.00  0.00    +0.406 C 
ATOM     23  H   UNL     1      35.440 -17.970 -23.455  0.00  0.00    +0.158 HD
BRANCH  21  24
ATOM     24  C   UNL     1      35.193 -18.939 -21.669  0.00  0.00    +0.053 C 
ATOM     25  C   UNL     1      33.946 -19.511 -21.412  0.00  0.00    +0.015 C 
ATOM     26  C   UNL     1      36.344 -19.493 -21.109  0.00  0.00    +0.015 C 
ATOM     27  C   UNL     1      35.003 -21.191 -20.033  0.00  0.00    +0.055 C 
ATOM     28  C   UNL     1      33.851 -20.637 -20.594  0.00  0.00    +0.006 C 
ATOM     29  C   UNL     1      36.249 -20.619 -20.291  0.00  0.00    +0.006 C 
BRANCH  27  32
ATOM     30  O   UNL     1      35.730 -22.563 -18.271  0.00  0.00    -0.268 OA
ATOM     31  N   UNL     1      33.863 -23.245 -19.436  0.00  0.00    -0.193 N 
ATOM     32  C   UNL     1      34.903 -22.364 -19.181  0.00  0.00    +0.268 C 
ATOM     33  H   UNL     1      33.213 -23.080 -20.157  0.00  0.00    +0.183 HD
BRANCH  31  34
ATOM     34  O   UNL     1      33.780 -24.382 -18.618  0.00  0.00    -0.295 OA
ATOM     35  H   UNL     1      33.768 -24.111 -17.687  0.00  0.00    +0.241 HD
ENDBRANCH  31  34
ENDBRANCH  27  32
ENDBRANCH  21  24
ENDBRANCH  19  22
ENDBRANCH   1  19
TORSDOF 10
ENDMDL
MODEL 7
REMARK VINA RESULT:     -10.7      3.707     11.260
REMARK  Name = 9804992
REMARK  10 active torsions:
REMARK  status: ('A' for Active; 'I' for Inactive)
REMARK    1  A    between atoms: C_1  and  C_9
REMARK    2  A    between atoms: C_1  and  O_19
REMARK    3  A    between atoms: C_2  and  C_12
REMARK    4  A    between atoms: C_12  and  N_13
REMARK    5  A    between atoms: N_13  and  C_15
REMARK    6  A    between atoms: N_13  and  C_17
REMARK    7  A    between atoms: O_19  and  C_22
REMARK    8  A    between atoms: N_21  and  C_24
REMARK    9  A    between atoms: C_27  and  C_32
REMARK   10  A    between atoms: N_31  and  O_34
REMARK                            x       y       z     vdW  Elec       q    Type
REMARK                         _______ _______ _______ _____ _____    ______ ____
ROOT
ATOM      1  C   UNL     1      36.461 -19.592 -20.746  0.00  0.00    +0.237 C 
ENDROOT
BRANCH   1   9
ATOM      2  C   UNL     1      33.895 -14.157 -23.270  0.00  0.00    -0.043 C 
ATOM      3  C   UNL     1      34.805 -16.408 -23.117  0.00  0.00    -0.000 C 
ATOM      4  C   UNL     1      34.975 -16.237 -21.722  0.00  0.00    -0.000 C 
ATOM      5  C   UNL     1      34.264 -15.358 -23.877  0.00  0.00    -0.006 C 
ATOM      6  C   UNL     1      34.061 -13.990 -21.899  0.00  0.00    -0.006 C 
ATOM      7  C   UNL     1      34.598 -15.021 -21.128  0.00  0.00    -0.000 C 
ATOM      8  C   UNL     1      35.517 -17.286 -20.962  0.00  0.00    -0.001 C 
ATOM      9  C   UNL     1      35.887 -18.488 -21.569  0.00  0.00    +0.021 C 
ATOM     10  C   UNL     1      35.183 -17.623 -23.710  0.00  0.00    -0.000 C 
ATOM     11  C   UNL     1      35.719 -18.656 -22.940  0.00  0.00    -0.001 C 
BRANCH   2  12
ATOM     12  C   UNL     1      33.321 -13.053 -24.093  0.00  0.00    -0.050 C 
BRANCH  12  13
ATOM     13  N   UNL     1      34.274 -11.962 -24.301  0.00  0.00    +0.390 N 
ATOM     14  H   UNL     1      35.159 -12.215 -23.864  0.00  0.00    -0.079 HD
BRANCH  13  15
ATOM     15  C   UNL     1      34.506 -11.755 -25.730  0.00  0.00    -0.077 C 
ATOM     16  C   UNL     1      33.457 -12.467 -26.566  0.00  0.00    -0.025 C 
ENDBRANCH  13  15
BRANCH  13  17
ATOM     17  C   UNL     1      33.785 -10.733 -23.679  0.00  0.00    -0.077 C 
ATOM     18  C   UNL     1      34.658  -9.545 -24.048  0.00  0.00    -0.025 C 
ENDBRANCH  13  17
ENDBRANCH  12  13
ENDBRANCH   2  12
ENDBRANCH   1   9
BRANCH   1  19
ATOM     19  O   UNL     1      35.678 -20.766 -20.918  0.00  0.00    -0.429 OA
BRANCH  19  22
ATOM     20  O   UNL     1      33.978 -21.573 -19.619  0.00  0.00    -0.226 OA
ATOM     21  N   UNL     1      36.203 -21.575 -18.892  0.00  0.00    -0.250 N 
ATOM     22  C   UNL     1      35.170 -21.335 -19.776  0.00  0.00    +0.406 C 
ATOM     23  H   UNL     1      37.103 -21.315 -19.199  0.00  0.00    +0.158 HD
BRANCH  21  24
ATOM     24  C   UNL     1      36.131 -22.149 -17.602  0.00  0.00    +0.053 C 
ATOM     25  C   UNL     1      37.195 -22.000 -16.712  0.00  0.00    +0.015 C 
ATOM     26  C   UNL     1      34.996 -22.864 -17.220  0.00  0.00    +0.015 C 
ATOM     27  C   UNL     1      35.989 -23.282 -15.057  0.00  0.00    +0.055 C 
ATOM     28  C   UNL     1      37.124 -22.566 -15.440  0.00  0.00    +0.006 C 
ATOM     29  C   UNL     1      34.925 -23.431 -15.947  0.00  0.00    +0.006 C 
BRANCH  27  32
ATOM     30  O   UNL     1      36.845 -23.726 -12.916  0.00  0.00    -0.268 OA
ATOM     31  N   UNL     1      34.780 -24.609 -13.427  0.00  0.00    -0.193 N 
ATOM     32  C   UNL     1      35.916 -23.873 -13.731  0.00  0.00    +0.268 C 
ATOM     33  H   UNL     1      34.048 -24.720 -14.078  0.00  0.00    +0.183 HD
BRANCH  31  34
ATOM     34  O   UNL     1      34.721 -25.187 -12.151  0.00  0.00    -0.295 OA
ATOM     35  H   UNL     1      35.005 -24.538 -11.488  0.00  0.00    +0.241 HD
ENDBRANCH  31  34
ENDBRANCH  27  32
ENDBRANCH  21  24
ENDBRANCH  19  22
ENDBRANCH   1  19
TORSDOF 10
ENDMDL
MODEL 8
REMARK VINA RESULT:     -10.6      3.542     11.214
REMARK  Name = 9804992
REMARK  10 active torsions:
REMARK  status: ('A' for Active; 'I' for Inactive)
REMARK    1  A    between atoms: C_1  and  C_9
REMARK    2  A    between atoms: C_1  and  O_19
REMARK    3  A    between atoms: C_2  and  C_12
REMARK    4  A    between atoms: C_12  and  N_13
REMARK    5  A    between atoms: N_13  and  C_15
REMARK    6  A    between atoms: N_13  and  C_17
REMARK    7  A    between atoms: O_19  and  C_22
REMARK    8  A    between atoms: N_21  and  C_24
REMARK    9  A    between atoms: C_27  and  C_32
REMARK   10  A    between atoms: N_31  and  O_34
REMARK                            x       y       z     vdW  Elec       q    Type
REMARK                         _______ _______ _______ _____ _____    ______ ____
ROOT
ATOM      1  C   UNL     1      35.362 -19.243 -23.329  0.00  0.00    +0.237 C 
ENDROOT
BRANCH   1   9
ATOM      2  C   UNL     1      33.626 -13.002 -24.043  0.00  0.00    -0.043 C 
ATOM      3  C   UNL     1      34.002 -15.350 -24.551  0.00  0.00    -0.000 C 
ATOM      4  C   UNL     1      34.513 -15.544 -23.245  0.00  0.00    -0.000 C 
ATOM      5  C   UNL     1      33.562 -14.073 -24.934  0.00  0.00    -0.006 C 
ATOM      6  C   UNL     1      34.127 -13.192 -22.760  0.00  0.00    -0.006 C 
ATOM      7  C   UNL     1      34.568 -14.454 -22.362  0.00  0.00    -0.000 C 
ATOM      8  C   UNL     1      34.952 -16.821 -22.862  0.00  0.00    -0.001 C 
ATOM      9  C   UNL     1      34.890 -17.893 -23.754  0.00  0.00    +0.021 C 
ATOM     10  C   UNL     1      33.946 -16.441 -25.435  0.00  0.00    -0.000 C 
ATOM     11  C   UNL     1      34.387 -17.704 -25.037  0.00  0.00    -0.001 C 
BRANCH   2  12
ATOM     12  C   UNL     1      33.154 -11.651 -24.468  0.00  0.00    -0.050 C 
BRANCH  12  13
ATOM     13  N   UNL     1      33.696 -10.583 -23.627  0.00  0.00    +0.390 N 
ATOM     14  H   UNL     1      34.041 -10.994 -22.760  0.00  0.00    -0.079 HD
BRANCH  13  15
ATOM     15  C   UNL     1      34.813  -9.922 -24.301  0.00  0.00    -0.077 C 
ATOM     16  C   UNL     1      35.191 -10.649 -25.580  0.00  0.00    -0.025 C 
ENDBRANCH  13  15
BRANCH  13  17
ATOM     17  C   UNL     1      32.652  -9.615 -23.297  0.00  0.00    -0.077 C 
ATOM     18  C   UNL     1      31.763 -10.127 -22.176  0.00  0.00    -0.025 C 
ENDBRANCH  13  17
ENDBRANCH  12  13
ENDBRANCH   2  12
ENDBRANCH   1   9
BRANCH   1  19
ATOM     19  O   UNL     1      34.480 -19.763 -22.343  0.00  0.00    -0.429 OA
BRANCH  19  22
ATOM     20  O   UNL     1      35.972 -19.442 -20.640  0.00  0.00    -0.226 OA
ATOM     21  N   UNL     1      34.371 -21.149 -20.580  0.00  0.00    -0.250 N 
ATOM     22  C   UNL     1      35.036 -20.067 -21.124  0.00  0.00    +0.406 C 
ATOM     23  H   UNL     1      33.637 -21.521 -21.122  0.00  0.00    +0.158 HD
BRANCH  21  24
ATOM     24  C   UNL     1      34.614 -21.789 -19.343  0.00  0.00    +0.053 C 
ATOM     25  C   UNL     1      33.570 -22.424 -18.671  0.00  0.00    +0.015 C 
ATOM     26  C   UNL     1      35.897 -21.784 -18.796  0.00  0.00    +0.015 C 
ATOM     27  C   UNL     1      35.093 -23.049 -16.901  0.00  0.00    +0.055 C 
ATOM     28  C   UNL     1      33.809 -23.055 -17.449  0.00  0.00    +0.006 C 
ATOM     29  C   UNL     1      36.136 -22.414 -17.574  0.00  0.00    +0.006 C 
BRANCH  27  32
ATOM     30  O   UNL     1      35.939 -24.798 -15.581  0.00  0.00    -0.268 OA
ATOM     31  N   UNL     1      34.875 -23.072 -14.486  0.00  0.00    -0.193 N 
ATOM     32  C   UNL     1      35.341 -23.707 -15.628  0.00  0.00    +0.268 C 
ATOM     33  H   UNL     1      34.403 -22.208 -14.533  0.00  0.00    +0.183 HD
BRANCH  31  34
ATOM     34  O   UNL     1      35.106 -23.717 -13.263  0.00  0.00    -0.295 OA
ATOM     35  H   UNL     1      35.630 -23.139 -12.686  0.00  0.00    +0.241 HD
ENDBRANCH  31  34
ENDBRANCH  27  32
ENDBRANCH  21  24
ENDBRANCH  19  22
ENDBRANCH   1  19
TORSDOF 10
ENDMDL
MODEL 9
REMARK VINA RESULT:     -10.4      2.906      4.425
REMARK  Name = 9804992
REMARK  10 active torsions:
REMARK  status: ('A' for Active; 'I' for Inactive)
REMARK    1  A    between atoms: C_1  and  C_9
REMARK    2  A    between atoms: C_1  and  O_19
REMARK    3  A    between atoms: C_2  and  C_12
REMARK    4  A    between atoms: C_12  and  N_13
REMARK    5  A    between atoms: N_13  and  C_15
REMARK    6  A    between atoms: N_13  and  C_17
REMARK    7  A    between atoms: O_19  and  C_22
REMARK    8  A    between atoms: N_21  and  C_24
REMARK    9  A    between atoms: C_27  and  C_32
REMARK   10  A    between atoms: N_31  and  O_34
REMARK                            x       y       z     vdW  Elec       q    Type
REMARK                         _______ _______ _______ _____ _____    ______ ____
ROOT
ATOM      1  C   UNL     1      35.481 -21.623 -20.264  0.00  0.00    +0.237 C 
ENDROOT
BRANCH   1   9
ATOM      2  C   UNL     1      35.088 -23.900 -14.169  0.00  0.00    -0.043 C 
ATOM      3  C   UNL     1      35.979 -22.839 -16.169  0.00  0.00    -0.000 C 
ATOM      4  C   UNL     1      34.763 -23.104 -16.843  0.00  0.00    -0.000 C 
ATOM      5  C   UNL     1      36.126 -23.243 -14.832  0.00  0.00    -0.006 C 
ATOM      6  C   UNL     1      33.893 -24.159 -14.832  0.00  0.00    -0.006 C 
ATOM      7  C   UNL     1      33.729 -23.766 -16.160  0.00  0.00    -0.000 C 
ATOM      8  C   UNL     1      34.617 -22.700 -18.180  0.00  0.00    -0.001 C 
ATOM      9  C   UNL     1      35.655 -22.045 -18.844  0.00  0.00    +0.021 C 
ATOM     10  C   UNL     1      37.013 -22.178 -16.852  0.00  0.00    -0.000 C 
ATOM     11  C   UNL     1      36.850 -21.783 -18.181  0.00  0.00    -0.001 C 
BRANCH   2  12
ATOM     12  C   UNL     1      35.261 -24.322 -12.749  0.00  0.00    -0.050 C 
BRANCH  12  13
ATOM     13  N   UNL     1      36.233 -25.406 -12.605  0.00  0.00    +0.390 N 
ATOM     14  H   UNL     1      35.815 -26.144 -12.038  0.00  0.00    -0.079 HD
BRANCH  13  15
ATOM     15  C   UNL     1      36.571 -25.965 -13.913  0.00  0.00    -0.077 C 
ATOM     16  C   UNL     1      38.037 -26.358 -13.980  0.00  0.00    -0.025 C 
ENDBRANCH  13  15
BRANCH  13  17
ATOM     17  C   UNL     1      37.435 -24.927 -11.926  0.00  0.00    -0.077 C 
ATOM     18  C   UNL     1      37.205 -23.563 -11.298  0.00  0.00    -0.025 C 
ENDBRANCH  13  17
ENDBRANCH  12  13
ENDBRANCH   2  12
ENDBRANCH   1   9
BRANCH   1  19
ATOM     19  O   UNL     1      36.025 -20.321 -20.440  0.00  0.00    -0.429 OA
BRANCH  19  22
ATOM     20  O   UNL     1      34.267 -19.750 -21.787  0.00  0.00    -0.226 OA
ATOM     21  N   UNL     1      35.758 -18.152 -20.949  0.00  0.00    -0.250 N 
ATOM     22  C   UNL     1      35.249 -19.422 -21.130  0.00  0.00    +0.406 C 
ATOM     23  H   UNL     1      36.561 -18.086 -20.382  0.00  0.00    +0.158 HD
BRANCH  21  24
ATOM     24  C   UNL     1      35.271 -16.934 -21.477  0.00  0.00    +0.053 C 
ATOM     25  C   UNL     1      34.838 -15.925 -20.616  0.00  0.00    +0.015 C 
ATOM     26  C   UNL     1      35.222 -16.742 -22.857  0.00  0.00    +0.015 C 
ATOM     27  C   UNL     1      34.307 -14.532 -22.518  0.00  0.00    +0.055 C 
ATOM     28  C   UNL     1      34.356 -14.724 -21.136  0.00  0.00    +0.006 C 
ATOM     29  C   UNL     1      34.740 -15.541 -23.378  0.00  0.00    +0.006 C 
BRANCH  27  32
ATOM     30  O   UNL     1      34.226 -12.842 -24.146  0.00  0.00    -0.268 OA
ATOM     31  N   UNL     1      32.854 -12.603 -22.310  0.00  0.00    -0.193 N 
ATOM     32  C   UNL     1      33.804 -13.280 -23.060  0.00  0.00    +0.268 C 
ATOM     33  H   UNL     1      32.525 -12.957 -21.452  0.00  0.00    +0.183 HD
BRANCH  31  34
ATOM     34  O   UNL     1      32.382 -11.389 -22.832  0.00  0.00    -0.295 OA
ATOM     35  H   UNL     1      32.502 -11.382 -23.794  0.00  0.00    +0.241 HD
ENDBRANCH  31  34
ENDBRANCH  27  32
ENDBRANCH  21  24
ENDBRANCH  19  22
ENDBRANCH   1  19
TORSDOF 10
ENDMDL
