MODEL 1
REMARK VINA RESULT:     -12.8      0.000      0.000
REMARK  Name = 448408
REMARK  8 active torsions:
REMARK  status: ('A' for Active; 'I' for Inactive)
REMARK    1  A    between atoms: N_2  and  C_25
REMARK    2  A    between atoms: C_3  and  C_6
REMARK    3  A    between atoms: C_5  and  N_12
REMARK    4  A    between atoms: C_25  and  C_26
REMARK    5  A    between atoms: C_27  and  S_32
REMARK    6  A    between atoms: S_32  and  C_33
REMARK    7  A    between atoms: C_34  and  C_39
REMARK    8  A    between atoms: C_39  and  O_40
REMARK                            x       y       z     vdW  Elec       q    Type
REMARK                         _______ _______ _______ _____ _____    ______ ____
ROOT
ATOM      1  O   UNL     1      32.664 -22.032 -20.192  0.00  0.00    -0.270 OA
ATOM      2  N   UNL     1      33.778 -22.762 -18.294  0.00  0.00    -0.297 N 
ATOM      3  C   UNL     1      33.687 -22.031 -19.484  0.00  0.00    +0.246 C 
ATOM      4  H   UNL     1      34.618 -22.716 -17.783  0.00  0.00    +0.150 HD
ENDROOT
BRANCH   3   6
ATOM      5  C   UNL     1      35.869 -19.502 -21.217  0.00  0.00    +0.090 C 
ATOM      6  C   UNL     1      34.861 -21.272 -19.884  0.00  0.00    +0.055 C 
ATOM      7  C   UNL     1      34.743 -20.244 -20.819  0.00  0.00    +0.023 C 
ATOM      8  C   UNL     1      37.116 -19.820 -20.654  0.00  0.00    +0.018 C 
ATOM      9  C   UNL     1      36.108 -21.575 -19.334  0.00  0.00    +0.005 C 
ATOM     10  C   UNL     1      37.234 -20.849 -19.718  0.00  0.00    +0.002 C 
BRANCH   5  12
ATOM     11  O   UNL     1      34.723 -14.461 -21.734  0.00  0.00    -0.207 OA
ATOM     12  N   UNL     1      35.750 -18.477 -22.148  0.00  0.00    -0.137 N 
ATOM     13  N   UNL     1      35.266 -18.626 -23.409  0.00  0.00    -0.215 N 
ATOM     14  N   UNL     1      35.558 -17.179 -21.682  0.00  0.00    -0.143 NA
ATOM     15  N   UNL     1      34.167 -16.969 -24.853  0.00  0.00    -0.309 NA
ATOM     16  N   UNL     1      33.916 -14.772 -23.885  0.00  0.00    -0.251 NA
ATOM     17  N   UNL     1      33.148 -15.196 -26.025  0.00  0.00    -0.283 N 
ATOM     18  C   UNL     1      34.744 -17.442 -23.812  0.00  0.00    +0.243 C 
ATOM     19  C   UNL     1      34.965 -16.560 -22.655  0.00  0.00    +0.241 C 
ATOM     20  C   UNL     1      34.523 -15.162 -22.715  0.00  0.00    +0.239 C 
ATOM     21  C   UNL     1      33.759 -15.632 -24.873  0.00  0.00    +0.208 C 
ATOM     22  H   UNL     1      35.291 -19.455 -23.941  0.00  0.00    +0.175 HD
ATOM     23  H   UNL     1      33.017 -15.816 -26.779  0.00  0.00    +0.156 HD
ATOM     24  H   UNL     1      32.839 -14.264 -26.097  0.00  0.00    +0.156 HD
ENDBRANCH   5  12
ENDBRANCH   3   6
BRANCH   2  25
ATOM     25  C   UNL     1      32.707 -23.583 -17.776  0.00  0.00    +0.117 C 
BRANCH  25  26
ATOM     26  C   UNL     1      32.608 -23.498 -16.280  0.00  0.00    +0.003 C 
ATOM     27  C   UNL     1      33.734 -23.571 -15.466  0.00  0.00    +0.027 C 
ATOM     28  C   UNL     1      31.343 -23.342 -15.721  0.00  0.00    -0.002 C 
ATOM     29  C   UNL     1      33.594 -23.488 -14.081  0.00  0.00    +0.006 C 
ATOM     30  C   UNL     1      31.202 -23.259 -14.336  0.00  0.00    -0.000 C 
ATOM     31  C   UNL     1      32.327 -23.332 -13.516  0.00  0.00    +0.000 C 
BRANCH  27  32
ATOM     32  S   UNL     1      35.377 -23.771 -16.141  0.00  0.00    -0.087 S 
BRANCH  32  33
ATOM     33  C   UNL     1      36.301 -24.200 -14.674  0.00  0.00    +0.028 C 
ATOM     34  C   UNL     1      36.650 -25.522 -14.386  0.00  0.00    +0.013 C 
ATOM     35  C   UNL     1      36.675 -23.177 -13.802  0.00  0.00    +0.006 C 
ATOM     36  C   UNL     1      37.372 -25.817 -13.230  0.00  0.00    -0.001 C 
ATOM     37  C   UNL     1      37.397 -23.473 -12.645  0.00  0.00    +0.000 C 
ATOM     38  C   UNL     1      37.745 -24.793 -12.359  0.00  0.00    -0.000 C 
BRANCH  34  39
ATOM     39  C   UNL     1      36.274 -26.654 -15.287  0.00  0.00    +0.164 C 
BRANCH  39  40
ATOM     40  O   UNL     1      37.434 -27.119 -15.963  0.00  0.00    -0.377 OA
ATOM     41  H   UNL     1      37.482 -26.711 -16.841  0.00  0.00    +0.211 HD
ENDBRANCH  39  40
ENDBRANCH  34  39
ENDBRANCH  32  33
ENDBRANCH  27  32
ENDBRANCH  25  26
ENDBRANCH   2  25
TORSDOF 8
ENDMDL
MODEL 2
REMARK VINA RESULT:     -12.5      5.144      9.527
REMARK  Name = 448408
REMARK  8 active torsions:
REMARK  status: ('A' for Active; 'I' for Inactive)
REMARK    1  A    between atoms: N_2  and  C_25
REMARK    2  A    between atoms: C_3  and  C_6
REMARK    3  A    between atoms: C_5  and  N_12
REMARK    4  A    between atoms: C_25  and  C_26
REMARK    5  A    between atoms: C_27  and  S_32
REMARK    6  A    between atoms: S_32  and  C_33
REMARK    7  A    between atoms: C_34  and  C_39
REMARK    8  A    between atoms: C_39  and  O_40
REMARK                            x       y       z     vdW  Elec       q    Type
REMARK                         _______ _______ _______ _____ _____    ______ ____
ROOT
ATOM      1  O   UNL     1      33.409 -14.150 -21.760  0.00  0.00    -0.270 OA
ATOM      2  N   UNL     1      34.838 -15.054 -23.346  0.00  0.00    -0.297 N 
ATOM      3  C   UNL     1      33.989 -14.055 -22.856  0.00  0.00    +0.246 C 
ATOM      4  H   UNL     1      35.265 -14.914 -24.222  0.00  0.00    +0.150 HD
ENDROOT
BRANCH   3   6
ATOM      5  C   UNL     1      33.429 -10.492 -23.929  0.00  0.00    +0.090 C 
ATOM      6  C   UNL     1      33.785 -12.889 -23.701  0.00  0.00    +0.055 C 
ATOM      7  C   UNL     1      33.627 -11.628 -23.125  0.00  0.00    +0.023 C 
ATOM      8  C   UNL     1      33.391 -10.654 -25.324  0.00  0.00    +0.018 C 
ATOM      9  C   UNL     1      33.746 -13.032 -25.089  0.00  0.00    +0.005 C 
ATOM     10  C   UNL     1      33.549 -11.915 -25.899  0.00  0.00    +0.002 C 
BRANCH   5  12
ATOM     11  O   UNL     1      32.106  -8.058 -19.534  0.00  0.00    -0.207 OA
ATOM     12  N   UNL     1      33.272  -9.236 -23.355  0.00  0.00    -0.137 N 
ATOM     13  N   UNL     1      32.791  -8.142 -24.003  0.00  0.00    -0.215 N 
ATOM     14  N   UNL     1      33.035  -9.159 -21.985  0.00  0.00    -0.143 NA
ATOM     15  N   UNL     1      31.632  -6.181 -23.080  0.00  0.00    -0.309 NA
ATOM     16  N   UNL     1      31.306  -6.214 -20.689  0.00  0.00    -0.251 NA
ATOM     17  N   UNL     1      30.548  -4.424 -21.943  0.00  0.00    -0.283 N 
ATOM     18  C   UNL     1      32.227  -7.315 -23.088  0.00  0.00    +0.243 C 
ATOM     19  C   UNL     1      32.420  -8.030 -21.817  0.00  0.00    +0.241 C 
ATOM     20  C   UNL     1      31.928  -7.434 -20.569  0.00  0.00    +0.239 C 
ATOM     21  C   UNL     1      31.177  -5.645 -21.871  0.00  0.00    +0.208 C 
ATOM     22  H   UNL     1      32.844  -7.978 -24.972  0.00  0.00    +0.175 HD
ATOM     23  H   UNL     1      30.439  -3.975 -22.812  0.00  0.00    +0.156 HD
ATOM     24  H   UNL     1      30.207  -3.998 -21.123  0.00  0.00    +0.156 HD
ENDBRANCH   5  12
ENDBRANCH   3   6
BRANCH   2  25
ATOM     25  C   UNL     1      35.123 -16.281 -22.636  0.00  0.00    +0.117 C 
BRANCH  25  26
ATOM     26  C   UNL     1      34.887 -17.492 -23.491  0.00  0.00    +0.003 C 
ATOM     27  C   UNL     1      35.270 -18.765 -23.081  0.00  0.00    +0.027 C 
ATOM     28  C   UNL     1      34.268 -17.305 -24.723  0.00  0.00    -0.002 C 
ATOM     29  C   UNL     1      35.032 -19.861 -23.909  0.00  0.00    +0.006 C 
ATOM     30  C   UNL     1      34.030 -18.401 -25.552  0.00  0.00    -0.000 C 
ATOM     31  C   UNL     1      34.411 -19.679 -25.145  0.00  0.00    +0.000 C 
BRANCH  27  32
ATOM     32  S   UNL     1      36.069 -19.050 -21.506  0.00  0.00    -0.087 S 
BRANCH  32  33
ATOM     33  C   UNL     1      34.922 -20.186 -20.741  0.00  0.00    +0.028 C 
ATOM     34  C   UNL     1      35.356 -21.213 -19.900  0.00  0.00    +0.013 C 
ATOM     35  C   UNL     1      33.560 -20.029 -21.001  0.00  0.00    +0.006 C 
ATOM     36  C   UNL     1      34.429 -22.079 -19.320  0.00  0.00    -0.001 C 
ATOM     37  C   UNL     1      32.633 -20.897 -20.422  0.00  0.00    +0.000 C 
ATOM     38  C   UNL     1      33.068 -21.922 -19.582  0.00  0.00    -0.000 C 
BRANCH  34  39
ATOM     39  C   UNL     1      36.803 -21.422 -19.589  0.00  0.00    +0.164 C 
BRANCH  39  40
ATOM     40  O   UNL     1      36.992 -21.367 -18.181  0.00  0.00    -0.377 OA
ATOM     41  H   UNL     1      36.135 -21.240 -17.745  0.00  0.00    +0.211 HD
ENDBRANCH  39  40
ENDBRANCH  34  39
ENDBRANCH  32  33
ENDBRANCH  27  32
ENDBRANCH  25  26
ENDBRANCH   2  25
TORSDOF 8
ENDMDL
MODEL 3
REMARK VINA RESULT:     -12.2      5.540     13.330
REMARK  Name = 448408
REMARK  8 active torsions:
REMARK  status: ('A' for Active; 'I' for Inactive)
REMARK    1  A    between atoms: N_2  and  C_25
REMARK    2  A    between atoms: C_3  and  C_6
REMARK    3  A    between atoms: C_5  and  N_12
REMARK    4  A    between atoms: C_25  and  C_26
REMARK    5  A    between atoms: C_27  and  S_32
REMARK    6  A    between atoms: S_32  and  C_33
REMARK    7  A    between atoms: C_34  and  C_39
REMARK    8  A    between atoms: C_39  and  O_40
REMARK                            x       y       z     vdW  Elec       q    Type
REMARK                         _______ _______ _______ _____ _____    ______ ____
ROOT
ATOM      1  O   UNL     1      34.808 -14.162 -21.773  0.00  0.00    -0.270 OA
ATOM      2  N   UNL     1      33.007 -13.830 -23.195  0.00  0.00    -0.297 N 
ATOM      3  C   UNL     1      34.085 -14.572 -22.699  0.00  0.00    +0.246 C 
ATOM      4  H   UNL     1      32.477 -14.214 -23.931  0.00  0.00    +0.150 HD
ENDROOT
BRANCH   3   6
ATOM      5  C   UNL     1      34.929 -18.211 -23.150  0.00  0.00    +0.090 C 
ATOM      6  C   UNL     1      34.352 -15.854 -23.333  0.00  0.00    +0.055 C 
ATOM      7  C   UNL     1      34.669 -16.965 -22.552  0.00  0.00    +0.023 C 
ATOM      8  C   UNL     1      34.865 -18.312 -24.549  0.00  0.00    +0.018 C 
ATOM      9  C   UNL     1      34.291 -15.971 -24.722  0.00  0.00    +0.005 C 
ATOM     10  C   UNL     1      34.547 -17.199 -25.330  0.00  0.00    +0.002 C 
BRANCH   5  12
ATOM     11  O   UNL     1      32.881 -21.829 -20.035  0.00  0.00    -0.207 OA
ATOM     12  N   UNL     1      35.245 -19.319 -22.371  0.00  0.00    -0.137 N 
ATOM     13  N   UNL     1      36.379 -19.452 -21.634  0.00  0.00    -0.215 N 
ATOM     14  N   UNL     1      34.201 -20.070 -21.836  0.00  0.00    -0.143 NA
ATOM     15  N   UNL     1      36.759 -20.782 -19.603  0.00  0.00    -0.309 NA
ATOM     16  N   UNL     1      34.843 -22.021 -18.815  0.00  0.00    -0.251 NA
ATOM     17  N   UNL     1      36.853 -22.137 -17.676  0.00  0.00    -0.283 N 
ATOM     18  C   UNL     1      36.122 -20.288 -20.598  0.00  0.00    +0.243 C 
ATOM     19  C   UNL     1      34.708 -20.645 -20.791  0.00  0.00    +0.241 C 
ATOM     20  C   UNL     1      34.057 -21.557 -19.843  0.00  0.00    +0.239 C 
ATOM     21  C   UNL     1      36.103 -21.646 -18.721  0.00  0.00    +0.208 C 
ATOM     22  H   UNL     1      37.241 -19.014 -21.821  0.00  0.00    +0.175 HD
ATOM     23  H   UNL     1      37.797 -21.875 -17.581  0.00  0.00    +0.156 HD
ATOM     24  H   UNL     1      36.444 -22.751 -17.024  0.00  0.00    +0.156 HD
ENDBRANCH   5  12
ENDBRANCH   3   6
BRANCH   2  25
ATOM     25  C   UNL     1      32.631 -12.529 -22.688  0.00  0.00    +0.117 C 
BRANCH  25  26
ATOM     26  C   UNL     1      33.358 -11.421 -23.392  0.00  0.00    +0.003 C 
ATOM     27  C   UNL     1      33.116 -10.082 -23.097  0.00  0.00    +0.027 C 
ATOM     28  C   UNL     1      34.294 -11.771 -24.361  0.00  0.00    -0.002 C 
ATOM     29  C   UNL     1      33.815  -9.085 -23.778  0.00  0.00    +0.006 C 
ATOM     30  C   UNL     1      34.993 -10.774 -25.041  0.00  0.00    -0.000 C 
ATOM     31  C   UNL     1      34.754  -9.432 -24.749  0.00  0.00    +0.000 C 
BRANCH  27  32
ATOM     32  S   UNL     1      31.922  -9.587 -21.861  0.00  0.00    -0.087 S 
BRANCH  32  33
ATOM     33  C   UNL     1      31.695  -7.864 -22.274  0.00  0.00    +0.028 C 
ATOM     34  C   UNL     1      31.878  -6.852 -21.330  0.00  0.00    +0.013 C 
ATOM     35  C   UNL     1      31.322  -7.539 -23.580  0.00  0.00    +0.006 C 
ATOM     36  C   UNL     1      31.691  -5.518 -21.692  0.00  0.00    -0.001 C 
ATOM     37  C   UNL     1      31.135  -6.205 -23.941  0.00  0.00    +0.000 C 
ATOM     38  C   UNL     1      31.319  -5.194 -22.997  0.00  0.00    -0.000 C 
BRANCH  34  39
ATOM     39  C   UNL     1      32.276  -7.148 -19.920  0.00  0.00    +0.164 C 
BRANCH  39  40
ATOM     40  O   UNL     1      33.685  -7.323 -19.859  0.00  0.00    -0.377 OA
ATOM     41  H   UNL     1      33.928  -8.148 -20.309  0.00  0.00    +0.211 HD
ENDBRANCH  39  40
ENDBRANCH  34  39
ENDBRANCH  32  33
ENDBRANCH  27  32
ENDBRANCH  25  26
ENDBRANCH   2  25
TORSDOF 8
ENDMDL
MODEL 4
REMARK VINA RESULT:     -12.1      3.422     11.261
REMARK  Name = 448408
REMARK  8 active torsions:
REMARK  status: ('A' for Active; 'I' for Inactive)
REMARK    1  A    between atoms: N_2  and  C_25
REMARK    2  A    between atoms: C_3  and  C_6
REMARK    3  A    between atoms: C_5  and  N_12
REMARK    4  A    between atoms: C_25  and  C_26
REMARK    5  A    between atoms: C_27  and  S_32
REMARK    6  A    between atoms: S_32  and  C_33
REMARK    7  A    between atoms: C_34  and  C_39
REMARK    8  A    between atoms: C_39  and  O_40
REMARK                            x       y       z     vdW  Elec       q    Type
REMARK                         _______ _______ _______ _____ _____    ______ ____
ROOT
ATOM      1  O   UNL     1      37.066 -19.982 -20.438  0.00  0.00    -0.270 OA
ATOM      2  N   UNL     1      35.169 -19.463 -21.665  0.00  0.00    -0.297 N 
ATOM      3  C   UNL     1      35.847 -20.129 -20.638  0.00  0.00    +0.246 C 
ATOM      4  H   UNL     1      34.203 -19.626 -21.767  0.00  0.00    +0.150 HD
ENDROOT
BRANCH   3   6
ATOM      5  C   UNL     1      34.915 -22.539 -17.903  0.00  0.00    +0.090 C 
ATOM      6  C   UNL     1      35.066 -21.036 -19.811  0.00  0.00    +0.055 C 
ATOM      7  C   UNL     1      35.656 -21.660 -18.712  0.00  0.00    +0.023 C 
ATOM      8  C   UNL     1      33.568 -22.776 -18.226  0.00  0.00    +0.018 C 
ATOM      9  C   UNL     1      33.727 -21.282 -20.118  0.00  0.00    +0.005 C 
ATOM     10  C   UNL     1      32.979 -22.151 -19.326  0.00  0.00    +0.002 C 
BRANCH   5  12
ATOM     11  O   UNL     1      33.894 -24.601 -13.245  0.00  0.00    -0.207 OA
ATOM     12  N   UNL     1      35.502 -23.161 -16.807  0.00  0.00    -0.137 N 
ATOM     13  N   UNL     1      36.727 -22.853 -16.305  0.00  0.00    -0.215 N 
ATOM     14  N   UNL     1      34.671 -23.695 -15.825  0.00  0.00    -0.143 NA
ATOM     15  N   UNL     1      37.573 -23.118 -14.012  0.00  0.00    -0.309 NA
ATOM     16  N   UNL     1      36.000 -24.058 -12.442  0.00  0.00    -0.251 NA
ATOM     17  N   UNL     1      38.130 -23.479 -11.751  0.00  0.00    -0.283 N 
ATOM     18  C   UNL     1      36.743 -23.171 -14.987  0.00  0.00    +0.243 C 
ATOM     19  C   UNL     1      35.393 -23.705 -14.748  0.00  0.00    +0.241 C 
ATOM     20  C   UNL     1      35.024 -24.165 -13.405  0.00  0.00    +0.239 C 
ATOM     21  C   UNL     1      37.184 -23.566 -12.746  0.00  0.00    +0.208 C 
ATOM     22  H   UNL     1      37.476 -22.464 -16.813  0.00  0.00    +0.175 HD
ATOM     23  H   UNL     1      39.023 -23.116 -11.949  0.00  0.00    +0.156 HD
ATOM     24  H   UNL     1      37.913 -23.779 -10.839  0.00  0.00    +0.156 HD
ENDBRANCH   5  12
ENDBRANCH   3   6
BRANCH   2  25
ATOM     25  C   UNL     1      35.809 -18.550 -22.585  0.00  0.00    +0.117 C 
BRANCH  25  26
ATOM     26  C   UNL     1      34.888 -18.134 -23.695  0.00  0.00    +0.003 C 
ATOM     27  C   UNL     1      34.699 -16.796 -24.028  0.00  0.00    +0.027 C 
ATOM     28  C   UNL     1      34.217 -19.135 -24.392  0.00  0.00    -0.002 C 
ATOM     29  C   UNL     1      33.832 -16.456 -25.066  0.00  0.00    +0.006 C 
ATOM     30  C   UNL     1      33.350 -18.795 -25.430  0.00  0.00    -0.000 C 
ATOM     31  C   UNL     1      33.158 -17.456 -25.768  0.00  0.00    +0.000 C 
BRANCH  27  32
ATOM     32  S   UNL     1      35.540 -15.478 -23.160  0.00  0.00    -0.087 S 
BRANCH  32  33
ATOM     33  C   UNL     1      34.166 -14.667 -22.355  0.00  0.00    +0.028 C 
ATOM     34  C   UNL     1      33.485 -13.607 -22.956  0.00  0.00    +0.013 C 
ATOM     35  C   UNL     1      33.778 -15.117 -21.092  0.00  0.00    +0.006 C 
ATOM     36  C   UNL     1      32.417 -13.000 -22.295  0.00  0.00    -0.001 C 
ATOM     37  C   UNL     1      32.710 -14.509 -20.432  0.00  0.00    +0.000 C 
ATOM     38  C   UNL     1      32.030 -13.450 -21.033  0.00  0.00    -0.000 C 
BRANCH  34  39
ATOM     39  C   UNL     1      33.861 -13.088 -24.306  0.00  0.00    +0.164 C 
BRANCH  39  40
ATOM     40  O   UNL     1      34.494 -11.823 -24.162  0.00  0.00    -0.377 OA
ATOM     41  H   UNL     1      34.091 -11.343 -23.422  0.00  0.00    +0.211 HD
ENDBRANCH  39  40
ENDBRANCH  34  39
ENDBRANCH  32  33
ENDBRANCH  27  32
ENDBRANCH  25  26
ENDBRANCH   2  25
TORSDOF 8
ENDMDL
MODEL 5
REMARK VINA RESULT:     -12.1      5.282      9.609
REMARK  Name = 448408
REMARK  8 active torsions:
REMARK  status: ('A' for Active; 'I' for Inactive)
REMARK    1  A    between atoms: N_2  and  C_25
REMARK    2  A    between atoms: C_3  and  C_6
REMARK    3  A    between atoms: C_5  and  N_12
REMARK    4  A    between atoms: C_25  and  C_26
REMARK    5  A    between atoms: C_27  and  S_32
REMARK    6  A    between atoms: S_32  and  C_33
REMARK    7  A    between atoms: C_34  and  C_39
REMARK    8  A    between atoms: C_39  and  O_40
REMARK                            x       y       z     vdW  Elec       q    Type
REMARK                         _______ _______ _______ _____ _____    ______ ____
ROOT
ATOM      1  O   UNL     1      34.571 -13.746 -24.374  0.00  0.00    -0.270 OA
ATOM      2  N   UNL     1      34.610 -15.083 -22.480  0.00  0.00    -0.297 N 
ATOM      3  C   UNL     1      34.168 -13.981 -23.221  0.00  0.00    +0.246 C 
ATOM      4  H   UNL     1      34.249 -15.208 -21.572  0.00  0.00    +0.150 HD
ENDROOT
BRANCH   3   6
ATOM      5  C   UNL     1      32.121 -10.920 -22.449  0.00  0.00    +0.090 C 
ATOM      6  C   UNL     1      33.220 -13.087 -22.574  0.00  0.00    +0.055 C 
ATOM      7  C   UNL     1      33.033 -11.795 -23.064  0.00  0.00    +0.023 C 
ATOM      8  C   UNL     1      31.403 -11.373 -21.330  0.00  0.00    +0.018 C 
ATOM      9  C   UNL     1      32.499 -13.523 -21.461  0.00  0.00    +0.005 C 
ATOM     10  C   UNL     1      31.591 -12.667 -20.840  0.00  0.00    +0.002 C 
BRANCH   5  12
ATOM     11  O   UNL     1      34.638  -6.669 -24.059  0.00  0.00    -0.207 OA
ATOM     12  N   UNL     1      31.933  -9.632 -22.939  0.00  0.00    -0.137 N 
ATOM     13  N   UNL     1      30.942  -8.789 -22.544  0.00  0.00    -0.215 N 
ATOM     14  N   UNL     1      33.045  -8.929 -23.395  0.00  0.00    -0.143 NA
ATOM     15  N   UNL     1      30.905  -6.331 -22.550  0.00  0.00    -0.309 NA
ATOM     16  N   UNL     1      32.915  -5.278 -23.373  0.00  0.00    -0.251 NA
ATOM     17  N   UNL     1      31.131  -3.988 -22.662  0.00  0.00    -0.283 N 
ATOM     18  C   UNL     1      31.365  -7.514 -22.726  0.00  0.00    +0.243 C 
ATOM     19  C   UNL     1      32.721  -7.679 -23.274  0.00  0.00    +0.241 C 
ATOM     20  C   UNL     1      33.516  -6.492 -23.607  0.00  0.00    +0.239 C 
ATOM     21  C   UNL     1      31.694  -5.225 -22.879  0.00  0.00    +0.208 C 
ATOM     22  H   UNL     1      30.065  -9.059 -22.186  0.00  0.00    +0.175 HD
ATOM     23  H   UNL     1      30.221  -3.918 -22.295  0.00  0.00    +0.156 HD
ATOM     24  H   UNL     1      31.640  -3.172 -22.876  0.00  0.00    +0.156 HD
ENDBRANCH   5  12
ENDBRANCH   3   6
BRANCH   2  25
ATOM     25  C   UNL     1      35.567 -16.046 -22.974  0.00  0.00    +0.117 C 
BRANCH  25  26
ATOM     26  C   UNL     1      34.904 -17.153 -23.742  0.00  0.00    +0.003 C 
ATOM     27  C   UNL     1      35.046 -18.488 -23.374  0.00  0.00    +0.027 C 
ATOM     28  C   UNL     1      34.134 -16.805 -24.847  0.00  0.00    -0.002 C 
ATOM     29  C   UNL     1      34.413 -19.483 -24.118  0.00  0.00    +0.006 C 
ATOM     30  C   UNL     1      33.500 -17.800 -25.591  0.00  0.00    -0.000 C 
ATOM     31  C   UNL     1      33.639 -19.138 -25.226  0.00  0.00    +0.000 C 
BRANCH  27  32
ATOM     32  S   UNL     1      36.027 -18.980 -21.962  0.00  0.00    -0.087 S 
BRANCH  32  33
ATOM     33  C   UNL     1      34.865 -20.011 -21.080  0.00  0.00    +0.028 C 
ATOM     34  C   UNL     1      35.289 -20.993 -20.182  0.00  0.00    +0.013 C 
ATOM     35  C   UNL     1      33.502 -19.819 -21.308  0.00  0.00    +0.006 C 
ATOM     36  C   UNL     1      34.351 -21.778 -19.512  0.00  0.00    -0.001 C 
ATOM     37  C   UNL     1      32.564 -20.605 -20.639  0.00  0.00    +0.000 C 
ATOM     38  C   UNL     1      32.988 -21.585 -19.741  0.00  0.00    -0.000 C 
BRANCH  34  39
ATOM     39  C   UNL     1      36.737 -21.238 -19.903  0.00  0.00    +0.164 C 
BRANCH  39  40
ATOM     40  O   UNL     1      36.919 -21.427 -18.506  0.00  0.00    -0.377 OA
ATOM     41  H   UNL     1      37.577 -22.124 -18.357  0.00  0.00    +0.211 HD
ENDBRANCH  39  40
ENDBRANCH  34  39
ENDBRANCH  32  33
ENDBRANCH  27  32
ENDBRANCH  25  26
ENDBRANCH   2  25
TORSDOF 8
ENDMDL
MODEL 6
REMARK VINA RESULT:     -12.0      3.562     11.813
REMARK  Name = 448408
REMARK  8 active torsions:
REMARK  status: ('A' for Active; 'I' for Inactive)
REMARK    1  A    between atoms: N_2  and  C_25
REMARK    2  A    between atoms: C_3  and  C_6
REMARK    3  A    between atoms: C_5  and  N_12
REMARK    4  A    between atoms: C_25  and  C_26
REMARK    5  A    between atoms: C_27  and  S_32
REMARK    6  A    between atoms: S_32  and  C_33
REMARK    7  A    between atoms: C_34  and  C_39
REMARK    8  A    between atoms: C_39  and  O_40
REMARK                            x       y       z     vdW  Elec       q    Type
REMARK                         _______ _______ _______ _____ _____    ______ ____
ROOT
ATOM      1  O   UNL     1      37.036 -19.177 -21.389  0.00  0.00    -0.270 OA
ATOM      2  N   UNL     1      35.082 -18.027 -21.874  0.00  0.00    -0.297 N 
ATOM      3  C   UNL     1      35.798 -19.086 -21.305  0.00  0.00    +0.246 C 
ATOM      4  H   UNL     1      34.102 -18.018 -21.769  0.00  0.00    +0.150 HD
ENDROOT
BRANCH   3   6
ATOM      5  C   UNL     1      34.891 -21.869 -18.940  0.00  0.00    +0.090 C 
ATOM      6  C   UNL     1      35.028 -20.111 -20.617  0.00  0.00    +0.055 C 
ATOM      7  C   UNL     1      35.622 -20.875 -19.613  0.00  0.00    +0.023 C 
ATOM      8  C   UNL     1      33.549 -22.077 -19.301  0.00  0.00    +0.018 C 
ATOM      9  C   UNL     1      33.693 -20.330 -20.963  0.00  0.00    +0.005 C 
ATOM     10  C   UNL     1      32.955 -21.312 -20.305  0.00  0.00    +0.002 C 
BRANCH   5  12
ATOM     11  O   UNL     1      33.857 -24.806 -14.781  0.00  0.00    -0.207 OA
ATOM     12  N   UNL     1      35.483 -22.631 -17.939  0.00  0.00    -0.137 N 
ATOM     13  N   UNL     1      36.655 -22.324 -17.322  0.00  0.00    -0.215 N 
ATOM     14  N   UNL     1      34.661 -23.394 -17.114  0.00  0.00    -0.143 NA
ATOM     15  N   UNL     1      37.424 -22.931 -15.068  0.00  0.00    -0.309 NA
ATOM     16  N   UNL     1      35.873 -24.256 -13.778  0.00  0.00    -0.251 NA
ATOM     17  N   UNL     1      37.915 -23.647 -12.877  0.00  0.00    -0.283 N 
ATOM     18  C   UNL     1      36.644 -22.872 -16.082  0.00  0.00    +0.243 C 
ATOM     19  C   UNL     1      35.336 -23.542 -16.017  0.00  0.00    +0.241 C 
ATOM     20  C   UNL     1      34.952 -24.263 -14.798  0.00  0.00    +0.239 C 
ATOM     21  C   UNL     1      37.023 -23.627 -13.924  0.00  0.00    +0.208 C 
ATOM     22  H   UNL     1      37.388 -21.794 -17.711  0.00  0.00    +0.175 HD
ATOM     23  H   UNL     1      38.781 -23.187 -12.958  0.00  0.00    +0.156 HD
ATOM     24  H   UNL     1      37.686 -24.123 -12.045  0.00  0.00    +0.156 HD
ENDBRANCH   5  12
ENDBRANCH   3   6
BRANCH   2  25
ATOM     25  C   UNL     1      35.700 -16.947 -22.608  0.00  0.00    +0.117 C 
BRANCH  25  26
ATOM     26  C   UNL     1      34.826 -16.454 -23.724  0.00  0.00    +0.003 C 
ATOM     27  C   UNL     1      34.118 -15.259 -23.627  0.00  0.00    +0.027 C 
ATOM     28  C   UNL     1      34.738 -17.233 -24.873  0.00  0.00    -0.002 C 
ATOM     29  C   UNL     1      33.316 -14.841 -24.689  0.00  0.00    +0.006 C 
ATOM     30  C   UNL     1      33.937 -16.815 -25.935  0.00  0.00    -0.000 C 
ATOM     31  C   UNL     1      33.226 -15.619 -25.844  0.00  0.00    +0.000 C 
BRANCH  27  32
ATOM     32  S   UNL     1      34.201 -14.227 -22.170  0.00  0.00    -0.087 S 
BRANCH  32  33
ATOM     33  C   UNL     1      33.682 -12.652 -22.835  0.00  0.00    +0.028 C 
ATOM     34  C   UNL     1      32.631 -11.926 -22.270  0.00  0.00    +0.013 C 
ATOM     35  C   UNL     1      34.354 -12.149 -23.950  0.00  0.00    +0.006 C 
ATOM     36  C   UNL     1      32.255 -10.700 -22.818  0.00  0.00    -0.001 C 
ATOM     37  C   UNL     1      33.977 -10.923 -24.498  0.00  0.00    +0.000 C 
ATOM     38  C   UNL     1      32.928 -10.198 -23.932  0.00  0.00    -0.000 C 
BRANCH  34  39
ATOM     39  C   UNL     1      31.879 -12.421 -21.076  0.00  0.00    +0.164 C 
BRANCH  39  40
ATOM     40  O   UNL     1      31.916 -11.432 -20.057  0.00  0.00    -0.377 OA
ATOM     41  H   UNL     1      32.832 -11.299 -19.768  0.00  0.00    +0.211 HD
ENDBRANCH  39  40
ENDBRANCH  34  39
ENDBRANCH  32  33
ENDBRANCH  27  32
ENDBRANCH  25  26
ENDBRANCH   2  25
TORSDOF 8
ENDMDL
MODEL 7
REMARK VINA RESULT:     -11.9      4.129     10.582
REMARK  Name = 448408
REMARK  8 active torsions:
REMARK  status: ('A' for Active; 'I' for Inactive)
REMARK    1  A    between atoms: N_2  and  C_25
REMARK    2  A    between atoms: C_3  and  C_6
REMARK    3  A    between atoms: C_5  and  N_12
REMARK    4  A    between atoms: C_25  and  C_26
REMARK    5  A    between atoms: C_27  and  S_32
REMARK    6  A    between atoms: S_32  and  C_33
REMARK    7  A    between atoms: C_34  and  C_39
REMARK    8  A    between atoms: C_39  and  O_40
REMARK                            x       y       z     vdW  Elec       q    Type
REMARK                         _______ _______ _______ _____ _____    ______ ____
ROOT
ATOM      1  O   UNL     1      30.895 -22.411 -17.579  0.00  0.00    -0.270 OA
ATOM      2  N   UNL     1      33.168 -22.734 -17.907  0.00  0.00    -0.297 N 
ATOM      3  C   UNL     1      31.985 -22.849 -17.168  0.00  0.00    +0.246 C 
ATOM      4  H   UNL     1      33.995 -23.103 -17.521  0.00  0.00    +0.150 HD
ENDROOT
BRANCH   3   6
ATOM      5  C   UNL     1      33.426 -24.528 -14.125  0.00  0.00    +0.090 C 
ATOM      6  C   UNL     1      32.079 -23.488 -15.865  0.00  0.00    +0.055 C 
ATOM      7  C   UNL     1      33.319 -23.908 -15.382  0.00  0.00    +0.023 C 
ATOM      8  C   UNL     1      32.259 -24.717 -13.366  0.00  0.00    +0.018 C 
ATOM      9  C   UNL     1      30.929 -23.683 -15.099  0.00  0.00    +0.005 C 
ATOM     10  C   UNL     1      31.019 -24.297 -13.850  0.00  0.00    +0.002 C 
BRANCH   5  12
ATOM     11  O   UNL     1      37.502 -23.032 -11.272  0.00  0.00    -0.207 OA
ATOM     12  N   UNL     1      34.662 -24.945 -13.643  0.00  0.00    -0.137 N 
ATOM     13  N   UNL     1      35.539 -25.724 -14.329  0.00  0.00    -0.215 N 
ATOM     14  N   UNL     1      35.317 -24.137 -12.717  0.00  0.00    -0.143 NA
ATOM     15  N   UNL     1      37.985 -25.853 -14.124  0.00  0.00    -0.309 NA
ATOM     16  N   UNL     1      38.954 -24.386 -12.470  0.00  0.00    -0.251 NA
ATOM     17  N   UNL     1      40.307 -25.780 -13.726  0.00  0.00    -0.283 N 
ATOM     18  C   UNL     1      36.791 -25.459 -13.881  0.00  0.00    +0.243 C 
ATOM     19  C   UNL     1      36.573 -24.433 -12.849  0.00  0.00    +0.241 C 
ATOM     20  C   UNL     1      37.723 -23.884 -12.121  0.00  0.00    +0.239 C 
ATOM     21  C   UNL     1      39.054 -25.306 -13.409  0.00  0.00    +0.208 C 
ATOM     22  H   UNL     1      35.304 -26.372 -15.032  0.00  0.00    +0.175 HD
ATOM     23  H   UNL     1      40.412 -26.467 -14.422  0.00  0.00    +0.156 HD
ATOM     24  H   UNL     1      41.098 -25.431 -13.255  0.00  0.00    +0.156 HD
ENDBRANCH   5  12
ENDBRANCH   3   6
BRANCH   2  25
ATOM     25  C   UNL     1      33.241 -22.104 -19.206  0.00  0.00    +0.117 C 
BRANCH  25  26
ATOM     26  C   UNL     1      34.628 -21.623 -19.519  0.00  0.00    +0.003 C 
ATOM     27  C   UNL     1      34.881 -20.747 -20.571  0.00  0.00    +0.027 C 
ATOM     28  C   UNL     1      35.670 -22.083 -18.719  0.00  0.00    -0.002 C 
ATOM     29  C   UNL     1      36.187 -20.328 -20.825  0.00  0.00    +0.006 C 
ATOM     30  C   UNL     1      36.976 -21.664 -18.973  0.00  0.00    -0.000 C 
ATOM     31  C   UNL     1      37.234 -20.787 -20.025  0.00  0.00    +0.000 C 
BRANCH  27  32
ATOM     32  S   UNL     1      33.573 -20.132 -21.623  0.00  0.00    -0.087 S 
BRANCH  32  33
ATOM     33  C   UNL     1      34.328 -18.651 -22.278  0.00  0.00    +0.028 C 
ATOM     34  C   UNL     1      34.523 -18.470 -23.648  0.00  0.00    +0.013 C 
ATOM     35  C   UNL     1      34.729 -17.659 -21.381  0.00  0.00    +0.006 C 
ATOM     36  C   UNL     1      35.116 -17.299 -24.121  0.00  0.00    -0.001 C 
ATOM     37  C   UNL     1      35.323 -16.488 -21.854  0.00  0.00    +0.000 C 
ATOM     38  C   UNL     1      35.516 -16.309 -23.224  0.00  0.00    -0.000 C 
BRANCH  34  39
ATOM     39  C   UNL     1      34.112 -19.502 -24.649  0.00  0.00    +0.164 C 
BRANCH  39  40
ATOM     40  O   UNL     1      33.662 -18.854 -25.832  0.00  0.00    -0.377 OA
ATOM     41  H   UNL     1      32.712 -18.674 -25.760  0.00  0.00    +0.211 HD
ENDBRANCH  39  40
ENDBRANCH  34  39
ENDBRANCH  32  33
ENDBRANCH  27  32
ENDBRANCH  25  26
ENDBRANCH   2  25
TORSDOF 8
ENDMDL
MODEL 8
REMARK VINA RESULT:     -11.9      5.498     12.958
REMARK  Name = 448408
REMARK  8 active torsions:
REMARK  status: ('A' for Active; 'I' for Inactive)
REMARK    1  A    between atoms: N_2  and  C_25
REMARK    2  A    between atoms: C_3  and  C_6
REMARK    3  A    between atoms: C_5  and  N_12
REMARK    4  A    between atoms: C_25  and  C_26
REMARK    5  A    between atoms: C_27  and  S_32
REMARK    6  A    between atoms: S_32  and  C_33
REMARK    7  A    between atoms: C_34  and  C_39
REMARK    8  A    between atoms: C_39  and  O_40
REMARK                            x       y       z     vdW  Elec       q    Type
REMARK                         _______ _______ _______ _____ _____    ______ ____
ROOT
ATOM      1  O   UNL     1      35.098 -14.349 -22.089  0.00  0.00    -0.270 OA
ATOM      2  N   UNL     1      34.068 -13.558 -24.009  0.00  0.00    -0.297 N 
ATOM      3  C   UNL     1      34.567 -14.577 -23.190  0.00  0.00    +0.246 C 
ATOM      4  H   UNL     1      33.659 -13.810 -24.870  0.00  0.00    +0.150 HD
ENDROOT
BRANCH   3   6
ATOM      5  C   UNL     1      34.719 -18.334 -23.346  0.00  0.00    +0.090 C 
ATOM      6  C   UNL     1      34.462 -15.938 -23.692  0.00  0.00    +0.055 C 
ATOM      7  C   UNL     1      34.814 -17.013 -22.875  0.00  0.00    +0.023 C 
ATOM      8  C   UNL     1      34.263 -18.549 -24.657  0.00  0.00    +0.018 C 
ATOM      9  C   UNL     1      34.011 -16.169 -24.993  0.00  0.00    +0.005 C 
ATOM     10  C   UNL     1      33.911 -17.474 -25.475  0.00  0.00    +0.002 C 
BRANCH   5  12
ATOM     11  O   UNL     1      32.804 -21.825 -20.010  0.00  0.00    -0.207 OA
ATOM     12  N   UNL     1      35.069 -19.404 -22.531  0.00  0.00    -0.137 N 
ATOM     13  N   UNL     1      36.228 -19.497 -21.827  0.00  0.00    -0.215 N 
ATOM     14  N   UNL     1      34.049 -20.138 -21.929  0.00  0.00    -0.143 NA
ATOM     15  N   UNL     1      36.686 -20.734 -19.753  0.00  0.00    -0.309 NA
ATOM     16  N   UNL     1      34.807 -21.950 -18.849  0.00  0.00    -0.251 NA
ATOM     17  N   UNL     1      36.854 -22.002 -17.774  0.00  0.00    -0.283 N 
ATOM     18  C   UNL     1      36.012 -20.289 -20.748  0.00  0.00    +0.243 C 
ATOM     19  C   UNL     1      34.595 -20.663 -20.877  0.00  0.00    +0.241 C 
ATOM     20  C   UNL     1      33.983 -21.537 -19.869  0.00  0.00    +0.239 C 
ATOM     21  C   UNL     1      36.067 -21.563 -18.813  0.00  0.00    +0.208 C 
ATOM     22  H   UNL     1      37.080 -19.063 -22.062  0.00  0.00    +0.175 HD
ATOM     23  H   UNL     1      37.799 -21.730 -17.722  0.00  0.00    +0.156 HD
ATOM     24  H   UNL     1      36.472 -22.589 -17.082  0.00  0.00    +0.156 HD
ENDBRANCH   5  12
ENDBRANCH   3   6
BRANCH   2  25
ATOM     25  C   UNL     1      34.120 -12.156 -23.662  0.00  0.00    +0.117 C 
BRANCH  25  26
ATOM     26  C   UNL     1      32.945 -11.742 -22.823  0.00  0.00    +0.003 C 
ATOM     27  C   UNL     1      32.547 -10.412 -22.726  0.00  0.00    +0.027 C 
ATOM     28  C   UNL     1      32.256 -12.736 -22.135  0.00  0.00    -0.002 C 
ATOM     29  C   UNL     1      31.450 -10.073 -21.933  0.00  0.00    +0.006 C 
ATOM     30  C   UNL     1      31.160 -12.398 -21.343  0.00  0.00    -0.000 C 
ATOM     31  C   UNL     1      30.756 -11.067 -21.242  0.00  0.00    +0.000 C 
BRANCH  27  32
ATOM     32  S   UNL     1      33.403  -9.102 -23.592  0.00  0.00    -0.087 S 
BRANCH  32  33
ATOM     33  C   UNL     1      32.442  -7.680 -23.099  0.00  0.00    +0.028 C 
ATOM     34  C   UNL     1      32.680  -7.013 -21.896  0.00  0.00    +0.013 C 
ATOM     35  C   UNL     1      31.428  -7.236 -23.951  0.00  0.00    +0.006 C 
ATOM     36  C   UNL     1      31.908  -5.905 -21.547  0.00  0.00    -0.001 C 
ATOM     37  C   UNL     1      30.656  -6.129 -23.601  0.00  0.00    +0.000 C 
ATOM     38  C   UNL     1      30.896  -5.463 -22.399  0.00  0.00    -0.000 C 
BRANCH  34  39
ATOM     39  C   UNL     1      33.753  -7.447 -20.950  0.00  0.00    +0.164 C 
BRANCH  39  40
ATOM     40  O   UNL     1      33.156  -7.910 -19.746  0.00  0.00    -0.377 OA
ATOM     41  H   UNL     1      33.666  -7.587 -18.987  0.00  0.00    +0.211 HD
ENDBRANCH  39  40
ENDBRANCH  34  39
ENDBRANCH  32  33
ENDBRANCH  27  32
ENDBRANCH  25  26
ENDBRANCH   2  25
TORSDOF 8
ENDMDL
MODEL 9
REMARK VINA RESULT:     -11.5      1.557      1.881
REMARK  Name = 448408
REMARK  8 active torsions:
REMARK  status: ('A' for Active; 'I' for Inactive)
REMARK    1  A    between atoms: N_2  and  C_25
REMARK    2  A    between atoms: C_3  and  C_6
REMARK    3  A    between atoms: C_5  and  N_12
REMARK    4  A    between atoms: C_25  and  C_26
REMARK    5  A    between atoms: C_27  and  S_32
REMARK    6  A    between atoms: S_32  and  C_33
REMARK    7  A    between atoms: C_34  and  C_39
REMARK    8  A    between atoms: C_39  and  O_40
REMARK                            x       y       z     vdW  Elec       q    Type
REMARK                         _______ _______ _______ _____ _____    ______ ____
ROOT
ATOM      1  O   UNL     1      34.218 -23.998 -20.005  0.00  0.00    -0.270 OA
ATOM      2  N   UNL     1      33.968 -22.984 -17.935  0.00  0.00    -0.297 N 
ATOM      3  C   UNL     1      34.414 -23.020 -19.262  0.00  0.00    +0.246 C 
ATOM      4  H   UNL     1      34.158 -22.178 -17.402  0.00  0.00    +0.150 HD
ENDROOT
BRANCH   3   6
ATOM      5  C   UNL     1      35.252 -19.858 -21.120  0.00  0.00    +0.090 C 
ATOM      6  C   UNL     1      35.150 -21.862 -19.743  0.00  0.00    +0.055 C 
ATOM      7  C   UNL     1      34.553 -20.982 -20.645  0.00  0.00    +0.023 C 
ATOM      8  C   UNL     1      36.564 -19.641 -20.667  0.00  0.00    +0.018 C 
ATOM      9  C   UNL     1      36.454 -21.632 -19.302  0.00  0.00    +0.005 C 
ATOM     10  C   UNL     1      37.160 -20.523 -19.764  0.00  0.00    +0.002 C 
BRANCH   5  12
ATOM     11  O   UNL     1      33.255 -19.516 -25.904  0.00  0.00    -0.207 OA
ATOM     12  N   UNL     1      34.657 -18.980 -22.019  0.00  0.00    -0.137 N 
ATOM     13  N   UNL     1      34.991 -17.669 -22.159  0.00  0.00    -0.215 N 
ATOM     14  N   UNL     1      34.128 -19.497 -23.199  0.00  0.00    -0.143 NA
ATOM     15  N   UNL     1      34.776 -16.219 -24.131  0.00  0.00    -0.309 NA
ATOM     16  N   UNL     1      33.841 -17.280 -26.087  0.00  0.00    -0.251 NA
ATOM     17  N   UNL     1      34.461 -15.053 -26.155  0.00  0.00    -0.283 N 
ATOM     18  C   UNL     1      34.695 -17.284 -23.425  0.00  0.00    +0.243 C 
ATOM     19  C   UNL     1      34.147 -18.506 -24.034  0.00  0.00    +0.241 C 
ATOM     20  C   UNL     1      33.704 -18.481 -25.433  0.00  0.00    +0.239 C 
ATOM     21  C   UNL     1      34.344 -16.235 -25.461  0.00  0.00    +0.208 C 
ATOM     22  H   UNL     1      35.382 -17.097 -21.459  0.00  0.00    +0.175 HD
ATOM     23  H   UNL     1      34.833 -14.256 -25.713  0.00  0.00    +0.156 HD
ATOM     24  H   UNL     1      34.173 -15.004 -27.096  0.00  0.00    +0.156 HD
ENDBRANCH   5  12
ENDBRANCH   3   6
BRANCH   2  25
ATOM     25  C   UNL     1      33.245 -24.065 -17.305  0.00  0.00    +0.117 C 
BRANCH  25  26
ATOM     26  C   UNL     1      33.055 -23.831 -15.834  0.00  0.00    +0.003 C 
ATOM     27  C   UNL     1      34.019 -24.204 -14.902  0.00  0.00    +0.027 C 
ATOM     28  C   UNL     1      31.873 -23.223 -15.421  0.00  0.00    -0.002 C 
ATOM     29  C   UNL     1      33.799 -23.968 -13.545  0.00  0.00    +0.006 C 
ATOM     30  C   UNL     1      31.653 -22.986 -14.064  0.00  0.00    -0.000 C 
ATOM     31  C   UNL     1      32.616 -23.358 -13.127  0.00  0.00    +0.000 C 
BRANCH  27  32
ATOM     32  S   UNL     1      35.551 -24.988 -15.388  0.00  0.00    -0.087 S 
BRANCH  32  33
ATOM     33  C   UNL     1      36.569 -24.669 -13.955  0.00  0.00    +0.028 C 
ATOM     34  C   UNL     1      37.309 -25.681 -13.341  0.00  0.00    +0.013 C 
ATOM     35  C   UNL     1      36.613 -23.370 -13.449  0.00  0.00    +0.006 C 
ATOM     36  C   UNL     1      38.093 -25.393 -12.224  0.00  0.00    -0.001 C 
ATOM     37  C   UNL     1      37.396 -23.082 -12.331  0.00  0.00    +0.000 C 
ATOM     38  C   UNL     1      38.136 -24.093 -11.718  0.00  0.00    -0.000 C 
BRANCH  34  39
ATOM     39  C   UNL     1      37.296 -27.089 -13.844  0.00  0.00    +0.164 C 
BRANCH  39  40
ATOM     40  O   UNL     1      38.453 -27.312 -14.639  0.00  0.00    -0.377 OA
ATOM     41  H   UNL     1      39.123 -26.643 -14.430  0.00  0.00    +0.211 HD
ENDBRANCH  39  40
ENDBRANCH  34  39
ENDBRANCH  32  33
ENDBRANCH  27  32
ENDBRANCH  25  26
ENDBRANCH   2  25
TORSDOF 8
ENDMDL
