MODEL 1
REMARK VINA RESULT:     -11.4      0.000      0.000
REMARK  Name = 72696796
REMARK  9 active torsions:
REMARK  status: ('A' for Active; 'I' for Inactive)
REMARK    1  A    between atoms: N_2  and  C_29
REMARK    2  A    between atoms: C_10  and  C_12
REMARK    3  A    between atoms: C_13  and  C_16
REMARK    4  A    between atoms: N_15  and  C_18
REMARK    5  A    between atoms: C_18  and  C_20
REMARK    6  A    between atoms: C_29  and  O_30
REMARK    7  A    between atoms: O_30  and  P_31
REMARK    8  A    between atoms: P_31  and  O_33
REMARK    9  A    between atoms: P_31  and  O_35
REMARK                            x       y       z     vdW  Elec       q    Type
REMARK                         _______ _______ _______ _____ _____    ______ ____
ROOT
ATOM      1  O   UNL     1      31.908  -7.631 -20.054  0.00  0.00    -0.274 OA
ATOM      2  N   UNL     1      32.605  -8.984 -21.818  0.00  0.00    -0.217 N 
ATOM      3  N   UNL     1      33.378 -10.463 -23.551  0.00  0.00    -0.229 NA
ATOM      4  C   UNL     1      31.386 -11.152 -20.425  0.00  0.00    +0.039 C 
ATOM      5  C   UNL     1      32.172 -11.377 -21.677  0.00  0.00    +0.010 C 
ATOM      6  C   UNL     1      31.960  -9.978 -19.659  0.00  0.00    +0.090 C 
ATOM      7  C   UNL     1      32.737 -10.300 -22.365  0.00  0.00    +0.135 C 
ATOM      8  C   UNL     1      32.118  -8.749 -20.529  0.00  0.00    +0.233 C 
ATOM      9  C   UNL     1      32.280 -12.655 -22.235  0.00  0.00    +0.000 C 
ATOM     10  C   UNL     1      32.948 -12.835 -23.438  0.00  0.00    +0.019 C 
ATOM     11  C   UNL     1      33.474 -11.715 -24.051  0.00  0.00    +0.100 C 
ENDROOT
BRANCH  10  12
ATOM     12  C   UNL     1      33.102 -14.153 -24.023  0.00  0.00    +0.006 C 
ATOM     13  C   UNL     1      34.158 -14.978 -23.828  0.00  0.00    +0.058 C 
BRANCH  13  16
ATOM     14  O   UNL     1      33.782 -16.416 -25.663  0.00  0.00    -0.270 OA
ATOM     15  N   UNL     1      34.801 -17.345 -23.793  0.00  0.00    -0.267 N 
ATOM     16  C   UNL     1      34.216 -16.302 -24.515  0.00  0.00    +0.250 C 
ATOM     17  C   UNL     1      34.923 -18.662 -24.407  0.00  0.00    +0.116 C 
BRANCH  15  18
ATOM     18  C   UNL     1      35.354 -17.228 -22.445  0.00  0.00    +0.158 C 
BRANCH  18  20
ATOM     19  O   UNL     1      34.028 -18.986 -21.425  0.00  0.00    -0.456 OA
ATOM     20  C   UNL     1      35.278 -18.525 -21.692  0.00  0.00    +0.139 A 
ATOM     21  C   UNL     1      36.230 -19.384 -21.194  0.00  0.00    +0.013 A 
ATOM     22  C   UNL     1      35.525 -20.450 -20.576  0.00  0.00    +0.033 A 
ATOM     23  C   UNL     1      34.175 -20.157 -20.744  0.00  0.00    +0.145 A 
ATOM     24  C   UNL     1      37.694 -19.226 -21.287  0.00  0.00    +0.034 C 
ATOM     25  C   UNL     1      35.877 -21.626 -19.893  0.00  0.00    +0.003 C 
ATOM     26  C   UNL     1      33.138 -20.961 -20.278  0.00  0.00    +0.037 C 
ATOM     27  C   UNL     1      34.855 -22.456 -19.411  0.00  0.00    +0.000 C 
ATOM     28  C   UNL     1      33.510 -22.126 -19.601  0.00  0.00    +0.003 C 
ENDBRANCH  18  20
ENDBRANCH  15  18
ENDBRANCH  13  16
ENDBRANCH  10  12
BRANCH   2  29
ATOM     29  C   UNL     1      32.997  -7.866 -22.669  0.00  0.00    +0.257 C 
BRANCH  29  30
ATOM     30  O   UNL     1      31.830  -7.209 -23.129  0.00  0.00    -0.251 OA
BRANCH  30  31
ATOM     31  P   UNL     1      31.817  -5.591 -23.155  0.00  0.00    +0.475 P 
ATOM     32  O   UNL     1      30.531  -4.962 -23.606  0.00  0.00    -0.227 OA
BRANCH  31  33
ATOM     33  O   UNL     1      33.110  -5.224 -24.054  0.00  0.00    -0.303 OA
ATOM     34  H   UNL     1      32.882  -5.298 -24.994  0.00  0.00    +0.222 HD
ENDBRANCH  31  33
BRANCH  31  35
ATOM     35  O   UNL     1      32.283  -5.180 -21.661  0.00  0.00    -0.303 OA
ATOM     36  H   UNL     1      33.170  -5.534 -21.490  0.00  0.00    +0.222 HD
ENDBRANCH  31  35
ENDBRANCH  30  31
ENDBRANCH  29  30
ENDBRANCH   2  29
TORSDOF 9
ENDMDL
MODEL 2
REMARK VINA RESULT:     -10.8      5.702     12.124
REMARK  Name = 72696796
REMARK  9 active torsions:
REMARK  status: ('A' for Active; 'I' for Inactive)
REMARK    1  A    between atoms: N_2  and  C_29
REMARK    2  A    between atoms: C_10  and  C_12
REMARK    3  A    between atoms: C_13  and  C_16
REMARK    4  A    between atoms: N_15  and  C_18
REMARK    5  A    between atoms: C_18  and  C_20
REMARK    6  A    between atoms: C_29  and  O_30
REMARK    7  A    between atoms: O_30  and  P_31
REMARK    8  A    between atoms: P_31  and  O_33
REMARK    9  A    between atoms: P_31  and  O_35
REMARK                            x       y       z     vdW  Elec       q    Type
REMARK                         _______ _______ _______ _____ _____    ______ ____
ROOT
ATOM      1  O   UNL     1      34.776 -23.768 -15.001  0.00  0.00    -0.274 OA
ATOM      2  N   UNL     1      35.666 -22.572 -16.791  0.00  0.00    -0.217 N 
ATOM      3  N   UNL     1      36.538 -21.428 -18.720  0.00  0.00    -0.229 NA
ATOM      4  C   UNL     1      33.081 -22.741 -17.981  0.00  0.00    +0.039 C 
ATOM      5  C   UNL     1      34.239 -22.147 -18.719  0.00  0.00    +0.010 C 
ATOM      6  C   UNL     1      33.568 -23.833 -17.051  0.00  0.00    +0.090 C 
ATOM      7  C   UNL     1      35.492 -22.044 -18.110  0.00  0.00    +0.135 C 
ATOM      8  C   UNL     1      34.704 -23.367 -16.164  0.00  0.00    +0.233 C 
ATOM      9  C   UNL     1      34.071 -21.601 -19.995  0.00  0.00    +0.000 C 
ATOM     10  C   UNL     1      35.138 -20.986 -20.635  0.00  0.00    +0.019 C 
ATOM     11  C   UNL     1      36.340 -20.925 -19.959  0.00  0.00    +0.100 C 
ENDROOT
BRANCH  10  12
ATOM     12  C   UNL     1      34.999 -20.438 -21.971  0.00  0.00    +0.006 C 
ATOM     13  C   UNL     1      34.623 -19.170 -22.262  0.00  0.00    +0.058 C 
BRANCH  13  16
ATOM     14  O   UNL     1      33.887 -19.451 -24.488  0.00  0.00    -0.270 OA
ATOM     15  N   UNL     1      35.038 -17.491 -24.002  0.00  0.00    -0.267 N 
ATOM     16  C   UNL     1      34.485 -18.734 -23.683  0.00  0.00    +0.250 C 
ATOM     17  C   UNL     1      34.916 -16.981 -25.362  0.00  0.00    +0.116 C 
BRANCH  15  18
ATOM     18  C   UNL     1      35.720 -16.608 -23.058  0.00  0.00    +0.158 C 
BRANCH  18  20
ATOM     19  O   UNL     1      34.304 -14.662 -23.370  0.00  0.00    -0.456 OA
ATOM     20  C   UNL     1      34.793 -15.573 -22.488  0.00  0.00    +0.139 A 
ATOM     21  C   UNL     1      34.311 -15.333 -21.222  0.00  0.00    +0.013 A 
ATOM     22  C   UNL     1      33.465 -14.198 -21.324  0.00  0.00    +0.033 A 
ATOM     23  C   UNL     1      33.495 -13.822 -22.663  0.00  0.00    +0.145 A 
ATOM     24  C   UNL     1      34.614 -16.107 -20.003  0.00  0.00    +0.034 C 
ATOM     25  C   UNL     1      32.679 -13.446 -20.434  0.00  0.00    +0.003 C 
ATOM     26  C   UNL     1      32.791 -12.740 -23.188  0.00  0.00    +0.037 C 
ATOM     27  C   UNL     1      31.959 -12.351 -20.932  0.00  0.00    +0.000 C 
ATOM     28  C   UNL     1      32.016 -12.007 -22.285  0.00  0.00    +0.003 C 
ENDBRANCH  18  20
ENDBRANCH  15  18
ENDBRANCH  13  16
ENDBRANCH  10  12
BRANCH   2  29
ATOM     29  C   UNL     1      36.907 -22.241 -16.098  0.00  0.00    +0.257 C 
BRANCH  29  30
ATOM     30  O   UNL     1      37.840 -23.286 -16.306  0.00  0.00    -0.251 OA
BRANCH  30  31
ATOM     31  P   UNL     1      38.149 -24.296 -15.081  0.00  0.00    +0.475 P 
ATOM     32  O   UNL     1      37.940 -23.730 -13.706  0.00  0.00    -0.227 OA
BRANCH  31  33
ATOM     33  O   UNL     1      39.653 -24.803 -15.389  0.00  0.00    -0.303 OA
ATOM     34  H   UNL     1      40.040 -24.260 -16.094  0.00  0.00    +0.222 HD
ENDBRANCH  31  33
BRANCH  31  35
ATOM     35  O   UNL     1      37.249 -25.597 -15.421  0.00  0.00    -0.303 OA
ATOM     36  H   UNL     1      36.512 -25.654 -14.793  0.00  0.00    +0.222 HD
ENDBRANCH  31  35
ENDBRANCH  30  31
ENDBRANCH  29  30
ENDBRANCH   2  29
TORSDOF 9
ENDMDL
MODEL 3
REMARK VINA RESULT:     -10.8      5.527     11.502
REMARK  Name = 72696796
REMARK  9 active torsions:
REMARK  status: ('A' for Active; 'I' for Inactive)
REMARK    1  A    between atoms: N_2  and  C_29
REMARK    2  A    between atoms: C_10  and  C_12
REMARK    3  A    between atoms: C_13  and  C_16
REMARK    4  A    between atoms: N_15  and  C_18
REMARK    5  A    between atoms: C_18  and  C_20
REMARK    6  A    between atoms: C_29  and  O_30
REMARK    7  A    between atoms: O_30  and  P_31
REMARK    8  A    between atoms: P_31  and  O_33
REMARK    9  A    between atoms: P_31  and  O_35
REMARK                            x       y       z     vdW  Elec       q    Type
REMARK                         _______ _______ _______ _____ _____    ______ ____
ROOT
ATOM      1  O   UNL     1      35.909 -23.558 -16.330  0.00  0.00    -0.274 OA
ATOM      2  N   UNL     1      34.488 -22.655 -17.940  0.00  0.00    -0.217 N 
ATOM      3  N   UNL     1      33.080 -21.608 -19.586  0.00  0.00    -0.229 NA
ATOM      4  C   UNL     1      36.833 -21.674 -19.229  0.00  0.00    +0.039 C 
ATOM      5  C   UNL     1      35.467 -21.321 -19.727  0.00  0.00    +0.010 C 
ATOM      6  C   UNL     1      36.804 -21.849 -17.725  0.00  0.00    +0.090 C 
ATOM      7  C   UNL     1      34.329 -21.836 -19.103  0.00  0.00    +0.135 C 
ATOM      8  C   UNL     1      35.710 -22.797 -17.279  0.00  0.00    +0.233 C 
ATOM      9  C   UNL     1      35.304 -20.548 -20.881  0.00  0.00    +0.000 C 
ATOM     10  C   UNL     1      34.031 -20.293 -21.373  0.00  0.00    +0.019 C 
ATOM     11  C   UNL     1      32.961 -20.843 -20.695  0.00  0.00    +0.100 C 
ENDROOT
BRANCH  10  12
ATOM     12  C   UNL     1      33.831 -19.468 -22.549  0.00  0.00    +0.006 C 
ATOM     13  C   UNL     1      34.678 -19.387 -23.602  0.00  0.00    +0.058 C 
BRANCH  13  16
ATOM     14  O   UNL     1      33.770 -18.902 -25.726  0.00  0.00    -0.270 OA
ATOM     15  N   UNL     1      34.794 -17.147 -24.597  0.00  0.00    -0.267 N 
ATOM     16  C   UNL     1      34.376 -18.473 -24.743  0.00  0.00    +0.250 C 
ATOM     17  C   UNL     1      34.509 -16.187 -25.655  0.00  0.00    +0.116 C 
BRANCH  15  18
ATOM     18  C   UNL     1      35.484 -16.608 -23.427  0.00  0.00    +0.158 C 
BRANCH  18  20
ATOM     19  O   UNL     1      34.065 -14.639 -23.468  0.00  0.00    -0.456 OA
ATOM     20  C   UNL     1      34.645 -15.597 -22.698  0.00  0.00    +0.139 A 
ATOM     21  C   UNL     1      34.321 -15.419 -21.373  0.00  0.00    +0.013 A 
ATOM     22  C   UNL     1      33.483 -14.274 -21.316  0.00  0.00    +0.033 A 
ATOM     23  C   UNL     1      33.358 -13.831 -22.629  0.00  0.00    +0.145 A 
ATOM     24  C   UNL     1      34.758 -16.255 -20.239  0.00  0.00    +0.034 C 
ATOM     25  C   UNL     1      32.820 -13.563 -20.301  0.00  0.00    +0.003 C 
ATOM     26  C   UNL     1      32.610 -12.719 -23.010  0.00  0.00    +0.037 C 
ATOM     27  C   UNL     1      32.059 -12.440 -20.654  0.00  0.00    +0.000 C 
ATOM     28  C   UNL     1      31.958 -12.027 -21.985  0.00  0.00    +0.003 C 
ENDBRANCH  18  20
ENDBRANCH  15  18
ENDBRANCH  13  16
ENDBRANCH  10  12
BRANCH   2  29
ATOM     29  C   UNL     1      33.306 -23.362 -17.455  0.00  0.00    +0.257 C 
BRANCH  29  30
ATOM     30  O   UNL     1      32.889 -22.775 -16.237  0.00  0.00    -0.251 OA
BRANCH  30  31
ATOM     31  P   UNL     1      32.410 -23.749 -15.037  0.00  0.00    +0.475 P 
ATOM     32  O   UNL     1      31.182 -24.565 -15.317  0.00  0.00    -0.227 OA
BRANCH  31  33
ATOM     33  O   UNL     1      32.294 -22.749 -13.772  0.00  0.00    -0.303 OA
ATOM     34  H   UNL     1      33.056 -22.878 -13.186  0.00  0.00    +0.222 HD
ENDBRANCH  31  33
BRANCH  31  35
ATOM     35  O   UNL     1      33.734 -24.615 -14.697  0.00  0.00    -0.303 OA
ATOM     36  H   UNL     1      33.847 -25.310 -15.363  0.00  0.00    +0.222 HD
ENDBRANCH  31  35
ENDBRANCH  30  31
ENDBRANCH  29  30
ENDBRANCH   2  29
TORSDOF 9
ENDMDL
MODEL 4
REMARK VINA RESULT:     -10.4      6.627     12.072
REMARK  Name = 72696796
REMARK  9 active torsions:
REMARK  status: ('A' for Active; 'I' for Inactive)
REMARK    1  A    between atoms: N_2  and  C_29
REMARK    2  A    between atoms: C_10  and  C_12
REMARK    3  A    between atoms: C_13  and  C_16
REMARK    4  A    between atoms: N_15  and  C_18
REMARK    5  A    between atoms: C_18  and  C_20
REMARK    6  A    between atoms: C_29  and  O_30
REMARK    7  A    between atoms: O_30  and  P_31
REMARK    8  A    between atoms: P_31  and  O_33
REMARK    9  A    between atoms: P_31  and  O_35
REMARK                            x       y       z     vdW  Elec       q    Type
REMARK                         _______ _______ _______ _____ _____    ______ ____
ROOT
ATOM      1  O   UNL     1      30.049 -24.536 -13.994  0.00  0.00    -0.274 OA
ATOM      2  N   UNL     1      30.941 -23.698 -15.977  0.00  0.00    -0.217 N 
ATOM      3  N   UNL     1      31.930 -22.746 -17.953  0.00  0.00    -0.229 NA
ATOM      4  C   UNL     1      33.505 -24.037 -14.779  0.00  0.00    +0.039 C 
ATOM      5  C   UNL     1      33.352 -23.383 -16.116  0.00  0.00    +0.010 C 
ATOM      6  C   UNL     1      32.293 -23.744 -13.919  0.00  0.00    +0.090 C 
ATOM      7  C   UNL     1      32.091 -23.253 -16.703  0.00  0.00    +0.135 C 
ATOM      8  C   UNL     1      30.995 -24.066 -14.630  0.00  0.00    +0.233 C 
ATOM      9  C   UNL     1      34.473 -22.974 -16.845  0.00  0.00    +0.000 C 
ATOM     10  C   UNL     1      34.318 -22.438 -18.116  0.00  0.00    +0.019 C 
ATOM     11  C   UNL     1      33.036 -22.348 -18.621  0.00  0.00    +0.100 C 
ENDROOT
BRANCH  10  12
ATOM     12  C   UNL     1      35.461 -21.977 -18.882  0.00  0.00    +0.006 C 
ATOM     13  C   UNL     1      35.421 -21.042 -19.861  0.00  0.00    +0.058 C 
BRANCH  13  16
ATOM     14  O   UNL     1      37.525 -21.530 -20.814  0.00  0.00    -0.270 OA
ATOM     15  N   UNL     1      36.750 -19.350 -21.039  0.00  0.00    -0.267 N 
ATOM     16  C   UNL     1      36.663 -20.674 -20.602  0.00  0.00    +0.250 C 
ATOM     17  C   UNL     1      37.920 -18.922 -21.797  0.00  0.00    +0.116 C 
BRANCH  15  18
ATOM     18  C   UNL     1      35.727 -18.327 -20.830  0.00  0.00    +0.158 C 
BRANCH  18  20
ATOM     19  O   UNL     1      34.997 -16.440 -22.170  0.00  0.00    -0.456 OA
ATOM     20  C   UNL     1      35.206 -17.782 -22.130  0.00  0.00    +0.139 A 
ATOM     21  C   UNL     1      34.882 -18.362 -23.334  0.00  0.00    +0.013 A 
ATOM     22  C   UNL     1      34.441 -17.310 -24.179  0.00  0.00    +0.033 A 
ATOM     23  C   UNL     1      34.530 -16.150 -23.417  0.00  0.00    +0.145 A 
ATOM     24  C   UNL     1      34.976 -19.794 -23.675  0.00  0.00    +0.034 C 
ATOM     25  C   UNL     1      33.977 -17.211 -25.502  0.00  0.00    +0.003 C 
ATOM     26  C   UNL     1      34.187 -14.882 -23.881  0.00  0.00    +0.037 C 
ATOM     27  C   UNL     1      33.624 -15.948 -25.998  0.00  0.00    +0.000 C 
ATOM     28  C   UNL     1      33.727 -14.806 -25.199  0.00  0.00    +0.003 C 
ENDBRANCH  18  20
ENDBRANCH  15  18
ENDBRANCH  13  16
ENDBRANCH  10  12
BRANCH   2  29
ATOM     29  C   UNL     1      29.677 -23.764 -16.704  0.00  0.00    +0.257 C 
BRANCH  29  30
ATOM     30  O   UNL     1      28.954 -22.570 -16.475  0.00  0.00    -0.251 OA
BRANCH  30  31
ATOM     31  P   UNL     1      27.378 -22.541 -16.843  0.00  0.00    +0.475 P 
ATOM     32  O   UNL     1      26.886 -21.276 -17.484  0.00  0.00    -0.227 OA
BRANCH  31  33
ATOM     33  O   UNL     1      26.664 -22.921 -15.443  0.00  0.00    -0.303 OA
ATOM     34  H   UNL     1      26.923 -23.818 -15.181  0.00  0.00    +0.222 HD
ENDBRANCH  31  33
BRANCH  31  35
ATOM     35  O   UNL     1      27.169 -23.876 -17.734  0.00  0.00    -0.303 OA
ATOM     36  H   UNL     1      26.466 -23.725 -18.384  0.00  0.00    +0.222 HD
ENDBRANCH  31  35
ENDBRANCH  30  31
ENDBRANCH  29  30
ENDBRANCH   2  29
TORSDOF 9
ENDMDL
MODEL 5
REMARK VINA RESULT:     -10.3      1.782      3.083
REMARK  Name = 72696796
REMARK  9 active torsions:
REMARK  status: ('A' for Active; 'I' for Inactive)
REMARK    1  A    between atoms: N_2  and  C_29
REMARK    2  A    between atoms: C_10  and  C_12
REMARK    3  A    between atoms: C_13  and  C_16
REMARK    4  A    between atoms: N_15  and  C_18
REMARK    5  A    between atoms: C_18  and  C_20
REMARK    6  A    between atoms: C_29  and  O_30
REMARK    7  A    between atoms: O_30  and  P_31
REMARK    8  A    between atoms: P_31  and  O_33
REMARK    9  A    between atoms: P_31  and  O_35
REMARK                            x       y       z     vdW  Elec       q    Type
REMARK                         _______ _______ _______ _____ _____    ______ ____
ROOT
ATOM      1  O   UNL     1      33.745  -7.061 -22.876  0.00  0.00    -0.274 OA
ATOM      2  N   UNL     1      32.956  -9.248 -22.723  0.00  0.00    -0.217 N 
ATOM      3  N   UNL     1      32.141 -11.512 -22.696  0.00  0.00    -0.229 NA
ATOM      4  C   UNL     1      35.085  -9.968 -24.476  0.00  0.00    +0.039 C 
ATOM      5  C   UNL     1      34.055 -10.967 -24.053  0.00  0.00    +0.010 C 
ATOM      6  C   UNL     1      34.465  -8.589 -24.554  0.00  0.00    +0.090 C 
ATOM      7  C   UNL     1      33.036 -10.606 -23.169  0.00  0.00    +0.135 C 
ATOM      8  C   UNL     1      33.720  -8.223 -23.287  0.00  0.00    +0.233 C 
ATOM      9  C   UNL     1      34.144 -12.303 -24.459  0.00  0.00    +0.000 C 
ATOM     10  C   UNL     1      33.224 -13.233 -23.996  0.00  0.00    +0.019 C 
ATOM     11  C   UNL     1      32.251 -12.790 -23.122  0.00  0.00    +0.100 C 
ENDROOT
BRANCH  10  12
ATOM     12  C   UNL     1      33.274 -14.618 -24.425  0.00  0.00    +0.006 C 
ATOM     13  C   UNL     1      34.352 -15.432 -24.319  0.00  0.00    +0.058 C 
BRANCH  13  16
ATOM     14  O   UNL     1      33.834 -17.056 -25.952  0.00  0.00    -0.270 OA
ATOM     15  N   UNL     1      34.793 -17.821 -23.978  0.00  0.00    -0.267 N 
ATOM     16  C   UNL     1      34.289 -16.833 -24.829  0.00  0.00    +0.250 C 
ATOM     17  C   UNL     1      34.795 -19.211 -24.417  0.00  0.00    +0.116 C 
BRANCH  15  18
ATOM     18  C   UNL     1      35.369 -17.578 -22.657  0.00  0.00    +0.158 C 
BRANCH  18  20
ATOM     19  O   UNL     1      33.999 -19.233 -21.529  0.00  0.00    -0.456 OA
ATOM     20  C   UNL     1      35.259 -18.783 -21.767  0.00  0.00    +0.139 A 
ATOM     21  C   UNL     1      36.185 -19.562 -21.114  0.00  0.00    +0.013 A 
ATOM     22  C   UNL     1      35.453 -20.563 -20.424  0.00  0.00    +0.033 A 
ATOM     23  C   UNL     1      34.114 -20.317 -20.711  0.00  0.00    +0.145 A 
ATOM     24  C   UNL     1      37.650 -19.388 -21.131  0.00  0.00    +0.034 C 
ATOM     25  C   UNL     1      35.773 -21.648 -19.589  0.00  0.00    +0.003 C 
ATOM     26  C   UNL     1      33.057 -21.082 -20.222  0.00  0.00    +0.037 C 
ATOM     27  C   UNL     1      34.731 -22.437 -19.082  0.00  0.00    +0.000 C 
ATOM     28  C   UNL     1      33.398 -22.156 -19.394  0.00  0.00    +0.003 C 
ENDBRANCH  18  20
ENDBRANCH  15  18
ENDBRANCH  13  16
ENDBRANCH  10  12
BRANCH   2  29
ATOM     29  C   UNL     1      32.034  -8.959 -21.630  0.00  0.00    +0.257 C 
BRANCH  29  30
ATOM     30  O   UNL     1      32.644  -9.328 -20.407  0.00  0.00    -0.251 OA
BRANCH  30  31
ATOM     31  P   UNL     1      31.875 -10.383 -19.451  0.00  0.00    +0.475 P 
ATOM     32  O   UNL     1      31.979 -10.117 -17.977  0.00  0.00    -0.227 OA
BRANCH  31  33
ATOM     33  O   UNL     1      32.460 -11.812 -19.930  0.00  0.00    -0.303 OA
ATOM     34  H   UNL     1      33.383 -11.707 -20.209  0.00  0.00    +0.222 HD
ENDBRANCH  31  33
BRANCH  31  35
ATOM     35  O   UNL     1      30.364 -10.394 -20.031  0.00  0.00    -0.303 OA
ATOM     36  H   UNL     1      29.922  -9.564 -19.797  0.00  0.00    +0.222 HD
ENDBRANCH  31  35
ENDBRANCH  30  31
ENDBRANCH  29  30
ENDBRANCH   2  29
TORSDOF 9
ENDMDL
MODEL 6
REMARK VINA RESULT:     -10.2      1.234      2.117
REMARK  Name = 72696796
REMARK  9 active torsions:
REMARK  status: ('A' for Active; 'I' for Inactive)
REMARK    1  A    between atoms: N_2  and  C_29
REMARK    2  A    between atoms: C_10  and  C_12
REMARK    3  A    between atoms: C_13  and  C_16
REMARK    4  A    between atoms: N_15  and  C_18
REMARK    5  A    between atoms: C_18  and  C_20
REMARK    6  A    between atoms: C_29  and  O_30
REMARK    7  A    between atoms: O_30  and  P_31
REMARK    8  A    between atoms: P_31  and  O_33
REMARK    9  A    between atoms: P_31  and  O_35
REMARK                            x       y       z     vdW  Elec       q    Type
REMARK                         _______ _______ _______ _____ _____    ______ ____
ROOT
ATOM      1  O   UNL     1      34.410  -6.956 -23.186  0.00  0.00    -0.274 OA
ATOM      2  N   UNL     1      33.417  -9.041 -22.880  0.00  0.00    -0.217 N 
ATOM      3  N   UNL     1      32.380 -11.205 -22.693  0.00  0.00    -0.229 NA
ATOM      4  C   UNL     1      35.311 -10.041 -24.760  0.00  0.00    +0.039 C 
ATOM      5  C   UNL     1      34.223 -10.911 -24.216  0.00  0.00    +0.010 C 
ATOM      6  C   UNL     1      34.831  -8.607 -24.849  0.00  0.00    +0.090 C 
ATOM      7  C   UNL     1      33.321 -10.415 -23.272  0.00  0.00    +0.135 C 
ATOM      8  C   UNL     1      34.233  -8.123 -23.544  0.00  0.00    +0.233 C 
ATOM      9  C   UNL     1      34.141 -12.262 -24.571  0.00  0.00    +0.000 C 
ATOM     10  C   UNL     1      33.172 -13.073 -23.999  0.00  0.00    +0.019 C 
ATOM     11  C   UNL     1      32.323 -12.501 -23.072  0.00  0.00    +0.100 C 
ENDROOT
BRANCH  10  12
ATOM     12  C   UNL     1      33.045 -14.470 -24.371  0.00  0.00    +0.006 C 
ATOM     13  C   UNL     1      34.068 -15.281 -24.730  0.00  0.00    +0.058 C 
BRANCH  13  16
ATOM     14  O   UNL     1      33.119 -16.936 -26.121  0.00  0.00    -0.270 OA
ATOM     15  N   UNL     1      34.396 -17.678 -24.326  0.00  0.00    -0.267 N 
ATOM     16  C   UNL     1      33.805 -16.696 -25.125  0.00  0.00    +0.250 C 
ATOM     17  C   UNL     1      34.211 -19.084 -24.665  0.00  0.00    +0.116 C 
BRANCH  15  18
ATOM     18  C   UNL     1      35.241 -17.418 -23.162  0.00  0.00    +0.158 C 
BRANCH  18  20
ATOM     19  O   UNL     1      34.016 -19.053 -21.852  0.00  0.00    -0.456 OA
ATOM     20  C   UNL     1      35.238 -18.571 -22.199  0.00  0.00    +0.139 A 
ATOM     21  C   UNL     1      36.237 -19.274 -21.566  0.00  0.00    +0.013 A 
ATOM     22  C   UNL     1      35.593 -20.259 -20.773  0.00  0.00    +0.033 A 
ATOM     23  C   UNL     1      34.229 -20.081 -20.982  0.00  0.00    +0.145 A 
ATOM     24  C   UNL     1      37.689 -19.047 -21.691  0.00  0.00    +0.034 C 
ATOM     25  C   UNL     1      36.011 -21.279 -19.901  0.00  0.00    +0.003 C 
ATOM     26  C   UNL     1      33.239 -20.854 -20.380  0.00  0.00    +0.037 C 
ATOM     27  C   UNL     1      35.037 -22.074 -19.280  0.00  0.00    +0.000 C 
ATOM     28  C   UNL     1      33.676 -21.863 -19.517  0.00  0.00    +0.003 C 
ENDBRANCH  18  20
ENDBRANCH  15  18
ENDBRANCH  13  16
ENDBRANCH  10  12
BRANCH   2  29
ATOM     29  C   UNL     1      32.622  -8.619 -21.731  0.00  0.00    +0.257 C 
BRANCH  29  30
ATOM     30  O   UNL     1      31.527  -7.849 -22.190  0.00  0.00    -0.251 OA
BRANCH  30  31
ATOM     31  P   UNL     1      31.490  -6.272 -21.829  0.00  0.00    +0.475 P 
ATOM     32  O   UNL     1      30.160  -5.743 -21.377  0.00  0.00    -0.227 OA
BRANCH  31  33
ATOM     33  O   UNL     1      32.088  -5.572 -23.158  0.00  0.00    -0.303 OA
ATOM     34  H   UNL     1      32.043  -6.196 -23.900  0.00  0.00    +0.222 HD
ENDBRANCH  31  33
BRANCH  31  35
ATOM     35  O   UNL     1      32.688  -6.097 -20.755  0.00  0.00    -0.303 OA
ATOM     36  H   UNL     1      32.725  -6.878 -20.181  0.00  0.00    +0.222 HD
ENDBRANCH  31  35
ENDBRANCH  30  31
ENDBRANCH  29  30
ENDBRANCH   2  29
TORSDOF 9
ENDMDL
MODEL 7
REMARK VINA RESULT:      -9.5      3.615     11.249
REMARK  Name = 72696796
REMARK  9 active torsions:
REMARK  status: ('A' for Active; 'I' for Inactive)
REMARK    1  A    between atoms: N_2  and  C_29
REMARK    2  A    between atoms: C_10  and  C_12
REMARK    3  A    between atoms: C_13  and  C_16
REMARK    4  A    between atoms: N_15  and  C_18
REMARK    5  A    between atoms: C_18  and  C_20
REMARK    6  A    between atoms: C_29  and  O_30
REMARK    7  A    between atoms: O_30  and  P_31
REMARK    8  A    between atoms: P_31  and  O_33
REMARK    9  A    between atoms: P_31  and  O_35
REMARK                            x       y       z     vdW  Elec       q    Type
REMARK                         _______ _______ _______ _____ _____    ______ ____
ROOT
ATOM      1  O   UNL     1      34.573 -18.415 -26.135  0.00  0.00    -0.274 OA
ATOM      2  N   UNL     1      34.724 -17.124 -24.201  0.00  0.00    -0.217 N 
ATOM      3  N   UNL     1      34.906 -15.688 -22.279  0.00  0.00    -0.229 NA
ATOM      4  C   UNL     1      32.911 -15.319 -25.458  0.00  0.00    +0.039 C 
ATOM      5  C   UNL     1      33.534 -15.000 -24.136  0.00  0.00    +0.010 C 
ATOM      6  C   UNL     1      33.866 -16.148 -26.292  0.00  0.00    +0.090 C 
ATOM      7  C   UNL     1      34.397 -15.909 -23.519  0.00  0.00    +0.135 C 
ATOM      8  C   UNL     1      34.388 -17.352 -25.538  0.00  0.00    +0.233 C 
ATOM      9  C   UNL     1      33.196 -13.830 -23.449  0.00  0.00    +0.000 C 
ATOM     10  C   UNL     1      33.725 -13.585 -22.190  0.00  0.00    +0.019 C 
ATOM     11  C   UNL     1      34.567 -14.538 -21.653  0.00  0.00    +0.100 C 
ENDROOT
BRANCH  10  12
ATOM     12  C   UNL     1      33.416 -12.365 -21.468  0.00  0.00    +0.006 C 
ATOM     13  C   UNL     1      32.208 -12.051 -20.942  0.00  0.00    +0.058 C 
BRANCH  13  16
ATOM     14  O   UNL     1      32.147 -10.674 -19.026  0.00  0.00    -0.270 OA
ATOM     15  N   UNL     1      31.683  -9.658 -21.064  0.00  0.00    -0.267 N 
ATOM     16  C   UNL     1      32.005 -10.746 -20.248  0.00  0.00    +0.250 C 
ATOM     17  C   UNL     1      31.500  -8.342 -20.464  0.00  0.00    +0.116 C 
BRANCH  15  18
ATOM     18  C   UNL     1      31.543  -9.710 -22.518  0.00  0.00    +0.158 C 
BRANCH  18  20
ATOM     19  O   UNL     1      31.400  -7.436 -23.353  0.00  0.00    -0.456 OA
ATOM     20  C   UNL     1      32.189  -8.530 -23.187  0.00  0.00    +0.139 A 
ATOM     21  C   UNL     1      33.449  -8.303 -23.688  0.00  0.00    +0.013 A 
ATOM     22  C   UNL     1      33.444  -6.979 -24.200  0.00  0.00    +0.033 A 
ATOM     23  C   UNL     1      32.162  -6.490 -23.970  0.00  0.00    +0.145 A 
ATOM     24  C   UNL     1      34.580  -9.250 -23.691  0.00  0.00    +0.034 C 
ATOM     25  C   UNL     1      34.379  -6.141 -24.832  0.00  0.00    +0.003 C 
ATOM     26  C   UNL     1      31.738  -5.212 -24.327  0.00  0.00    +0.037 C 
ATOM     27  C   UNL     1      33.982  -4.849 -25.203  0.00  0.00    +0.000 C 
ATOM     28  C   UNL     1      32.684  -4.395 -24.954  0.00  0.00    +0.003 C 
ENDBRANCH  18  20
ENDBRANCH  15  18
ENDBRANCH  13  16
ENDBRANCH  10  12
BRANCH   2  29
ATOM     29  C   UNL     1      35.431 -18.147 -23.438  0.00  0.00    +0.257 C 
BRANCH  29  30
ATOM     30  O   UNL     1      34.495 -19.105 -22.979  0.00  0.00    -0.251 OA
BRANCH  30  31
ATOM     31  P   UNL     1      34.571 -19.576 -21.432  0.00  0.00    +0.475 P 
ATOM     32  O   UNL     1      33.314 -20.180 -20.878  0.00  0.00    -0.227 OA
BRANCH  31  33
ATOM     33  O   UNL     1      35.088 -18.250 -20.666  0.00  0.00    -0.303 OA
ATOM     34  H   UNL     1      35.882 -18.463 -20.151  0.00  0.00    +0.222 HD
ENDBRANCH  31  33
BRANCH  31  35
ATOM     35  O   UNL     1      35.864 -20.548 -21.392  0.00  0.00    -0.303 OA
ATOM     36  H   UNL     1      35.691 -21.340 -21.925  0.00  0.00    +0.222 HD
ENDBRANCH  31  35
ENDBRANCH  30  31
ENDBRANCH  29  30
ENDBRANCH   2  29
TORSDOF 9
ENDMDL
MODEL 8
REMARK VINA RESULT:      -9.4      4.964      8.314
REMARK  Name = 72696796
REMARK  9 active torsions:
REMARK  status: ('A' for Active; 'I' for Inactive)
REMARK    1  A    between atoms: N_2  and  C_29
REMARK    2  A    between atoms: C_10  and  C_12
REMARK    3  A    between atoms: C_13  and  C_16
REMARK    4  A    between atoms: N_15  and  C_18
REMARK    5  A    between atoms: C_18  and  C_20
REMARK    6  A    between atoms: C_29  and  O_30
REMARK    7  A    between atoms: O_30  and  P_31
REMARK    8  A    between atoms: P_31  and  O_33
REMARK    9  A    between atoms: P_31  and  O_35
REMARK                            x       y       z     vdW  Elec       q    Type
REMARK                         _______ _______ _______ _____ _____    ______ ____
ROOT
ATOM      1  O   UNL     1      33.420 -16.624 -26.628  0.00  0.00    -0.274 OA
ATOM      2  N   UNL     1      34.424 -16.858 -24.539  0.00  0.00    -0.217 N 
ATOM      3  N   UNL     1      35.364 -17.180 -22.348  0.00  0.00    -0.229 NA
ATOM      4  C   UNL     1      34.197 -19.673 -24.924  0.00  0.00    +0.039 C 
ATOM      5  C   UNL     1      34.695 -19.103 -23.634  0.00  0.00    +0.010 C 
ATOM      6  C   UNL     1      33.187 -18.733 -25.549  0.00  0.00    +0.090 C 
ATOM      7  C   UNL     1      34.830 -17.722 -23.473  0.00  0.00    +0.135 C 
ATOM      8  C   UNL     1      33.711 -17.315 -25.650  0.00  0.00    +0.233 C 
ATOM      9  C   UNL     1      35.122 -19.941 -22.599  0.00  0.00    +0.000 C 
ATOM     10  C   UNL     1      35.652 -19.396 -21.437  0.00  0.00    +0.019 C 
ATOM     11  C   UNL     1      35.752 -18.021 -21.363  0.00  0.00    +0.100 C 
ENDROOT
BRANCH  10  12
ATOM     12  C   UNL     1      36.075 -20.240 -20.335  0.00  0.00    +0.006 C 
ATOM     13  C   UNL     1      35.343 -21.241 -19.792  0.00  0.00    +0.058 C 
BRANCH  13  16
ATOM     14  O   UNL     1      37.084 -22.012 -18.396  0.00  0.00    -0.270 OA
ATOM     15  N   UNL     1      34.930 -22.703 -17.865  0.00  0.00    -0.267 N 
ATOM     16  C   UNL     1      35.875 -22.020 -18.635  0.00  0.00    +0.250 C 
ATOM     17  C   UNL     1      35.368 -23.461 -16.699  0.00  0.00    +0.116 C 
BRANCH  15  18
ATOM     18  C   UNL     1      33.488 -22.699 -18.107  0.00  0.00    +0.158 C 
BRANCH  18  20
ATOM     19  O   UNL     1      33.447 -23.865 -15.979  0.00  0.00    -0.456 OA
ATOM     20  C   UNL     1      32.719 -23.212 -16.923  0.00  0.00    +0.139 A 
ATOM     21  C   UNL     1      31.391 -23.167 -16.568  0.00  0.00    +0.013 A 
ATOM     22  C   UNL     1      31.286 -23.835 -15.320  0.00  0.00    +0.033 A 
ATOM     23  C   UNL     1      32.577 -24.246 -15.002  0.00  0.00    +0.145 A 
ATOM     24  C   UNL     1      30.296 -22.543 -17.336  0.00  0.00    +0.034 C 
ATOM     25  C   UNL     1      30.245 -24.139 -14.427  0.00  0.00    +0.003 C 
ATOM     26  C   UNL     1      32.910 -24.946 -13.844  0.00  0.00    +0.037 C 
ATOM     27  C   UNL     1      30.549 -24.842 -13.253  0.00  0.00    +0.000 C 
ATOM     28  C   UNL     1      31.859 -25.237 -12.970  0.00  0.00    +0.003 C 
ENDBRANCH  18  20
ENDBRANCH  15  18
ENDBRANCH  13  16
ENDBRANCH  10  12
BRANCH   2  29
ATOM     29  C   UNL     1      34.793 -15.450 -24.434  0.00  0.00    +0.257 C 
BRANCH  29  30
ATOM     30  O   UNL     1      33.630 -14.692 -24.160  0.00  0.00    -0.251 OA
BRANCH  30  31
ATOM     31  P   UNL     1      33.679 -13.617 -22.950  0.00  0.00    +0.475 P 
ATOM     32  O   UNL     1      32.381 -13.392 -22.232  0.00  0.00    -0.227 OA
BRANCH  31  33
ATOM     33  O   UNL     1      34.312 -12.303 -23.647  0.00  0.00    -0.303 OA
ATOM     34  H   UNL     1      33.658 -11.587 -23.643  0.00  0.00    +0.222 HD
ENDBRANCH  31  33
BRANCH  31  35
ATOM     35  O   UNL     1      34.886 -14.151 -22.014  0.00  0.00    -0.303 OA
ATOM     36  H   UNL     1      34.655 -15.021 -21.652  0.00  0.00    +0.222 HD
ENDBRANCH  31  35
ENDBRANCH  30  31
ENDBRANCH  29  30
ENDBRANCH   2  29
TORSDOF 9
ENDMDL
MODEL 9
REMARK VINA RESULT:      -9.1      7.695     11.352
REMARK  Name = 72696796
REMARK  9 active torsions:
REMARK  status: ('A' for Active; 'I' for Inactive)
REMARK    1  A    between atoms: N_2  and  C_29
REMARK    2  A    between atoms: C_10  and  C_12
REMARK    3  A    between atoms: C_13  and  C_16
REMARK    4  A    between atoms: N_15  and  C_18
REMARK    5  A    between atoms: C_18  and  C_20
REMARK    6  A    between atoms: C_29  and  O_30
REMARK    7  A    between atoms: O_30  and  P_31
REMARK    8  A    between atoms: P_31  and  O_33
REMARK    9  A    between atoms: P_31  and  O_35
REMARK                            x       y       z     vdW  Elec       q    Type
REMARK                         _______ _______ _______ _____ _____    ______ ____
ROOT
ATOM      1  O   UNL     1      37.025 -19.032 -21.890  0.00  0.00    -0.274 OA
ATOM      2  N   UNL     1      35.077 -19.927 -20.978  0.00  0.00    -0.217 N 
ATOM      3  N   UNL     1      33.118 -20.972 -20.050  0.00  0.00    -0.229 NA
ATOM      4  C   UNL     1      36.768 -21.370 -19.193  0.00  0.00    +0.039 C 
ATOM      5  C   UNL     1      35.289 -21.594 -19.214  0.00  0.00    +0.010 C 
ATOM      6  C   UNL     1      37.255 -21.006 -20.581  0.00  0.00    +0.090 C 
ATOM      7  C   UNL     1      34.471 -20.856 -20.073  0.00  0.00    +0.135 C 
ATOM      8  C   UNL     1      36.457 -19.871 -21.189  0.00  0.00    +0.233 C 
ATOM      9  C   UNL     1      34.686 -22.476 -18.312  0.00  0.00    +0.000 C 
ATOM     10  C   UNL     1      33.305 -22.615 -18.293  0.00  0.00    +0.019 C 
ATOM     11  C   UNL     1      32.573 -21.845 -19.175  0.00  0.00    +0.100 C 
ENDROOT
BRANCH  10  12
ATOM     12  C   UNL     1      32.656 -23.545 -17.389  0.00  0.00    +0.006 C 
ATOM     13  C   UNL     1      31.919 -23.200 -16.307  0.00  0.00    +0.058 C 
BRANCH  13  16
ATOM     14  O   UNL     1      30.420 -24.970 -15.864  0.00  0.00    -0.270 OA
ATOM     15  N   UNL     1      31.878 -24.375 -14.154  0.00  0.00    -0.267 N 
ATOM     16  C   UNL     1      31.326 -24.254 -15.432  0.00  0.00    +0.250 C 
ATOM     17  C   UNL     1      31.374 -25.402 -13.251  0.00  0.00    +0.116 C 
BRANCH  15  18
ATOM     18  C   UNL     1      32.975 -23.563 -13.632  0.00  0.00    +0.158 C 
BRANCH  18  20
ATOM     19  O   UNL     1      34.568 -24.985 -14.784  0.00  0.00    -0.456 OA
ATOM     20  C   UNL     1      34.279 -24.308 -13.642  0.00  0.00    +0.139 A 
ATOM     21  C   UNL     1      35.284 -24.464 -12.716  0.00  0.00    +0.013 A 
ATOM     22  C   UNL     1      36.264 -25.293 -13.323  0.00  0.00    +0.033 A 
ATOM     23  C   UNL     1      35.776 -25.587 -14.592  0.00  0.00    +0.145 A 
ATOM     24  C   UNL     1      35.332 -23.881 -11.361  0.00  0.00    +0.034 C 
ATOM     25  C   UNL     1      37.506 -25.827 -12.940  0.00  0.00    +0.003 C 
ATOM     26  C   UNL     1      36.444 -26.383 -15.520  0.00  0.00    +0.037 C 
ATOM     27  C   UNL     1      38.202 -26.633 -13.853  0.00  0.00    +0.000 C 
ATOM     28  C   UNL     1      37.677 -26.904 -15.119  0.00  0.00    +0.003 C 
ENDBRANCH  18  20
ENDBRANCH  15  18
ENDBRANCH  13  16
ENDBRANCH  10  12
BRANCH   2  29
ATOM     29  C   UNL     1      34.190 -19.012 -21.688  0.00  0.00    +0.257 C 
BRANCH  29  30
ATOM     30  O   UNL     1      33.702 -19.657 -22.850  0.00  0.00    -0.251 OA
BRANCH  30  31
ATOM     31  P   UNL     1      34.191 -19.115 -24.294  0.00  0.00    +0.475 P 
ATOM     32  O   UNL     1      33.098 -18.675 -25.224  0.00  0.00    -0.227 OA
BRANCH  31  33
ATOM     33  O   UNL     1      35.117 -20.318 -24.848  0.00  0.00    -0.303 OA
ATOM     34  H   UNL     1      35.458 -20.086 -25.726  0.00  0.00    +0.222 HD
ENDBRANCH  31  33
BRANCH  31  35
ATOM     35  O   UNL     1      35.269 -17.965 -23.926  0.00  0.00    -0.303 OA
ATOM     36  H   UNL     1      35.904 -17.872 -24.652  0.00  0.00    +0.222 HD
ENDBRANCH  31  35
ENDBRANCH  30  31
ENDBRANCH  29  30
ENDBRANCH   2  29
TORSDOF 9
ENDMDL
