MODEL 1
REMARK VINA RESULT:     -11.8      0.000      0.000
REMARK  Name = 5287739
REMARK  3 active torsions:
REMARK  status: ('A' for Active; 'I' for Inactive)
REMARK    1  A    between atoms: C_2  and  O_21
REMARK    2  A    between atoms: C_3  and  O_23
REMARK    3  A    between atoms: C_4  and  O_25
REMARK                            x       y       z     vdW  Elec       q    Type
REMARK                         _______ _______ _______ _____ _____    ______ ____
ROOT
ATOM      1  C   UNL     1      35.665 -24.002 -13.579  0.00  0.00    -0.021 C 
ATOM      2  C   UNL     1      37.294 -25.056 -11.397  0.00  0.00    +0.168 C 
ATOM      3  C   UNL     1      37.947 -24.108 -12.405  0.00  0.00    +0.162 C 
ATOM      4  C   UNL     1      35.870 -24.597 -11.097  0.00  0.00    +0.144 C 
ATOM      5  C   UNL     1      35.006 -24.613 -12.356  0.00  0.00    +0.058 C 
ATOM      6  C   UNL     1      37.059 -23.780 -13.589  0.00  0.00    +0.003 C 
ATOM      7  C   UNL     1      34.889 -23.695 -14.738  0.00  0.00    -0.004 C 
ATOM      8  C   UNL     1      35.527 -23.127 -15.871  0.00  0.00    -0.000 C 
ATOM      9  C   UNL     1      36.916 -22.882 -15.856  0.00  0.00    -0.000 C 
ATOM     10  C   UNL     1      37.662 -23.213 -14.722  0.00  0.00    -0.002 C 
ATOM     11  C   UNL     1      34.781 -22.799 -17.039  0.00  0.00    -0.000 C 
ATOM     12  C   UNL     1      33.500 -23.930 -14.829  0.00  0.00    -0.000 C 
ATOM     13  C   UNL     1      33.391 -23.044 -17.085  0.00  0.00    -0.000 C 
ATOM     14  C   UNL     1      35.424 -22.228 -18.163  0.00  0.00    -0.000 C 
ATOM     15  C   UNL     1      37.539 -22.317 -16.977  0.00  0.00    -0.000 C 
ATOM     16  C   UNL     1      32.767 -23.612 -15.974  0.00  0.00    -0.000 C 
ATOM     17  C   UNL     1      36.802 -21.992 -18.116  0.00  0.00    -0.000 C 
ATOM     18  C   UNL     1      32.666 -22.717 -18.240  0.00  0.00    -0.000 C 
ATOM     19  C   UNL     1      34.675 -21.911 -19.305  0.00  0.00    -0.000 C 
ATOM     20  C   UNL     1      33.304 -22.153 -19.341  0.00  0.00    +0.000 C 
ENDROOT
BRANCH   2  21
ATOM     21  O   UNL     1      37.271 -26.381 -11.927  0.00  0.00    -0.379 OA
ATOM     22  H   UNL     1      38.126 -26.579 -12.338  0.00  0.00    +0.211 HD
ENDBRANCH   2  21
BRANCH   3  23
ATOM     23  O   UNL     1      38.273 -22.878 -11.760  0.00  0.00    -0.377 OA
ATOM     24  H   UNL     1      38.807 -22.332 -12.358  0.00  0.00    +0.211 HD
ENDBRANCH   3  23
BRANCH   4  25
ATOM     25  O   UNL     1      35.274 -25.451 -10.125  0.00  0.00    -0.382 OA
ATOM     26  H   UNL     1      35.873 -25.548  -9.368  0.00  0.00    +0.210 HD
ENDBRANCH   4  25
TORSDOF 3
ENDMDL
MODEL 2
REMARK VINA RESULT:     -11.1      0.905      3.141
REMARK  Name = 5287739
REMARK  3 active torsions:
REMARK  status: ('A' for Active; 'I' for Inactive)
REMARK    1  A    between atoms: C_2  and  O_21
REMARK    2  A    between atoms: C_3  and  O_23
REMARK    3  A    between atoms: C_4  and  O_25
REMARK                            x       y       z     vdW  Elec       q    Type
REMARK                         _______ _______ _______ _____ _____    ______ ____
ROOT
ATOM      1  C   UNL     1      36.572 -23.428 -14.007  0.00  0.00    -0.021 C 
ATOM      2  C   UNL     1      37.014 -23.823 -11.147  0.00  0.00    +0.168 C 
ATOM      3  C   UNL     1      35.707 -24.328 -11.763  0.00  0.00    +0.162 C 
ATOM      4  C   UNL     1      38.172 -24.067 -12.111  0.00  0.00    +0.144 C 
ATOM      5  C   UNL     1      37.969 -23.311 -13.423  0.00  0.00    +0.058 C 
ATOM      6  C   UNL     1      35.513 -23.901 -13.204  0.00  0.00    +0.003 C 
ATOM      7  C   UNL     1      36.317 -23.016 -15.350  0.00  0.00    -0.004 C 
ATOM      8  C   UNL     1      35.003 -23.132 -15.875  0.00  0.00    -0.000 C 
ATOM      9  C   UNL     1      33.959 -23.636 -15.070  0.00  0.00    -0.000 C 
ATOM     10  C   UNL     1      34.225 -24.010 -13.750  0.00  0.00    -0.002 C 
ATOM     11  C   UNL     1      34.716 -22.741 -17.212  0.00  0.00    -0.000 C 
ATOM     12  C   UNL     1      37.309 -22.487 -16.204  0.00  0.00    -0.000 C 
ATOM     13  C   UNL     1      35.740 -22.223 -18.036  0.00  0.00    -0.000 C 
ATOM     14  C   UNL     1      33.404 -22.864 -17.729  0.00  0.00    -0.000 C 
ATOM     15  C   UNL     1      32.665 -23.751 -15.596  0.00  0.00    -0.000 C 
ATOM     16  C   UNL     1      37.029 -22.100 -17.517  0.00  0.00    -0.000 C 
ATOM     17  C   UNL     1      32.391 -23.372 -16.909  0.00  0.00    -0.000 C 
ATOM     18  C   UNL     1      35.447 -21.841 -19.353  0.00  0.00    -0.000 C 
ATOM     19  C   UNL     1      33.138 -22.475 -19.050  0.00  0.00    -0.000 C 
ATOM     20  C   UNL     1      34.154 -21.967 -19.856  0.00  0.00    +0.000 C 
ENDROOT
BRANCH   2  21
ATOM     21  O   UNL     1      36.906 -22.428 -10.867  0.00  0.00    -0.379 OA
ATOM     22  H   UNL     1      37.177 -21.920 -11.648  0.00  0.00    +0.211 HD
ENDBRANCH   2  21
BRANCH   3  23
ATOM     23  O   UNL     1      35.687 -25.755 -11.732  0.00  0.00    -0.377 OA
ATOM     24  H   UNL     1      35.363 -26.054 -10.868  0.00  0.00    +0.211 HD
ENDBRANCH   3  23
BRANCH   4  25
ATOM     25  O   UNL     1      39.396 -23.638 -11.524  0.00  0.00    -0.382 OA
ATOM     26  H   UNL     1      39.497 -22.681 -11.647  0.00  0.00    +0.210 HD
ENDBRANCH   4  25
TORSDOF 3
ENDMDL
MODEL 3
REMARK VINA RESULT:     -10.6      2.914      4.808
REMARK  Name = 5287739
REMARK  3 active torsions:
REMARK  status: ('A' for Active; 'I' for Inactive)
REMARK    1  A    between atoms: C_2  and  O_21
REMARK    2  A    between atoms: C_3  and  O_23
REMARK    3  A    between atoms: C_4  and  O_25
REMARK                            x       y       z     vdW  Elec       q    Type
REMARK                         _______ _______ _______ _____ _____    ______ ____
ROOT
ATOM      1  C   UNL     1      31.903 -23.528 -16.095  0.00  0.00    -0.021 C 
ATOM      2  C   UNL     1      30.251 -25.062 -14.239  0.00  0.00    +0.168 C 
ATOM      3  C   UNL     1      31.662 -24.660 -13.803  0.00  0.00    +0.162 C 
ATOM      4  C   UNL     1      29.608 -23.927 -15.031  0.00  0.00    +0.144 C 
ATOM      5  C   UNL     1      30.402 -23.617 -16.299  0.00  0.00    +0.058 C 
ATOM      6  C   UNL     1      32.483 -24.035 -14.913  0.00  0.00    +0.003 C 
ATOM      7  C   UNL     1      32.736 -22.975 -17.115  0.00  0.00    -0.004 C 
ATOM      8  C   UNL     1      34.138 -22.904 -16.904  0.00  0.00    -0.000 C 
ATOM      9  C   UNL     1      34.701 -23.388 -15.704  0.00  0.00    -0.000 C 
ATOM     10  C   UNL     1      33.871 -23.948 -14.729  0.00  0.00    -0.002 C 
ATOM     11  C   UNL     1      34.996 -22.350 -17.895  0.00  0.00    -0.000 C 
ATOM     12  C   UNL     1      32.243 -22.490 -18.345  0.00  0.00    -0.000 C 
ATOM     13  C   UNL     1      34.461 -21.868 -19.110  0.00  0.00    -0.000 C 
ATOM     14  C   UNL     1      36.393 -22.278 -17.675  0.00  0.00    -0.000 C 
ATOM     15  C   UNL     1      36.085 -23.310 -15.501  0.00  0.00    -0.000 C 
ATOM     16  C   UNL     1      33.083 -21.948 -19.321  0.00  0.00    -0.000 C 
ATOM     17  C   UNL     1      36.921 -22.760 -16.473  0.00  0.00    -0.000 C 
ATOM     18  C   UNL     1      35.314 -21.323 -20.079  0.00  0.00    -0.000 C 
ATOM     19  C   UNL     1      37.224 -21.728 -18.661  0.00  0.00    -0.000 C 
ATOM     20  C   UNL     1      36.687 -21.253 -19.855  0.00  0.00    +0.000 C 
ENDROOT
BRANCH   2  21
ATOM     21  O   UNL     1      30.313 -26.237 -15.047  0.00  0.00    -0.379 OA
ATOM     22  H   UNL     1      29.549 -26.259 -15.643  0.00  0.00    +0.211 HD
ENDBRANCH   2  21
BRANCH   3  23
ATOM     23  O   UNL     1      31.579 -23.708 -12.744  0.00  0.00    -0.377 OA
ATOM     24  H   UNL     1      32.114 -22.930 -12.967  0.00  0.00    +0.211 HD
ENDBRANCH   3  23
BRANCH   4  25
ATOM     25  O   UNL     1      28.279 -24.280 -15.402  0.00  0.00    -0.382 OA
ATOM     26  H   UNL     1      27.697 -24.210 -14.628  0.00  0.00    +0.210 HD
ENDBRANCH   4  25
TORSDOF 3
ENDMDL
MODEL 4
REMARK VINA RESULT:     -10.0      2.013      4.349
REMARK  Name = 5287739
REMARK  3 active torsions:
REMARK  status: ('A' for Active; 'I' for Inactive)
REMARK    1  A    between atoms: C_2  and  O_21
REMARK    2  A    between atoms: C_3  and  O_23
REMARK    3  A    between atoms: C_4  and  O_25
REMARK                            x       y       z     vdW  Elec       q    Type
REMARK                         _______ _______ _______ _____ _____    ______ ____
ROOT
ATOM      1  C   UNL     1      35.381 -24.155 -14.868  0.00  0.00    -0.021 C 
ATOM      2  C   UNL     1      37.888 -24.419 -13.394  0.00  0.00    +0.168 C 
ATOM      3  C   UNL     1      36.616 -25.015 -12.787  0.00  0.00    +0.162 C 
ATOM      4  C   UNL     1      37.896 -24.637 -14.905  0.00  0.00    +0.144 C 
ATOM      5  C   UNL     1      36.709 -23.942 -15.571  0.00  0.00    +0.058 C 
ATOM      6  C   UNL     1      35.356 -24.653 -13.548  0.00  0.00    +0.003 C 
ATOM      7  C   UNL     1      34.158 -23.808 -15.519  0.00  0.00    -0.004 C 
ATOM      8  C   UNL     1      32.928 -24.013 -14.843  0.00  0.00    -0.000 C 
ATOM      9  C   UNL     1      32.916 -24.540 -13.534  0.00  0.00    -0.000 C 
ATOM     10  C   UNL     1      34.125 -24.850 -12.905  0.00  0.00    -0.002 C 
ATOM     11  C   UNL     1      31.691 -23.687 -15.466  0.00  0.00    -0.000 C 
ATOM     12  C   UNL     1      34.097 -23.260 -16.819  0.00  0.00    -0.000 C 
ATOM     13  C   UNL     1      31.673 -23.148 -16.771  0.00  0.00    -0.000 C 
ATOM     14  C   UNL     1      30.467 -23.899 -14.786  0.00  0.00    -0.000 C 
ATOM     15  C   UNL     1      31.697 -24.743 -12.873  0.00  0.00    -0.000 C 
ATOM     16  C   UNL     1      32.884 -22.937 -17.432  0.00  0.00    -0.000 C 
ATOM     17  C   UNL     1      30.488 -24.429 -13.492  0.00  0.00    -0.000 C 
ATOM     18  C   UNL     1      30.449 -22.832 -17.378  0.00  0.00    -0.000 C 
ATOM     19  C   UNL     1      29.257 -23.574 -15.416  0.00  0.00    -0.000 C 
ATOM     20  C   UNL     1      29.249 -23.045 -16.704  0.00  0.00    +0.000 C 
ENDROOT
BRANCH   2  21
ATOM     21  O   UNL     1      37.948 -23.021 -13.110  0.00  0.00    -0.379 OA
ATOM     22  H   UNL     1      37.978 -22.888 -12.150  0.00  0.00    +0.211 HD
ENDBRANCH   2  21
BRANCH   3  23
ATOM     23  O   UNL     1      36.716 -26.438 -12.776  0.00  0.00    -0.377 OA
ATOM     24  H   UNL     1      35.879 -26.818 -12.466  0.00  0.00    +0.211 HD
ENDBRANCH   3  23
BRANCH   4  25
ATOM     25  O   UNL     1      39.099 -24.122 -15.468  0.00  0.00    -0.382 OA
ATOM     26  H   UNL     1      38.889 -23.386 -16.064  0.00  0.00    +0.210 HD
ENDBRANCH   4  25
TORSDOF 3
ENDMDL
MODEL 5
REMARK VINA RESULT:      -9.9      1.176      3.323
REMARK  Name = 5287739
REMARK  3 active torsions:
REMARK  status: ('A' for Active; 'I' for Inactive)
REMARK    1  A    between atoms: C_2  and  O_21
REMARK    2  A    between atoms: C_3  and  O_23
REMARK    3  A    between atoms: C_4  and  O_25
REMARK                            x       y       z     vdW  Elec       q    Type
REMARK                         _______ _______ _______ _____ _____    ______ ____
ROOT
ATOM      1  C   UNL     1      36.973 -23.979 -15.009  0.00  0.00    -0.021 C 
ATOM      2  C   UNL     1      38.050 -24.871 -12.446  0.00  0.00    +0.168 C 
ATOM      3  C   UNL     1      36.601 -25.218 -12.791  0.00  0.00    +0.162 C 
ATOM      4  C   UNL     1      38.924 -24.987 -13.691  0.00  0.00    +0.144 C 
ATOM      5  C   UNL     1      38.473 -24.011 -14.777  0.00  0.00    +0.058 C 
ATOM      6  C   UNL     1      36.102 -24.545 -14.054  0.00  0.00    +0.003 C 
ATOM      7  C   UNL     1      36.438 -23.335 -16.166  0.00  0.00    -0.004 C 
ATOM      8  C   UNL     1      35.032 -23.314 -16.362  0.00  0.00    -0.000 C 
ATOM      9  C   UNL     1      34.174 -23.911 -15.413  0.00  0.00    -0.000 C 
ATOM     10  C   UNL     1      34.717 -24.513 -14.276  0.00  0.00    -0.002 C 
ATOM     11  C   UNL     1      34.466 -22.690 -17.508  0.00  0.00    -0.000 C 
ATOM     12  C   UNL     1      37.235 -22.702 -17.144  0.00  0.00    -0.000 C 
ATOM     13  C   UNL     1      35.300 -22.075 -18.467  0.00  0.00    -0.000 C 
ATOM     14  C   UNL     1      33.063 -22.678 -17.698  0.00  0.00    -0.000 C 
ATOM     15  C   UNL     1      32.788 -23.890 -15.615  0.00  0.00    -0.000 C 
ATOM     16  C   UNL     1      36.682 -22.087 -18.269  0.00  0.00    -0.000 C 
ATOM     17  C   UNL     1      32.238 -23.283 -16.744  0.00  0.00    -0.000 C 
ATOM     18  C   UNL     1      34.733 -21.464 -19.594  0.00  0.00    -0.000 C 
ATOM     19  C   UNL     1      32.521 -22.059 -18.835  0.00  0.00    -0.000 C 
ATOM     20  C   UNL     1      33.352 -21.457 -19.776  0.00  0.00    +0.000 C 
ENDROOT
BRANCH   2  21
ATOM     21  O   UNL     1      38.118 -23.541 -11.932  0.00  0.00    -0.379 OA
ATOM     22  H   UNL     1      38.760 -23.508 -11.206  0.00  0.00    +0.211 HD
ENDBRANCH   2  21
BRANCH   3  23
ATOM     23  O   UNL     1      36.481 -26.627 -12.981  0.00  0.00    -0.377 OA
ATOM     24  H   UNL     1      36.498 -26.827 -13.930  0.00  0.00    +0.211 HD
ENDBRANCH   3  23
BRANCH   4  25
ATOM     25  O   UNL     1      40.282 -24.707 -13.365  0.00  0.00    -0.382 OA
ATOM     26  H   UNL     1      40.690 -25.494 -12.972  0.00  0.00    +0.210 HD
ENDBRANCH   4  25
TORSDOF 3
ENDMDL
MODEL 6
REMARK VINA RESULT:      -9.9      1.948      3.424
REMARK  Name = 5287739
REMARK  3 active torsions:
REMARK  status: ('A' for Active; 'I' for Inactive)
REMARK    1  A    between atoms: C_2  and  O_21
REMARK    2  A    between atoms: C_3  and  O_23
REMARK    3  A    between atoms: C_4  and  O_25
REMARK                            x       y       z     vdW  Elec       q    Type
REMARK                         _______ _______ _______ _____ _____    ______ ____
ROOT
ATOM      1  C   UNL     1      35.137 -24.483 -14.041  0.00  0.00    -0.021 C 
ATOM      2  C   UNL     1      38.002 -25.043 -13.965  0.00  0.00    +0.168 C 
ATOM      3  C   UNL     1      37.467 -24.110 -15.054  0.00  0.00    +0.162 C 
ATOM      4  C   UNL     1      37.268 -24.786 -12.652  0.00  0.00    +0.144 C 
ATOM      5  C   UNL     1      35.772 -25.065 -12.790  0.00  0.00    +0.058 C 
ATOM      6  C   UNL     1      35.954 -24.047 -15.105  0.00  0.00    +0.003 C 
ATOM      7  C   UNL     1      33.716 -24.421 -14.163  0.00  0.00    -0.004 C 
ATOM      8  C   UNL     1      33.143 -23.876 -15.342  0.00  0.00    -0.000 C 
ATOM      9  C   UNL     1      33.973 -23.415 -16.387  0.00  0.00    -0.000 C 
ATOM     10  C   UNL     1      35.361 -23.508 -16.257  0.00  0.00    -0.002 C 
ATOM     11  C   UNL     1      31.731 -23.789 -15.493  0.00  0.00    -0.000 C 
ATOM     12  C   UNL     1      32.828 -24.880 -13.167  0.00  0.00    -0.000 C 
ATOM     13  C   UNL     1      30.878 -24.253 -14.468  0.00  0.00    -0.000 C 
ATOM     14  C   UNL     1      31.168 -23.240 -16.670  0.00  0.00    -0.000 C 
ATOM     15  C   UNL     1      33.400 -22.874 -17.546  0.00  0.00    -0.000 C 
ATOM     16  C   UNL     1      31.441 -24.798 -13.313  0.00  0.00    -0.000 C 
ATOM     17  C   UNL     1      32.016 -22.785 -17.686  0.00  0.00    -0.000 C 
ATOM     18  C   UNL     1      29.487 -24.162 -14.625  0.00  0.00    -0.000 C 
ATOM     19  C   UNL     1      29.774 -23.160 -16.802  0.00  0.00    -0.000 C 
ATOM     20  C   UNL     1      28.940 -23.619 -15.785  0.00  0.00    +0.000 C 
ENDROOT
BRANCH   2  21
ATOM     21  O   UNL     1      37.818 -26.402 -14.362  0.00  0.00    -0.379 OA
ATOM     22  H   UNL     1      37.035 -26.763 -13.919  0.00  0.00    +0.211 HD
ENDBRANCH   2  21
BRANCH   3  23
ATOM     23  O   UNL     1      37.944 -22.785 -14.822  0.00  0.00    -0.377 OA
ATOM     24  H   UNL     1      37.232 -22.151 -15.000  0.00  0.00    +0.211 HD
ENDBRANCH   3  23
BRANCH   4  25
ATOM     25  O   UNL     1      37.794 -25.622 -11.625  0.00  0.00    -0.382 OA
ATOM     26  H   UNL     1      38.222 -25.074 -10.949  0.00  0.00    +0.210 HD
ENDBRANCH   4  25
TORSDOF 3
ENDMDL
MODEL 7
REMARK VINA RESULT:      -9.6      1.571      2.626
REMARK  Name = 5287739
REMARK  3 active torsions:
REMARK  status: ('A' for Active; 'I' for Inactive)
REMARK    1  A    between atoms: C_2  and  O_21
REMARK    2  A    between atoms: C_3  and  O_23
REMARK    3  A    between atoms: C_4  and  O_25
REMARK                            x       y       z     vdW  Elec       q    Type
REMARK                         _______ _______ _______ _____ _____    ______ ____
ROOT
ATOM      1  C   UNL     1      34.936 -23.338 -15.987  0.00  0.00    -0.021 C 
ATOM      2  C   UNL     1      36.151 -24.950 -13.876  0.00  0.00    +0.168 C 
ATOM      3  C   UNL     1      37.039 -23.981 -14.660  0.00  0.00    +0.162 C 
ATOM      4  C   UNL     1      34.785 -24.317 -13.625  0.00  0.00    +0.144 C 
ATOM      5  C   UNL     1      34.068 -24.009 -14.938  0.00  0.00    +0.058 C 
ATOM      6  C   UNL     1      36.340 -23.344 -15.844  0.00  0.00    +0.003 C 
ATOM      7  C   UNL     1      34.341 -22.744 -17.141  0.00  0.00    -0.004 C 
ATOM      8  C   UNL     1      35.172 -22.124 -18.110  0.00  0.00    -0.000 C 
ATOM      9  C   UNL     1      36.573 -22.110 -17.940  0.00  0.00    -0.000 C 
ATOM     10  C   UNL     1      37.137 -22.720 -16.816  0.00  0.00    -0.002 C 
ATOM     11  C   UNL     1      34.612 -21.513 -19.267  0.00  0.00    -0.000 C 
ATOM     12  C   UNL     1      32.951 -22.737 -17.383  0.00  0.00    -0.000 C 
ATOM     13  C   UNL     1      33.214 -21.522 -19.468  0.00  0.00    -0.000 C 
ATOM     14  C   UNL     1      35.448 -20.893 -20.226  0.00  0.00    -0.000 C 
ATOM     15  C   UNL     1      37.387 -21.493 -18.899  0.00  0.00    -0.000 C 
ATOM     16  C   UNL     1      32.398 -22.140 -18.519  0.00  0.00    -0.000 C 
ATOM     17  C   UNL     1      36.832 -20.891 -20.027  0.00  0.00    -0.000 C 
ATOM     18  C   UNL     1      32.671 -20.916 -20.610  0.00  0.00    -0.000 C 
ATOM     19  C   UNL     1      34.878 -20.295 -21.360  0.00  0.00    -0.000 C 
ATOM     20  C   UNL     1      33.499 -20.306 -21.549  0.00  0.00    +0.000 C 
ENDROOT
BRANCH   2  21
ATOM     21  O   UNL     1      35.992 -26.161 -14.614  0.00  0.00    -0.379 OA
ATOM     22  H   UNL     1      36.839 -26.407 -15.017  0.00  0.00    +0.211 HD
ENDBRANCH   2  21
BRANCH   3  23
ATOM     23  O   UNL     1      37.469 -22.927 -13.799  0.00  0.00    -0.377 OA
ATOM     24  H   UNL     1      36.829 -22.199 -13.836  0.00  0.00    +0.211 HD
ENDBRANCH   3  23
BRANCH   4  25
ATOM     25  O   UNL     1      33.971 -25.199 -12.858  0.00  0.00    -0.382 OA
ATOM     26  H   UNL     1      34.111 -26.111 -13.156  0.00  0.00    +0.210 HD
ENDBRANCH   4  25
TORSDOF 3
ENDMDL
MODEL 8
REMARK VINA RESULT:      -9.4      2.102      4.381
REMARK  Name = 5287739
REMARK  3 active torsions:
REMARK  status: ('A' for Active; 'I' for Inactive)
REMARK    1  A    between atoms: C_2  and  O_21
REMARK    2  A    between atoms: C_3  and  O_23
REMARK    3  A    between atoms: C_4  and  O_25
REMARK                            x       y       z     vdW  Elec       q    Type
REMARK                         _______ _______ _______ _____ _____    ______ ____
ROOT
ATOM      1  C   UNL     1      34.029 -23.560 -15.538  0.00  0.00    -0.021 C 
ATOM      2  C   UNL     1      32.330 -24.345 -13.297  0.00  0.00    +0.168 C 
ATOM      3  C   UNL     1      31.689 -24.170 -14.675  0.00  0.00    +0.162 C 
ATOM      4  C   UNL     1      33.704 -24.993 -13.440  0.00  0.00    +0.144 C 
ATOM      5  C   UNL     1      34.645 -24.118 -14.268  0.00  0.00    +0.058 C 
ATOM      6  C   UNL     1      32.629 -23.583 -15.709  0.00  0.00    +0.003 C 
ATOM      7  C   UNL     1      34.858 -22.967 -16.539  0.00  0.00    -0.004 C 
ATOM      8  C   UNL     1      34.261 -22.449 -17.717  0.00  0.00    -0.000 C 
ATOM      9  C   UNL     1      32.861 -22.506 -17.889  0.00  0.00    -0.000 C 
ATOM     10  C   UNL     1      32.066 -23.067 -16.886  0.00  0.00    -0.002 C 
ATOM     11  C   UNL     1      35.057 -21.861 -18.740  0.00  0.00    -0.000 C 
ATOM     12  C   UNL     1      36.261 -22.860 -16.425  0.00  0.00    -0.000 C 
ATOM     13  C   UNL     1      36.459 -21.780 -18.589  0.00  0.00    -0.000 C 
ATOM     14  C   UNL     1      34.454 -21.351 -19.914  0.00  0.00    -0.000 C 
ATOM     15  C   UNL     1      32.279 -21.996 -19.057  0.00  0.00    -0.000 C 
ATOM     16  C   UNL     1      37.045 -22.281 -17.426  0.00  0.00    -0.000 C 
ATOM     17  C   UNL     1      33.065 -21.427 -20.058  0.00  0.00    -0.000 C 
ATOM     18  C   UNL     1      37.236 -21.201 -19.602  0.00  0.00    -0.000 C 
ATOM     19  C   UNL     1      35.255 -20.776 -20.912  0.00  0.00    -0.000 C 
ATOM     20  C   UNL     1      36.637 -20.702 -20.756  0.00  0.00    +0.000 C 
ENDROOT
BRANCH   2  21
ATOM     21  O   UNL     1      32.461 -23.074 -12.662  0.00  0.00    -0.379 OA
ATOM     22  H   UNL     1      32.914 -22.460 -13.259  0.00  0.00    +0.211 HD
ENDBRANCH   2  21
BRANCH   3  23
ATOM     23  O   UNL     1      31.255 -25.439 -15.162  0.00  0.00    -0.377 OA
ATOM     24  H   UNL     1      31.820 -26.137 -14.795  0.00  0.00    +0.211 HD
ENDBRANCH   3  23
BRANCH   4  25
ATOM     25  O   UNL     1      34.286 -25.197 -12.156  0.00  0.00    -0.382 OA
ATOM     26  H   UNL     1      35.241 -25.338 -12.251  0.00  0.00    +0.210 HD
ENDBRANCH   4  25
TORSDOF 3
ENDMDL
MODEL 9
REMARK VINA RESULT:      -9.3     10.113     13.658
REMARK  Name = 5287739
REMARK  3 active torsions:
REMARK  status: ('A' for Active; 'I' for Inactive)
REMARK    1  A    between atoms: C_2  and  O_21
REMARK    2  A    between atoms: C_3  and  O_23
REMARK    3  A    between atoms: C_4  and  O_25
REMARK                            x       y       z     vdW  Elec       q    Type
REMARK                         _______ _______ _______ _____ _____    ______ ____
ROOT
ATOM      1  C   UNL     1      33.933 -13.917 -24.160  0.00  0.00    -0.021 C 
ATOM      2  C   UNL     1      33.547 -11.671 -25.985  0.00  0.00    +0.168 C 
ATOM      3  C   UNL     1      33.195 -13.078 -26.471  0.00  0.00    +0.162 C 
ATOM      4  C   UNL     1      33.142 -11.509 -24.523  0.00  0.00    +0.144 C 
ATOM      5  C   UNL     1      33.889 -12.496 -23.628  0.00  0.00    +0.058 C 
ATOM      6  C   UNL     1      33.612 -14.172 -25.510  0.00  0.00    +0.003 C 
ATOM      7  C   UNL     1      34.345 -14.990 -23.312  0.00  0.00    -0.004 C 
ATOM      8  C   UNL     1      34.382 -16.311 -23.830  0.00  0.00    -0.000 C 
ATOM      9  C   UNL     1      34.028 -16.556 -25.175  0.00  0.00    -0.000 C 
ATOM     10  C   UNL     1      33.653 -15.489 -25.994  0.00  0.00    -0.002 C 
ATOM     11  C   UNL     1      34.777 -17.405 -23.011  0.00  0.00    -0.000 C 
ATOM     12  C   UNL     1      34.729 -14.815 -21.965  0.00  0.00    -0.000 C 
ATOM     13  C   UNL     1      35.147 -17.186 -21.665  0.00  0.00    -0.000 C 
ATOM     14  C   UNL     1      34.806 -18.720 -23.534  0.00  0.00    -0.000 C 
ATOM     15  C   UNL     1      34.063 -17.863 -25.679  0.00  0.00    -0.000 C 
ATOM     16  C   UNL     1      35.120 -15.886 -21.159  0.00  0.00    -0.000 C 
ATOM     17  C   UNL     1      34.445 -18.932 -24.869  0.00  0.00    -0.000 C 
ATOM     18  C   UNL     1      35.534 -18.271 -20.865  0.00  0.00    -0.000 C 
ATOM     19  C   UNL     1      35.197 -19.786 -22.712  0.00  0.00    -0.000 C 
ATOM     20  C   UNL     1      35.558 -19.562 -21.386  0.00  0.00    +0.000 C 
ENDROOT
BRANCH   2  21
ATOM     21  O   UNL     1      34.951 -11.451 -26.122  0.00  0.00    -0.379 OA
ATOM     22  H   UNL     1      35.106 -10.752 -26.776  0.00  0.00    +0.211 HD
ENDBRANCH   2  21
BRANCH   3  23
ATOM     23  O   UNL     1      31.783 -13.180 -26.650  0.00  0.00    -0.377 OA
ATOM     24  H   UNL     1      31.413 -13.764 -25.969  0.00  0.00    +0.211 HD
ENDBRANCH   3  23
BRANCH   4  25
ATOM     25  O   UNL     1      33.429 -10.186 -24.079  0.00  0.00    -0.382 OA
ATOM     26  H   UNL     1      32.948 -10.009 -23.255  0.00  0.00    +0.210 HD
ENDBRANCH   4  25
TORSDOF 3
ENDMDL
