MODEL 1
REMARK VINA RESULT:     -11.1      0.000      0.000
REMARK  Name = 115368
REMARK  5 active torsions:
REMARK  status: ('A' for Active; 'I' for Inactive)
REMARK    1  A    between atoms: N_2  and  C_17
REMARK    2  A    between atoms: C_17  and  C_18
REMARK    3  A    between atoms: C_18  and  C_19
REMARK    4  A    between atoms: C_19  and  C_20
REMARK    5  A    between atoms: C_20  and  N_23
REMARK                            x       y       z     vdW  Elec       q    Type
REMARK                         _______ _______ _______ _____ _____    ______ ____
ROOT
ATOM      1  S   UNL     1      33.646 -15.936 -25.884  0.00  0.00    +0.014 S 
ATOM      2  N   UNL     1      35.961 -20.089 -21.279  0.00  0.00    +0.389 N 
ATOM      3  N   UNL     1      35.086 -18.141 -23.178  0.00  0.00    -0.297 N 
ATOM      4  N   UNL     1      34.226 -17.356 -25.261  0.00  0.00    -0.194 NA
ATOM      5  C   UNL     1      36.422 -18.699 -21.190  0.00  0.00    -0.055 C 
ATOM      6  C   UNL     1      34.600 -20.138 -21.830  0.00  0.00    -0.055 C 
ATOM      7  C   UNL     1      36.412 -18.020 -22.563  0.00  0.00    +0.069 C 
ATOM      8  C   UNL     1      34.560 -19.510 -23.224  0.00  0.00    +0.069 C 
ATOM      9  C   UNL     1      34.567 -17.154 -23.986  0.00  0.00    +0.140 A 
ATOM     10  C   UNL     1      34.372 -15.829 -23.460  0.00  0.00    +0.040 A 
ATOM     11  C   UNL     1      33.838 -15.003 -24.451  0.00  0.00    +0.050 A 
ATOM     12  C   UNL     1      34.619 -15.277 -22.184  0.00  0.00    +0.003 C 
ATOM     13  C   UNL     1      33.544 -13.651 -24.218  0.00  0.00    +0.008 C 
ATOM     14  C   UNL     1      34.328 -13.931 -21.942  0.00  0.00    +0.000 C 
ATOM     15  C   UNL     1      33.798 -13.130 -22.947  0.00  0.00    +0.001 C 
ATOM     16  H   UNL     1      36.584 -20.600 -21.906  0.00  0.00    -0.080 HD
ENDROOT
BRANCH   2  17
ATOM     17  C   UNL     1      36.008 -20.732 -19.966  0.00  0.00    -0.077 C 
BRANCH  17  18
ATOM     18  C   UNL     1      34.915 -21.793 -19.855  0.00  0.00    -0.021 C 
BRANCH  18  19
ATOM     19  C   UNL     1      34.877 -22.403 -18.450  0.00  0.00    +0.020 C 
BRANCH  19  20
ATOM     20  C   UNL     1      33.796 -23.470 -18.303  0.00  0.00    +0.101 C 
BRANCH  20  23
ATOM     21  O   UNL     1      34.699 -24.279 -15.603  0.00  0.00    -0.274 OA
ATOM     22  O   UNL     1      31.088 -22.445 -17.836  0.00  0.00    -0.274 OA
ATOM     23  N   UNL     1      33.088 -23.368 -17.042  0.00  0.00    -0.230 N 
ATOM     24  C   UNL     1      32.651 -23.263 -14.766  0.00  0.00    +0.086 C 
ATOM     25  C   UNL     1      31.326 -23.159 -15.530  0.00  0.00    +0.086 C 
ATOM     26  C   UNL     1      32.630 -24.103 -13.495  0.00  0.00    +0.010 C 
ATOM     27  C   UNL     1      30.478 -24.435 -15.516  0.00  0.00    +0.010 C 
ATOM     28  C   UNL     1      31.822 -25.386 -13.629  0.00  0.00    +0.001 C 
ATOM     29  C   UNL     1      30.419 -25.091 -14.145  0.00  0.00    +0.001 C 
ATOM     30  C   UNL     1      33.626 -23.738 -15.823  0.00  0.00    +0.231 C 
ATOM     31  C   UNL     1      31.790 -22.906 -16.947  0.00  0.00    +0.231 C 
ENDBRANCH  20  23
ENDBRANCH  19  20
ENDBRANCH  18  19
ENDBRANCH  17  18
ENDBRANCH   2  17
TORSDOF 5
ENDMDL
MODEL 2
REMARK VINA RESULT:     -10.8      4.560     10.849
REMARK  Name = 115368
REMARK  5 active torsions:
REMARK  status: ('A' for Active; 'I' for Inactive)
REMARK    1  A    between atoms: N_2  and  C_17
REMARK    2  A    between atoms: C_17  and  C_18
REMARK    3  A    between atoms: C_18  and  C_19
REMARK    4  A    between atoms: C_19  and  C_20
REMARK    5  A    between atoms: C_20  and  N_23
REMARK                            x       y       z     vdW  Elec       q    Type
REMARK                         _______ _______ _______ _____ _____    ______ ____
ROOT
ATOM      1  S   UNL     1      37.095 -20.917 -19.698  0.00  0.00    +0.014 S 
ATOM      2  N   UNL     1      34.744 -16.933 -24.432  0.00  0.00    +0.389 N 
ATOM      3  N   UNL     1      35.608 -18.799 -22.447  0.00  0.00    -0.297 N 
ATOM      4  N   UNL     1      37.149 -19.831 -20.947  0.00  0.00    -0.194 NA
ATOM      5  C   UNL     1      34.042 -18.209 -24.249  0.00  0.00    -0.055 C 
ATOM      6  C   UNL     1      35.288 -16.465 -23.150  0.00  0.00    -0.055 C 
ATOM      7  C   UNL     1      34.976 -19.281 -23.680  0.00  0.00    +0.069 C 
ATOM      8  C   UNL     1      36.263 -17.492 -22.572  0.00  0.00    +0.069 C 
ATOM      9  C   UNL     1      35.910 -19.647 -21.405  0.00  0.00    +0.140 A 
ATOM     10  C   UNL     1      34.858 -20.386 -20.759  0.00  0.00    +0.040 A 
ATOM     11  C   UNL     1      35.394 -21.174 -19.738  0.00  0.00    +0.050 A 
ATOM     12  C   UNL     1      33.464 -20.432 -20.982  0.00  0.00    +0.003 C 
ATOM     13  C   UNL     1      34.596 -22.003 -18.936  0.00  0.00    +0.008 C 
ATOM     14  C   UNL     1      32.660 -21.254 -20.188  0.00  0.00    +0.000 C 
ATOM     15  C   UNL     1      33.221 -22.029 -19.179  0.00  0.00    +0.001 C 
ATOM     16  H   UNL     1      35.519 -17.077 -25.081  0.00  0.00    -0.080 HD
ENDROOT
BRANCH   2  17
ATOM     17  C   UNL     1      33.848 -15.930 -25.007  0.00  0.00    -0.077 C 
BRANCH  17  18
ATOM     18  C   UNL     1      33.385 -14.951 -23.929  0.00  0.00    -0.021 C 
BRANCH  18  19
ATOM     19  C   UNL     1      33.418 -13.508 -24.442  0.00  0.00    +0.020 C 
BRANCH  19  20
ATOM     20  C   UNL     1      34.005 -12.537 -23.424  0.00  0.00    +0.101 C 
BRANCH  20  23
ATOM     21  O   UNL     1      33.725  -9.640 -23.955  0.00  0.00    -0.274 OA
ATOM     22  O   UNL     1      31.818 -13.100 -21.553  0.00  0.00    -0.274 OA
ATOM     23  N   UNL     1      33.016 -11.612 -22.908  0.00  0.00    -0.230 N 
ATOM     24  C   UNL     1      31.656  -9.747 -22.677  0.00  0.00    +0.086 C 
ATOM     25  C   UNL     1      31.363 -10.718 -21.528  0.00  0.00    +0.086 C 
ATOM     26  C   UNL     1      31.678  -8.266 -22.318  0.00  0.00    +0.010 C 
ATOM     27  C   UNL     1      31.958 -10.307 -20.176  0.00  0.00    +0.010 C 
ATOM     28  C   UNL     1      32.367  -7.975 -20.991  0.00  0.00    +0.001 C 
ATOM     29  C   UNL     1      31.776  -8.827 -19.876  0.00  0.00    +0.001 C 
ATOM     30  C   UNL     1      32.949 -10.277 -23.260  0.00  0.00    +0.231 C 
ATOM     31  C   UNL     1      32.051 -11.983 -21.990  0.00  0.00    +0.231 C 
ENDBRANCH  20  23
ENDBRANCH  19  20
ENDBRANCH  18  19
ENDBRANCH  17  18
ENDBRANCH   2  17
TORSDOF 5
ENDMDL
MODEL 3
REMARK VINA RESULT:     -10.6      1.820      2.558
REMARK  Name = 115368
REMARK  5 active torsions:
REMARK  status: ('A' for Active; 'I' for Inactive)
REMARK    1  A    between atoms: N_2  and  C_17
REMARK    2  A    between atoms: C_17  and  C_18
REMARK    3  A    between atoms: C_18  and  C_19
REMARK    4  A    between atoms: C_19  and  C_20
REMARK    5  A    between atoms: C_20  and  N_23
REMARK                            x       y       z     vdW  Elec       q    Type
REMARK                         _______ _______ _______ _____ _____    ______ ____
ROOT
ATOM      1  S   UNL     1      33.784 -15.267 -26.456  0.00  0.00    +0.014 S 
ATOM      2  N   UNL     1      35.259 -19.744 -21.808  0.00  0.00    +0.389 N 
ATOM      3  N   UNL     1      34.729 -17.663 -23.695  0.00  0.00    -0.297 N 
ATOM      4  N   UNL     1      34.245 -16.733 -25.838  0.00  0.00    -0.194 NA
ATOM      5  C   UNL     1      35.699 -18.368 -21.548  0.00  0.00    -0.055 C 
ATOM      6  C   UNL     1      34.013 -19.738 -22.588  0.00  0.00    -0.055 C 
ATOM      7  C   UNL     1      35.929 -17.601 -22.854  0.00  0.00    +0.069 C 
ATOM      8  C   UNL     1      34.216 -19.019 -23.923  0.00  0.00    +0.069 C 
ATOM      9  C   UNL     1      34.360 -16.619 -24.513  0.00  0.00    +0.140 A 
ATOM     10  C   UNL     1      34.080 -15.329 -23.942  0.00  0.00    +0.040 A 
ATOM     11  C   UNL     1      33.727 -14.432 -24.952  0.00  0.00    +0.050 A 
ATOM     12  C   UNL     1      34.103 -14.864 -22.608  0.00  0.00    +0.003 C 
ATOM     13  C   UNL     1      33.400 -13.095 -24.684  0.00  0.00    +0.008 C 
ATOM     14  C   UNL     1      33.778 -13.534 -22.330  0.00  0.00    +0.000 C 
ATOM     15  C   UNL     1      33.431 -12.661 -23.357  0.00  0.00    +0.001 C 
ATOM     16  H   UNL     1      35.980 -20.220 -22.350  0.00  0.00    -0.080 HD
ENDROOT
BRANCH   2  17
ATOM     17  C   UNL     1      35.076 -20.472 -20.553  0.00  0.00    -0.077 C 
BRANCH  17  18
ATOM     18  C   UNL     1      33.660 -21.040 -20.469  0.00  0.00    -0.021 C 
BRANCH  18  19
ATOM     19  C   UNL     1      33.374 -21.609 -19.076  0.00  0.00    +0.020 C 
BRANCH  19  20
ATOM     20  C   UNL     1      34.118 -22.914 -18.812  0.00  0.00    +0.101 C 
BRANCH  20  23
ATOM     21  O   UNL     1      36.829 -22.313 -17.789  0.00  0.00    -0.274 OA
ATOM     22  O   UNL     1      32.664 -23.781 -16.417  0.00  0.00    -0.274 OA
ATOM     23  N   UNL     1      34.614 -23.001 -17.453  0.00  0.00    -0.230 N 
ATOM     24  C   UNL     1      35.919 -22.681 -15.562  0.00  0.00    +0.086 C 
ATOM     25  C   UNL     1      34.764 -23.625 -15.211  0.00  0.00    +0.086 C 
ATOM     26  C   UNL     1      37.273 -23.019 -14.950  0.00  0.00    +0.010 C 
ATOM     27  C   UNL     1      35.157 -25.101 -15.091  0.00  0.00    +0.010 C 
ATOM     28  C   UNL     1      37.587 -24.509 -14.960  0.00  0.00    +0.001 C 
ATOM     29  C   UNL     1      36.455 -25.306 -14.324  0.00  0.00    +0.001 C 
ATOM     30  C   UNL     1      35.897 -22.651 -17.076  0.00  0.00    +0.231 C 
ATOM     31  C   UNL     1      33.846 -23.469 -16.404  0.00  0.00    +0.231 C 
ENDBRANCH  20  23
ENDBRANCH  19  20
ENDBRANCH  18  19
ENDBRANCH  17  18
ENDBRANCH   2  17
TORSDOF 5
ENDMDL
MODEL 4
REMARK VINA RESULT:     -10.6      7.495     13.706
REMARK  Name = 115368
REMARK  5 active torsions:
REMARK  status: ('A' for Active; 'I' for Inactive)
REMARK    1  A    between atoms: N_2  and  C_17
REMARK    2  A    between atoms: C_17  and  C_18
REMARK    3  A    between atoms: C_18  and  C_19
REMARK    4  A    between atoms: C_19  and  C_20
REMARK    5  A    between atoms: C_20  and  N_23
REMARK                            x       y       z     vdW  Elec       q    Type
REMARK                         _______ _______ _______ _____ _____    ______ ____
ROOT
ATOM      1  S   UNL     1      33.212 -18.834 -25.597  0.00  0.00    +0.014 S 
ATOM      2  N   UNL     1      33.676 -12.232 -25.463  0.00  0.00    +0.389 N 
ATOM      3  N   UNL     1      33.498 -15.080 -25.304  0.00  0.00    -0.297 N 
ATOM      4  N   UNL     1      32.856 -17.268 -26.005  0.00  0.00    -0.194 NA
ATOM      5  C   UNL     1      33.820 -12.919 -24.174  0.00  0.00    -0.055 C 
ATOM      6  C   UNL     1      34.192 -13.077 -26.548  0.00  0.00    -0.055 C 
ATOM      7  C   UNL     1      33.070 -14.255 -24.169  0.00  0.00    +0.069 C 
ATOM      8  C   UNL     1      33.434 -14.404 -26.605  0.00  0.00    +0.069 C 
ATOM      9  C   UNL     1      33.564 -16.453 -25.220  0.00  0.00    +0.140 A 
ATOM     10  C   UNL     1      34.428 -17.068 -24.249  0.00  0.00    +0.040 A 
ATOM     11  C   UNL     1      34.333 -18.458 -24.347  0.00  0.00    +0.050 A 
ATOM     12  C   UNL     1      35.298 -16.520 -23.280  0.00  0.00    +0.003 C 
ATOM     13  C   UNL     1      35.069 -19.318 -23.518  0.00  0.00    +0.008 C 
ATOM     14  C   UNL     1      36.035 -17.368 -22.450  0.00  0.00    +0.000 C 
ATOM     15  C   UNL     1      35.921 -18.749 -22.568  0.00  0.00    +0.001 C 
ATOM     16  H   UNL     1      32.685 -12.056 -25.630  0.00  0.00    -0.080 HD
ENDROOT
BRANCH   2  17
ATOM     17  C   UNL     1      34.370 -10.944 -25.439  0.00  0.00    -0.077 C 
BRANCH  17  18
ATOM     18  C   UNL     1      34.074 -10.205 -24.136  0.00  0.00    -0.021 C 
BRANCH  18  19
ATOM     19  C   UNL     1      34.943  -8.950 -24.003  0.00  0.00    +0.020 C 
BRANCH  19  20
ATOM     20  C   UNL     1      34.420  -7.984 -22.944  0.00  0.00    +0.101 C 
BRANCH  20  23
ATOM     21  O   UNL     1      34.584  -5.645 -24.748  0.00  0.00    -0.274 OA
ATOM     22  O   UNL     1      31.554  -8.190 -22.356  0.00  0.00    -0.274 OA
ATOM     23  N   UNL     1      33.347  -7.147 -23.443  0.00  0.00    -0.230 N 
ATOM     24  C   UNL     1      32.151  -5.649 -24.749  0.00  0.00    +0.086 C 
ATOM     25  C   UNL     1      31.256  -6.129 -23.600  0.00  0.00    +0.086 C 
ATOM     26  C   UNL     1      32.043  -4.174 -25.114  0.00  0.00    +0.010 C 
ATOM     27  C   UNL     1      31.068  -5.113 -22.468  0.00  0.00    +0.010 C 
ATOM     28  C   UNL     1      31.943  -3.257 -23.902  0.00  0.00    +0.001 C 
ATOM     29  C   UNL     1      30.818  -3.701 -22.977  0.00  0.00    +0.001 C 
ATOM     30  C   UNL     1      33.533  -6.098 -24.324  0.00  0.00    +0.231 C 
ATOM     31  C   UNL     1      32.029  -7.311 -23.060  0.00  0.00    +0.231 C 
ENDBRANCH  20  23
ENDBRANCH  19  20
ENDBRANCH  18  19
ENDBRANCH  17  18
ENDBRANCH   2  17
TORSDOF 5
ENDMDL
MODEL 5
REMARK VINA RESULT:     -10.3      9.489     13.289
REMARK  Name = 115368
REMARK  5 active torsions:
REMARK  status: ('A' for Active; 'I' for Inactive)
REMARK    1  A    between atoms: N_2  and  C_17
REMARK    2  A    between atoms: C_17  and  C_18
REMARK    3  A    between atoms: C_18  and  C_19
REMARK    4  A    between atoms: C_19  and  C_20
REMARK    5  A    between atoms: C_20  and  N_23
REMARK                            x       y       z     vdW  Elec       q    Type
REMARK                         _______ _______ _______ _____ _____    ______ ____
ROOT
ATOM      1  S   UNL     1      30.826  -2.361 -24.844  0.00  0.00    +0.014 S 
ATOM      2  N   UNL     1      31.687  -7.669 -20.984  0.00  0.00    +0.389 N 
ATOM      3  N   UNL     1      31.372  -5.502 -22.821  0.00  0.00    -0.297 N 
ATOM      4  N   UNL     1      30.501  -3.431 -23.623  0.00  0.00    -0.194 NA
ATOM      5  C   UNL     1      31.996  -7.845 -22.408  0.00  0.00    -0.055 C 
ATOM      6  C   UNL     1      31.971  -6.289 -20.570  0.00  0.00    -0.055 C 
ATOM      7  C   UNL     1      31.181  -6.883 -23.277  0.00  0.00    +0.069 C 
ATOM      8  C   UNL     1      31.139  -5.299 -21.386  0.00  0.00    +0.069 C 
ATOM      9  C   UNL     1      31.371  -4.440 -23.697  0.00  0.00    +0.140 A 
ATOM     10  C   UNL     1      32.343  -4.387 -24.756  0.00  0.00    +0.040 A 
ATOM     11  C   UNL     1      32.154  -3.229 -25.512  0.00  0.00    +0.050 A 
ATOM     12  C   UNL     1      33.388  -5.265 -25.120  0.00  0.00    +0.003 C 
ATOM     13  C   UNL     1      32.963  -2.915 -26.615  0.00  0.00    +0.008 C 
ATOM     14  C   UNL     1      34.200  -4.961 -26.217  0.00  0.00    +0.000 C 
ATOM     15  C   UNL     1      33.988  -3.801 -26.954  0.00  0.00    +0.001 C 
ATOM     16  H   UNL     1      30.693  -7.854 -20.841  0.00  0.00    -0.080 HD
ENDROOT
BRANCH   2  17
ATOM     17  C   UNL     1      32.449  -8.617 -20.171  0.00  0.00    -0.077 C 
BRANCH  17  18
ATOM     18  C   UNL     1      31.540  -9.740 -19.673  0.00  0.00    -0.021 C 
BRANCH  18  19
ATOM     19  C   UNL     1      32.040 -11.108 -20.151  0.00  0.00    +0.020 C 
BRANCH  19  20
ATOM     20  C   UNL     1      31.435 -11.518 -21.490  0.00  0.00    +0.101 C 
BRANCH  20  23
ATOM     21  O   UNL     1      32.545 -10.109 -23.843  0.00  0.00    -0.274 OA
ATOM     22  O   UNL     1      32.816 -14.105 -21.531  0.00  0.00    -0.274 OA
ATOM     23  N   UNL     1      32.437 -11.976 -22.431  0.00  0.00    -0.230 N 
ATOM     24  C   UNL     1      34.090 -11.977 -24.059  0.00  0.00    +0.086 C 
ATOM     25  C   UNL     1      33.809 -13.424 -23.637  0.00  0.00    +0.086 C 
ATOM     26  C   UNL     1      34.329 -11.744 -25.545  0.00  0.00    +0.010 C 
ATOM     27  C   UNL     1      32.983 -14.235 -24.641  0.00  0.00    +0.010 C 
ATOM     28  C   UNL     1      33.393 -12.544 -26.442  0.00  0.00    +0.001 C 
ATOM     29  C   UNL     1      33.428 -14.022 -26.081  0.00  0.00    +0.001 C 
ATOM     30  C   UNL     1      32.919 -11.212 -23.477  0.00  0.00    +0.231 C 
ATOM     31  C   UNL     1      32.991 -13.241 -22.379  0.00  0.00    +0.231 C 
ENDBRANCH  20  23
ENDBRANCH  19  20
ENDBRANCH  18  19
ENDBRANCH  17  18
ENDBRANCH   2  17
TORSDOF 5
ENDMDL
MODEL 6
REMARK VINA RESULT:     -10.2      7.866     14.262
REMARK  Name = 115368
REMARK  5 active torsions:
REMARK  status: ('A' for Active; 'I' for Inactive)
REMARK    1  A    between atoms: N_2  and  C_17
REMARK    2  A    between atoms: C_17  and  C_18
REMARK    3  A    between atoms: C_18  and  C_19
REMARK    4  A    between atoms: C_19  and  C_20
REMARK    5  A    between atoms: C_20  and  N_23
REMARK                            x       y       z     vdW  Elec       q    Type
REMARK                         _______ _______ _______ _____ _____    ______ ____
ROOT
ATOM      1  S   UNL     1      33.485 -17.966 -25.877  0.00  0.00    +0.014 S 
ATOM      2  N   UNL     1      33.421 -11.517 -24.386  0.00  0.00    +0.389 N 
ATOM      3  N   UNL     1      33.444 -14.342 -24.816  0.00  0.00    -0.297 N 
ATOM      4  N   UNL     1      33.062 -16.370 -26.013  0.00  0.00    -0.194 NA
ATOM      5  C   UNL     1      33.459 -12.446 -23.250  0.00  0.00    -0.055 C 
ATOM      6  C   UNL     1      34.129 -12.094 -25.537  0.00  0.00    -0.055 C 
ATOM      7  C   UNL     1      32.819 -13.790 -23.609  0.00  0.00    +0.069 C 
ATOM      8  C   UNL     1      33.488 -13.418 -25.955  0.00  0.00    +0.069 C 
ATOM      9  C   UNL     1      33.604 -15.698 -24.995  0.00  0.00    +0.140 A 
ATOM     10  C   UNL     1      34.388 -16.455 -24.056  0.00  0.00    +0.040 A 
ATOM     11  C   UNL     1      34.412 -17.798 -24.438  0.00  0.00    +0.050 A 
ATOM     12  C   UNL     1      35.088 -16.074 -22.890  0.00  0.00    +0.003 C 
ATOM     13  C   UNL     1      35.105 -18.772 -23.703  0.00  0.00    +0.008 C 
ATOM     14  C   UNL     1      35.782 -17.036 -22.152  0.00  0.00    +0.000 C 
ATOM     15  C   UNL     1      35.789 -18.367 -22.554  0.00  0.00    +0.001 C 
ATOM     16  H   UNL     1      32.448 -11.361 -24.648  0.00  0.00    -0.080 HD
ENDROOT
BRANCH   2  17
ATOM     17  C   UNL     1      34.007 -10.228 -24.016  0.00  0.00    -0.077 C 
BRANCH  17  18
ATOM     18  C   UNL     1      32.908  -9.229 -23.658  0.00  0.00    -0.021 C 
BRANCH  18  19
ATOM     19  C   UNL     1      33.110  -8.668 -22.246  0.00  0.00    +0.020 C 
BRANCH  19  20
ATOM     20  C   UNL     1      33.612  -7.228 -22.254  0.00  0.00    +0.101 C 
BRANCH  20  23
ATOM     21  O   UNL     1      34.648  -6.118 -24.794  0.00  0.00    -0.274 OA
ATOM     22  O   UNL     1      30.854  -6.237 -22.153  0.00  0.00    -0.274 OA
ATOM     23  N   UNL     1      32.925  -6.409 -23.233  0.00  0.00    -0.230 N 
ATOM     24  C   UNL     1      32.377  -5.356 -25.226  0.00  0.00    +0.086 C 
ATOM     25  C   UNL     1      31.346  -4.966 -24.161  0.00  0.00    +0.086 C 
ATOM     26  C   UNL     1      32.817  -4.247 -26.173  0.00  0.00    +0.010 C 
ATOM     27  C   UNL     1      31.513  -3.552 -23.595  0.00  0.00    +0.010 C 
ATOM     28  C   UNL     1      33.029  -2.908 -25.480  0.00  0.00    +0.001 C 
ATOM     29  C   UNL     1      31.801  -2.515 -24.670  0.00  0.00    +0.001 C 
ATOM     30  C   UNL     1      33.495  -5.979 -24.417  0.00  0.00    +0.231 C 
ATOM     31  C   UNL     1      31.629  -5.962 -23.058  0.00  0.00    +0.231 C 
ENDBRANCH  20  23
ENDBRANCH  19  20
ENDBRANCH  18  19
ENDBRANCH  17  18
ENDBRANCH   2  17
TORSDOF 5
ENDMDL
MODEL 7
REMARK VINA RESULT:     -10.2      7.529     13.476
REMARK  Name = 115368
REMARK  5 active torsions:
REMARK  status: ('A' for Active; 'I' for Inactive)
REMARK    1  A    between atoms: N_2  and  C_17
REMARK    2  A    between atoms: C_17  and  C_18
REMARK    3  A    between atoms: C_18  and  C_19
REMARK    4  A    between atoms: C_19  and  C_20
REMARK    5  A    between atoms: C_20  and  N_23
REMARK                            x       y       z     vdW  Elec       q    Type
REMARK                         _______ _______ _______ _____ _____    ______ ____
ROOT
ATOM      1  S   UNL     1      33.360 -18.622 -25.762  0.00  0.00    +0.014 S 
ATOM      2  N   UNL     1      33.598 -12.096 -24.685  0.00  0.00    +0.389 N 
ATOM      3  N   UNL     1      33.508 -14.941 -24.934  0.00  0.00    -0.297 N 
ATOM      4  N   UNL     1      32.972 -17.025 -25.964  0.00  0.00    -0.194 NA
ATOM      5  C   UNL     1      33.706 -12.954 -23.499  0.00  0.00    -0.055 C 
ATOM      6  C   UNL     1      34.191 -12.765 -25.851  0.00  0.00    -0.055 C 
ATOM      7  C   UNL     1      33.002 -14.296 -23.718  0.00  0.00    +0.069 C 
ATOM      8  C   UNL     1      33.480 -14.091 -26.129  0.00  0.00    +0.069 C 
ATOM      9  C   UNL     1      33.615 -16.310 -25.039  0.00  0.00    +0.140 A 
ATOM     10  C   UNL     1      34.454 -17.033 -24.122  0.00  0.00    +0.040 A 
ATOM     11  C   UNL     1      34.410 -18.397 -24.418  0.00  0.00    +0.050 A 
ATOM     12  C   UNL     1      35.261 -16.604 -23.044  0.00  0.00    +0.003 C 
ATOM     13  C   UNL     1      35.136 -19.346 -23.681  0.00  0.00    +0.008 C 
ATOM     14  C   UNL     1      35.988 -17.541 -22.305  0.00  0.00    +0.000 C 
ATOM     15  C   UNL     1      35.925 -18.894 -22.621  0.00  0.00    +0.001 C 
ATOM     16  H   UNL     1      32.610 -11.924 -24.875  0.00  0.00    -0.080 HD
ENDROOT
BRANCH   2  17
ATOM     17  C   UNL     1      34.247 -10.806 -24.447  0.00  0.00    -0.077 C 
BRANCH  17  18
ATOM     18  C   UNL     1      33.200  -9.722 -24.201  0.00  0.00    -0.021 C 
BRANCH  18  19
ATOM     19  C   UNL     1      32.277 -10.098 -23.038  0.00  0.00    +0.020 C 
BRANCH  19  20
ATOM     20  C   UNL     1      31.443  -8.920 -22.546  0.00  0.00    +0.101 C 
BRANCH  20  23
ATOM     21  O   UNL     1      30.501  -7.185 -24.750  0.00  0.00    -0.274 OA
ATOM     22  O   UNL     1      33.755  -7.467 -21.477  0.00  0.00    -0.274 OA
ATOM     23  N   UNL     1      31.974  -7.645 -22.987  0.00  0.00    -0.230 N 
ATOM     24  C   UNL     1      32.141  -5.558 -23.985  0.00  0.00    +0.086 C 
ATOM     25  C   UNL     1      33.470  -5.884 -23.293  0.00  0.00    +0.086 C 
ATOM     26  C   UNL     1      32.240  -4.865 -25.338  0.00  0.00    +0.010 C 
ATOM     27  C   UNL     1      34.600  -6.299 -24.240  0.00  0.00    +0.010 C 
ATOM     28  C   UNL     1      33.349  -5.419 -26.222  0.00  0.00    +0.001 C 
ATOM     29  C   UNL     1      34.680  -5.426 -25.483  0.00  0.00    +0.001 C 
ATOM     30  C   UNL     1      31.424  -6.892 -24.007  0.00  0.00    +0.231 C 
ATOM     31  C   UNL     1      33.103  -7.073 -22.433  0.00  0.00    +0.231 C 
ENDBRANCH  20  23
ENDBRANCH  19  20
ENDBRANCH  18  19
ENDBRANCH  17  18
ENDBRANCH   2  17
TORSDOF 5
ENDMDL
MODEL 8
REMARK VINA RESULT:      -9.9      7.639     13.510
REMARK  Name = 115368
REMARK  5 active torsions:
REMARK  status: ('A' for Active; 'I' for Inactive)
REMARK    1  A    between atoms: N_2  and  C_17
REMARK    2  A    between atoms: C_17  and  C_18
REMARK    3  A    between atoms: C_18  and  C_19
REMARK    4  A    between atoms: C_19  and  C_20
REMARK    5  A    between atoms: C_20  and  N_23
REMARK                            x       y       z     vdW  Elec       q    Type
REMARK                         _______ _______ _______ _____ _____    ______ ____
ROOT
ATOM      1  S   UNL     1      36.091 -18.622 -22.001  0.00  0.00    +0.014 S 
ATOM      2  N   UNL     1      33.102 -12.731 -22.427  0.00  0.00    +0.389 N 
ATOM      3  N   UNL     1      34.415 -15.270 -22.460  0.00  0.00    -0.297 N 
ATOM      4  N   UNL     1      35.713 -17.066 -21.577  0.00  0.00    -0.194 NA
ATOM      5  C   UNL     1      33.500 -13.351 -23.697  0.00  0.00    -0.055 C 
ATOM      6  C   UNL     1      32.756 -13.767 -21.444  0.00  0.00    -0.055 C 
ATOM      7  C   UNL     1      34.699 -14.284 -23.508  0.00  0.00    +0.069 C 
ATOM      8  C   UNL     1      33.947 -14.693 -21.194  0.00  0.00    +0.069 C 
ATOM      9  C   UNL     1      34.913 -16.552 -22.514  0.00  0.00    +0.140 A 
ATOM     10  C   UNL     1      34.573 -17.404 -23.621  0.00  0.00    +0.040 A 
ATOM     11  C   UNL     1      35.186 -18.649 -23.464  0.00  0.00    +0.050 A 
ATOM     12  C   UNL     1      33.769 -17.190 -24.763  0.00  0.00    +0.003 C 
ATOM     13  C   UNL     1      35.029 -19.684 -24.399  0.00  0.00    +0.008 C 
ATOM     14  C   UNL     1      33.606 -18.214 -25.700  0.00  0.00    +0.000 C 
ATOM     15  C   UNL     1      34.229 -19.444 -25.519  0.00  0.00    +0.001 C 
ATOM     16  H   UNL     1      33.889 -12.191 -22.067  0.00  0.00    -0.080 HD
ENDROOT
BRANCH   2  17
ATOM     17  C   UNL     1      31.977 -11.819 -22.630  0.00  0.00    -0.077 C 
BRANCH  17  18
ATOM     18  C   UNL     1      31.791 -10.923 -21.406  0.00  0.00    -0.021 C 
BRANCH  18  19
ATOM     19  C   UNL     1      31.780  -9.443 -21.801  0.00  0.00    +0.020 C 
BRANCH  19  20
ATOM     20  C   UNL     1      32.210  -9.219 -23.247  0.00  0.00    +0.101 C 
BRANCH  20  23
ATOM     21  O   UNL     1      30.727  -6.742 -23.897  0.00  0.00    -0.274 OA
ATOM     22  O   UNL     1      35.009  -8.343 -23.199  0.00  0.00    -0.274 OA
ATOM     23  N   UNL     1      32.729  -7.883 -23.468  0.00  0.00    -0.230 N 
ATOM     24  C   UNL     1      32.851  -5.575 -23.666  0.00  0.00    +0.086 C 
ATOM     25  C   UNL     1      34.235  -6.171 -23.950  0.00  0.00    +0.086 C 
ATOM     26  C   UNL     1      32.426  -4.409 -24.550  0.00  0.00    +0.010 C 
ATOM     27  C   UNL     1      34.626  -6.202 -25.431  0.00  0.00    +0.010 C 
ATOM     28  C   UNL     1      32.799  -4.592 -26.015  0.00  0.00    +0.001 C 
ATOM     29  C   UNL     1      34.280  -4.913 -26.161  0.00  0.00    +0.001 C 
ATOM     30  C   UNL     1      31.935  -6.780 -23.723  0.00  0.00    +0.231 C 
ATOM     31  C   UNL     1      34.080  -7.594 -23.464  0.00  0.00    +0.231 C 
ENDBRANCH  20  23
ENDBRANCH  19  20
ENDBRANCH  18  19
ENDBRANCH  17  18
ENDBRANCH   2  17
TORSDOF 5
ENDMDL
MODEL 9
REMARK VINA RESULT:      -9.9      2.156      3.195
REMARK  Name = 115368
REMARK  5 active torsions:
REMARK  status: ('A' for Active; 'I' for Inactive)
REMARK    1  A    between atoms: N_2  and  C_17
REMARK    2  A    between atoms: C_17  and  C_18
REMARK    3  A    between atoms: C_18  and  C_19
REMARK    4  A    between atoms: C_19  and  C_20
REMARK    5  A    between atoms: C_20  and  N_23
REMARK                            x       y       z     vdW  Elec       q    Type
REMARK                         _______ _______ _______ _____ _____    ______ ____
ROOT
ATOM      1  S   UNL     1      33.799 -16.424 -25.626  0.00  0.00    +0.014 S 
ATOM      2  N   UNL     1      36.323 -20.323 -20.909  0.00  0.00    +0.389 N 
ATOM      3  N   UNL     1      35.359 -18.479 -22.869  0.00  0.00    -0.297 N 
ATOM      4  N   UNL     1      34.416 -17.807 -24.955  0.00  0.00    -0.194 NA
ATOM      5  C   UNL     1      36.772 -18.926 -20.906  0.00  0.00    -0.055 C 
ATOM      6  C   UNL     1      34.943 -20.411 -21.406  0.00  0.00    -0.055 C 
ATOM      7  C   UNL     1      36.706 -18.317 -22.310  0.00  0.00    +0.069 C 
ATOM      8  C   UNL     1      34.845 -19.853 -22.827  0.00  0.00    +0.069 C 
ATOM      9  C   UNL     1      34.802 -17.538 -23.705  0.00  0.00    +0.140 A 
ATOM     10  C   UNL     1      34.613 -16.191 -23.239  0.00  0.00    +0.040 A 
ATOM     11  C   UNL     1      34.035 -15.419 -24.250  0.00  0.00    +0.050 A 
ATOM     12  C   UNL     1      34.900 -15.573 -22.002  0.00  0.00    +0.003 C 
ATOM     13  C   UNL     1      33.736 -14.060 -24.074  0.00  0.00    +0.008 C 
ATOM     14  C   UNL     1      34.606 -14.220 -21.817  0.00  0.00    +0.000 C 
ATOM     15  C   UNL     1      34.031 -13.474 -22.841  0.00  0.00    +0.001 C 
ATOM     16  H   UNL     1      36.927 -20.859 -21.532  0.00  0.00    -0.080 HD
ENDROOT
BRANCH   2  17
ATOM     17  C   UNL     1      36.424 -20.899 -19.568  0.00  0.00    -0.077 C 
BRANCH  17  18
ATOM     18  C   UNL     1      35.584 -22.172 -19.472  0.00  0.00    -0.021 C 
BRANCH  18  19
ATOM     19  C   UNL     1      35.221 -22.486 -18.017  0.00  0.00    +0.020 C 
BRANCH  19  20
ATOM     20  C   UNL     1      36.375 -22.223 -17.055  0.00  0.00    +0.101 C 
BRANCH  20  23
ATOM     21  O   UNL     1      34.099 -23.200 -15.436  0.00  0.00    -0.274 OA
ATOM     22  O   UNL     1      38.692 -23.547 -15.839  0.00  0.00    -0.274 OA
ATOM     23  N   UNL     1      36.386 -23.150 -15.941  0.00  0.00    -0.230 N 
ATOM     24  C   UNL     1      35.689 -24.689 -14.352  0.00  0.00    +0.086 C 
ATOM     25  C   UNL     1      37.182 -24.409 -14.148  0.00  0.00    +0.086 C 
ATOM     26  C   UNL     1      34.853 -24.832 -13.086  0.00  0.00    +0.010 C 
ATOM     27  C   UNL     1      37.506 -23.501 -12.957  0.00  0.00    +0.010 C 
ATOM     28  C   UNL     1      35.212 -23.822 -12.005  0.00  0.00    +0.001 C 
ATOM     29  C   UNL     1      36.706 -23.852 -11.711  0.00  0.00    +0.001 C 
ATOM     30  C   UNL     1      35.250 -23.576 -15.279  0.00  0.00    +0.231 C 
ATOM     31  C   UNL     1      37.551 -23.681 -15.421  0.00  0.00    +0.231 C 
ENDBRANCH  20  23
ENDBRANCH  19  20
ENDBRANCH  18  19
ENDBRANCH  17  18
ENDBRANCH   2  17
TORSDOF 5
ENDMDL
