MODEL 1
REMARK VINA RESULT:     -11.6      0.000      0.000
REMARK  Name = 54713659
REMARK  4 active torsions:
REMARK  status: ('A' for Active; 'I' for Inactive)
REMARK    1  A    between atoms: C_14  and  O_30
REMARK    2  A    between atoms: C_15  and  C_19
REMARK    3  A    between atoms: N_18  and  C_21
REMARK    4  A    between atoms: C_21  and  C_24
REMARK                            x       y       z     vdW  Elec       q    Type
REMARK                         _______ _______ _______ _____ _____    ______ ____
ROOT
ATOM      1  O   UNL     1      38.682 -24.401 -13.824  0.00  0.00    -0.334 OA
ATOM      2  O   UNL     1      34.650 -25.024 -11.719  0.00  0.00    -0.268 OA
ATOM      3  O   UNL     1      31.268 -24.249 -15.487  0.00  0.00    -0.283 OA
ATOM      4  N   UNL     1      36.611 -24.814 -12.903  0.00  0.00    -0.251 N 
ATOM      5  N   UNL     1      35.254 -23.655 -15.017  0.00  0.00    -0.275 N 
ATOM      6  C   UNL     1      37.300 -24.603 -14.149  0.00  0.00    +0.215 C 
ATOM      7  C   UNL     1      37.562 -25.031 -11.841  0.00  0.00    +0.107 C 
ATOM      8  C   UNL     1      36.694 -23.413 -14.863  0.00  0.00    +0.147 C 
ATOM      9  C   UNL     1      38.775 -24.298 -12.388  0.00  0.00    +0.164 C 
ATOM     10  C   UNL     1      35.240 -24.767 -12.766  0.00  0.00    +0.268 C 
ATOM     11  C   UNL     1      34.514 -24.310 -14.014  0.00  0.00    +0.143 C 
ATOM     12  C   UNL     1      37.823 -26.518 -11.629  0.00  0.00    +0.024 C 
ATOM     13  C   UNL     1      34.584 -23.188 -16.138  0.00  0.00    +0.074 C 
ATOM     14  C   UNL     1      33.186 -24.533 -14.114  0.00  0.00    +0.191 C 
ATOM     15  C   UNL     1      33.274 -23.339 -16.365  0.00  0.00    +0.110 C 
ATOM     16  C   UNL     1      32.472 -24.057 -15.340  0.00  0.00    +0.236 C 
ENDROOT
BRANCH  15  19
ATOM     17  O   UNL     1      31.493 -22.700 -17.758  0.00  0.00    -0.270 OA
ATOM     18  N   UNL     1      33.678 -22.420 -18.518  0.00  0.00    -0.297 N 
ATOM     19  C   UNL     1      32.711 -22.793 -17.601  0.00  0.00    +0.251 C 
ATOM     20  H   UNL     1      34.625 -22.545 -18.276  0.00  0.00    +0.150 HD
BRANCH  18  21
ATOM     21  C   UNL     1      33.374 -21.857 -19.815  0.00  0.00    +0.119 C 
BRANCH  21  24
ATOM     22  F   UNL     1      32.985 -19.819 -21.738  0.00  0.00    -0.204 F 
ATOM     23  F   UNL     1      37.567 -18.634 -21.748  0.00  0.00    -0.204 F 
ATOM     24  C   UNL     1      34.491 -20.997 -20.331  0.00  0.00    +0.025 C 
ATOM     25  C   UNL     1      34.231 -20.009 -21.281  0.00  0.00    +0.140 C 
ATOM     26  C   UNL     1      35.791 -21.187 -19.860  0.00  0.00    +0.002 C 
ATOM     27  C   UNL     1      35.269 -19.210 -21.759  0.00  0.00    +0.059 C 
ATOM     28  C   UNL     1      36.829 -20.389 -20.340  0.00  0.00    +0.030 C 
ATOM     29  C   UNL     1      36.569 -19.400 -21.289  0.00  0.00    +0.142 C 
ENDBRANCH  21  24
ENDBRANCH  18  21
ENDBRANCH  15  19
BRANCH  14  30
ATOM     30  O   UNL     1      32.442 -25.186 -13.157  0.00  0.00    -0.502 OA
ATOM     31  H   UNL     1      31.545 -24.953 -13.021  0.00  0.00    +0.292 HD
ENDBRANCH  14  30
TORSDOF 4
ENDMDL
MODEL 2
REMARK VINA RESULT:     -11.1      2.786      4.927
REMARK  Name = 54713659
REMARK  4 active torsions:
REMARK  status: ('A' for Active; 'I' for Inactive)
REMARK    1  A    between atoms: C_14  and  O_30
REMARK    2  A    between atoms: C_15  and  C_19
REMARK    3  A    between atoms: N_18  and  C_21
REMARK    4  A    between atoms: C_21  and  C_24
REMARK                            x       y       z     vdW  Elec       q    Type
REMARK                         _______ _______ _______ _____ _____    ______ ____
ROOT
ATOM      1  O   UNL     1      31.270 -23.830 -15.121  0.00  0.00    -0.334 OA
ATOM      2  O   UNL     1      35.784 -24.341 -15.785  0.00  0.00    -0.268 OA
ATOM      3  O   UNL     1      36.731 -21.141 -19.671  0.00  0.00    -0.283 OA
ATOM      4  N   UNL     1      33.547 -23.911 -15.460  0.00  0.00    -0.251 N 
ATOM      5  N   UNL     1      33.396 -22.642 -17.913  0.00  0.00    -0.275 N 
ATOM      6  C   UNL     1      32.353 -23.183 -15.802  0.00  0.00    +0.215 C 
ATOM      7  C   UNL     1      33.282 -24.814 -14.367  0.00  0.00    +0.107 C 
ATOM      8  C   UNL     1      32.176 -23.187 -17.306  0.00  0.00    +0.147 C 
ATOM      9  C   UNL     1      31.790 -25.043 -14.541  0.00  0.00    +0.164 C 
ATOM     10  C   UNL     1      34.746 -23.777 -16.127  0.00  0.00    +0.268 C 
ATOM     11  C   UNL     1      34.665 -22.911 -17.366  0.00  0.00    +0.143 C 
ATOM     12  C   UNL     1      33.622 -24.171 -13.026  0.00  0.00    +0.024 C 
ATOM     13  C   UNL     1      33.320 -21.893 -19.079  0.00  0.00    +0.074 C 
ATOM     14  C   UNL     1      35.809 -22.441 -17.909  0.00  0.00    +0.191 C 
ATOM     15  C   UNL     1      34.371 -21.369 -19.721  0.00  0.00    +0.110 C 
ATOM     16  C   UNL     1      35.722 -21.606 -19.148  0.00  0.00    +0.236 C 
ENDROOT
BRANCH  15  19
ATOM     17  O   UNL     1      32.985 -20.362 -21.328  0.00  0.00    -0.270 OA
ATOM     18  N   UNL     1      35.297 -20.187 -21.563  0.00  0.00    -0.297 N 
ATOM     19  C   UNL     1      34.130 -20.596 -20.940  0.00  0.00    +0.251 C 
ATOM     20  H   UNL     1      36.157 -20.438 -21.153  0.00  0.00    +0.150 HD
BRANCH  18  21
ATOM     21  C   UNL     1      35.322 -19.413 -22.783  0.00  0.00    +0.119 C 
BRANCH  21  24
ATOM     22  F   UNL     1      34.888 -17.523 -24.844  0.00  0.00    -0.204 F 
ATOM     23  F   UNL     1      34.670 -13.908 -21.798  0.00  0.00    -0.204 F 
ATOM     24  C   UNL     1      35.148 -17.945 -22.522  0.00  0.00    +0.025 C 
ATOM     25  C   UNL     1      34.938 -17.066 -23.584  0.00  0.00    +0.140 C 
ATOM     26  C   UNL     1      35.197 -17.460 -21.214  0.00  0.00    +0.002 C 
ATOM     27  C   UNL     1      34.776 -15.703 -23.340  0.00  0.00    +0.059 C 
ATOM     28  C   UNL     1      35.036 -16.096 -20.971  0.00  0.00    +0.030 C 
ATOM     29  C   UNL     1      34.825 -15.217 -22.033  0.00  0.00    +0.142 C 
ENDBRANCH  21  24
ENDBRANCH  18  21
ENDBRANCH  15  19
BRANCH  14  30
ATOM     30  O   UNL     1      37.061 -22.673 -17.386  0.00  0.00    -0.502 OA
ATOM     31  H   UNL     1      37.804 -22.729 -17.954  0.00  0.00    +0.292 HD
ENDBRANCH  14  30
TORSDOF 4
ENDMDL
MODEL 3
REMARK VINA RESULT:     -11.0      6.046     11.700
REMARK  Name = 54713659
REMARK  4 active torsions:
REMARK  status: ('A' for Active; 'I' for Inactive)
REMARK    1  A    between atoms: C_14  and  O_30
REMARK    2  A    between atoms: C_15  and  C_19
REMARK    3  A    between atoms: N_18  and  C_21
REMARK    4  A    between atoms: C_21  and  C_24
REMARK                            x       y       z     vdW  Elec       q    Type
REMARK                         _______ _______ _______ _____ _____    ______ ____
ROOT
ATOM      1  O   UNL     1      33.380 -12.605 -24.020  0.00  0.00    -0.334 OA
ATOM      2  O   UNL     1      33.714 -16.167 -26.897  0.00  0.00    -0.268 OA
ATOM      3  O   UNL     1      34.896 -20.047 -23.770  0.00  0.00    -0.283 OA
ATOM      4  N   UNL     1      33.449 -14.483 -25.351  0.00  0.00    -0.251 N 
ATOM      5  N   UNL     1      34.713 -16.009 -23.420  0.00  0.00    -0.275 N 
ATOM      6  C   UNL     1      33.436 -14.037 -23.983  0.00  0.00    +0.215 C 
ATOM      7  C   UNL     1      33.118 -13.392 -26.233  0.00  0.00    +0.107 C 
ATOM      8  C   UNL     1      34.673 -14.549 -23.275  0.00  0.00    +0.147 C 
ATOM      9  C   UNL     1      33.557 -12.204 -25.394  0.00  0.00    +0.164 C 
ATOM     10  C   UNL     1      33.778 -15.766 -25.737  0.00  0.00    +0.268 C 
ATOM     11  C   UNL     1      34.286 -16.636 -24.606  0.00  0.00    +0.143 C 
ATOM     12  C   UNL     1      31.626 -13.369 -26.545  0.00  0.00    +0.024 C 
ATOM     13  C   UNL     1      35.230 -16.797 -22.401  0.00  0.00    +0.074 C 
ATOM     14  C   UNL     1      34.327 -17.974 -24.781  0.00  0.00    +0.191 C 
ATOM     15  C   UNL     1      35.328 -18.131 -22.441  0.00  0.00    +0.110 C 
ATOM     16  C   UNL     1      34.854 -18.825 -23.668  0.00  0.00    +0.236 C 
ENDROOT
BRANCH  15  19
ATOM     17  O   UNL     1      36.440 -18.202 -20.373  0.00  0.00    -0.270 OA
ATOM     18  N   UNL     1      35.736 -20.200 -21.345  0.00  0.00    -0.297 N 
ATOM     19  C   UNL     1      35.892 -18.825 -21.283  0.00  0.00    +0.251 C 
ATOM     20  H   UNL     1      35.278 -20.582 -22.129  0.00  0.00    +0.150 HD
BRANCH  18  21
ATOM     21  C   UNL     1      36.211 -21.104 -20.322  0.00  0.00    +0.119 C 
BRANCH  21  24
ATOM     22  F   UNL     1      36.633 -22.558 -17.932  0.00  0.00    -0.204 F 
ATOM     23  F   UNL     1      31.995 -23.143 -17.195  0.00  0.00    -0.204 F 
ATOM     24  C   UNL     1      35.088 -21.648 -19.488  0.00  0.00    +0.025 C 
ATOM     25  C   UNL     1      35.365 -22.358 -18.319  0.00  0.00    +0.140 C 
ATOM     26  C   UNL     1      33.765 -21.444 -19.882  0.00  0.00    +0.002 C 
ATOM     27  C   UNL     1      34.322 -22.862 -17.544  0.00  0.00    +0.059 C 
ATOM     28  C   UNL     1      32.721 -21.950 -19.108  0.00  0.00    +0.030 C 
ATOM     29  C   UNL     1      32.998 -22.658 -17.939  0.00  0.00    +0.142 C 
ENDBRANCH  21  24
ENDBRANCH  18  21
ENDBRANCH  15  19
BRANCH  14  30
ATOM     30  O   UNL     1      33.900 -18.614 -25.923  0.00  0.00    -0.502 OA
ATOM     31  H   UNL     1      34.146 -18.284 -26.765  0.00  0.00    +0.292 HD
ENDBRANCH  14  30
TORSDOF 4
ENDMDL
MODEL 4
REMARK VINA RESULT:     -10.6      2.602      3.793
REMARK  Name = 54713659
REMARK  4 active torsions:
REMARK  status: ('A' for Active; 'I' for Inactive)
REMARK    1  A    between atoms: C_14  and  O_30
REMARK    2  A    between atoms: C_15  and  C_19
REMARK    3  A    between atoms: N_18  and  C_21
REMARK    4  A    between atoms: C_21  and  C_24
REMARK                            x       y       z     vdW  Elec       q    Type
REMARK                         _______ _______ _______ _____ _____    ______ ____
ROOT
ATOM      1  O   UNL     1      38.330 -23.825 -14.346  0.00  0.00    -0.334 OA
ATOM      2  O   UNL     1      33.805 -23.799 -15.118  0.00  0.00    -0.268 OA
ATOM      3  O   UNL     1      33.485 -22.135 -19.952  0.00  0.00    -0.283 OA
ATOM      4  N   UNL     1      36.092 -23.893 -14.886  0.00  0.00    -0.251 N 
ATOM      5  N   UNL     1      36.422 -22.354 -17.161  0.00  0.00    -0.275 N 
ATOM      6  C   UNL     1      37.410 -23.735 -15.442  0.00  0.00    +0.215 C 
ATOM      7  C   UNL     1      36.181 -24.359 -13.524  0.00  0.00    +0.107 C 
ATOM      8  C   UNL     1      37.496 -22.405 -16.161  0.00  0.00    +0.147 C 
ATOM      9  C   UNL     1      37.553 -23.839 -13.132  0.00  0.00    +0.164 C 
ATOM     10  C   UNL     1      34.931 -23.591 -15.565  0.00  0.00    +0.268 C 
ATOM     11  C   UNL     1      35.159 -22.920 -16.903  0.00  0.00    +0.143 C 
ATOM     12  C   UNL     1      36.090 -25.880 -13.456  0.00  0.00    +0.024 C 
ATOM     13  C   UNL     1      36.621 -21.692 -18.364  0.00  0.00    +0.074 C 
ATOM     14  C   UNL     1      34.144 -22.876 -17.792  0.00  0.00    +0.191 C 
ATOM     15  C   UNL     1      35.703 -21.572 -19.331  0.00  0.00    +0.110 C 
ATOM     16  C   UNL     1      34.371 -22.189 -19.103  0.00  0.00    +0.236 C 
ENDROOT
BRANCH  15  19
ATOM     17  O   UNL     1      37.242 -20.621 -20.831  0.00  0.00    -0.270 OA
ATOM     18  N   UNL     1      34.964 -20.466 -21.301  0.00  0.00    -0.297 N 
ATOM     19  C   UNL     1      36.064 -20.846 -20.550  0.00  0.00    +0.251 C 
ATOM     20  H   UNL     1      34.068 -20.705 -20.969  0.00  0.00    +0.150 HD
BRANCH  18  21
ATOM     21  C   UNL     1      35.061 -19.736 -22.545  0.00  0.00    +0.119 C 
BRANCH  21  24
ATOM     22  F   UNL     1      35.024 -17.873 -24.673  0.00  0.00    -0.204 F 
ATOM     23  F   UNL     1      34.944 -14.166 -21.732  0.00  0.00    -0.204 F 
ATOM     24  C   UNL     1      35.030 -18.251 -22.330  0.00  0.00    +0.025 C 
ATOM     25  C   UNL     1      35.014 -17.386 -23.424  0.00  0.00    +0.140 C 
ATOM     26  C   UNL     1      35.017 -17.735 -21.033  0.00  0.00    +0.002 C 
ATOM     27  C   UNL     1      34.984 -16.007 -23.223  0.00  0.00    +0.059 C 
ATOM     28  C   UNL     1      34.989 -16.355 -20.832  0.00  0.00    +0.030 C 
ATOM     29  C   UNL     1      34.972 -15.491 -21.926  0.00  0.00    +0.142 C 
ENDBRANCH  21  24
ENDBRANCH  18  21
ENDBRANCH  15  19
BRANCH  14  30
ATOM     30  O   UNL     1      32.905 -23.435 -17.574  0.00  0.00    -0.502 OA
ATOM     31  H   UNL     1      32.711 -24.289 -17.907  0.00  0.00    +0.292 HD
ENDBRANCH  14  30
TORSDOF 4
ENDMDL
MODEL 5
REMARK VINA RESULT:     -10.2      3.886      8.316
REMARK  Name = 54713659
REMARK  4 active torsions:
REMARK  status: ('A' for Active; 'I' for Inactive)
REMARK    1  A    between atoms: C_14  and  O_30
REMARK    2  A    between atoms: C_15  and  C_19
REMARK    3  A    between atoms: N_18  and  C_21
REMARK    4  A    between atoms: C_21  and  C_24
REMARK                            x       y       z     vdW  Elec       q    Type
REMARK                         _______ _______ _______ _____ _____    ______ ____
ROOT
ATOM      1  O   UNL     1      38.027 -19.014 -21.049  0.00  0.00    -0.334 OA
ATOM      2  O   UNL     1      33.654 -19.996 -22.044  0.00  0.00    -0.268 OA
ATOM      3  O   UNL     1      32.155 -22.742 -17.989  0.00  0.00    -0.283 OA
ATOM      4  N   UNL     1      35.792 -19.459 -21.385  0.00  0.00    -0.251 N 
ATOM      5  N   UNL     1      35.708 -21.392 -19.408  0.00  0.00    -0.275 N 
ATOM      6  C   UNL     1      36.845 -19.508 -20.405  0.00  0.00    +0.215 C 
ATOM      7  C   UNL     1      36.213 -18.687 -22.528  0.00  0.00    +0.107 C 
ATOM      8  C   UNL     1      37.007 -20.931 -19.912  0.00  0.00    +0.147 C 
ATOM      9  C   UNL     1      37.720 -18.859 -22.450  0.00  0.00    +0.164 C 
ATOM     10  C   UNL     1      34.581 -20.102 -21.243  0.00  0.00    +0.268 C 
ATOM     11  C   UNL     1      34.506 -21.009 -20.033  0.00  0.00    +0.143 C 
ATOM     12  C   UNL     1      35.783 -17.230 -22.398  0.00  0.00    +0.024 C 
ATOM     13  C   UNL     1      35.648 -22.265 -18.331  0.00  0.00    +0.074 C 
ATOM     14  C   UNL     1      33.295 -21.429 -19.608  0.00  0.00    +0.191 C 
ATOM     15  C   UNL     1      34.519 -22.759 -17.808  0.00  0.00    +0.110 C 
ATOM     16  C   UNL     1      33.231 -22.346 -18.425  0.00  0.00    +0.236 C 
ENDROOT
BRANCH  15  19
ATOM     17  O   UNL     1      34.260 -24.843 -16.756  0.00  0.00    -0.270 OA
ATOM     18  N   UNL     1      35.135 -23.062 -15.533  0.00  0.00    -0.297 N 
ATOM     19  C   UNL     1      34.617 -23.668 -16.666  0.00  0.00    +0.251 C 
ATOM     20  H   UNL     1      35.385 -22.111 -15.586  0.00  0.00    +0.150 HD
BRANCH  18  21
ATOM     21  C   UNL     1      35.327 -23.751 -14.277  0.00  0.00    +0.119 C 
BRANCH  21  24
ATOM     22  F   UNL     1      36.074 -25.506 -12.188  0.00  0.00    -0.204 F 
ATOM     23  F   UNL     1      40.445 -26.070 -13.910  0.00  0.00    -0.204 F 
ATOM     24  C   UNL     1      36.691 -24.370 -14.178  0.00  0.00    +0.025 C 
ATOM     25  C   UNL     1      36.995 -25.227 -13.121  0.00  0.00    +0.140 C 
ATOM     26  C   UNL     1      37.657 -24.086 -15.145  0.00  0.00    +0.002 C 
ATOM     27  C   UNL     1      38.262 -25.802 -13.030  0.00  0.00    +0.059 C 
ATOM     28  C   UNL     1      38.924 -24.660 -15.053  0.00  0.00    +0.030 C 
ATOM     29  C   UNL     1      39.228 -25.518 -13.997  0.00  0.00    +0.142 C 
ENDBRANCH  21  24
ENDBRANCH  18  21
ENDBRANCH  15  19
BRANCH  14  30
ATOM     30  O   UNL     1      32.104 -21.058 -20.189  0.00  0.00    -0.502 OA
ATOM     31  H   UNL     1      32.099 -20.670 -21.041  0.00  0.00    +0.292 HD
ENDBRANCH  14  30
TORSDOF 4
ENDMDL
MODEL 6
REMARK VINA RESULT:     -10.1      9.611     13.880
REMARK  Name = 54713659
REMARK  4 active torsions:
REMARK  status: ('A' for Active; 'I' for Inactive)
REMARK    1  A    between atoms: C_14  and  O_30
REMARK    2  A    between atoms: C_15  and  C_19
REMARK    3  A    between atoms: N_18  and  C_21
REMARK    4  A    between atoms: C_21  and  C_24
REMARK                            x       y       z     vdW  Elec       q    Type
REMARK                         _______ _______ _______ _____ _____    ______ ____
ROOT
ATOM      1  O   UNL     1      31.123 -10.040 -20.346  0.00  0.00    -0.334 OA
ATOM      2  O   UNL     1      34.273  -8.634 -23.375  0.00  0.00    -0.268 OA
ATOM      3  O   UNL     1      34.568 -12.582 -26.625  0.00  0.00    -0.283 OA
ATOM      4  N   UNL     1      32.595  -9.388 -21.993  0.00  0.00    -0.251 N 
ATOM      5  N   UNL     1      32.876 -11.953 -22.991  0.00  0.00    -0.275 N 
ATOM      6  C   UNL     1      31.620 -10.388 -21.645  0.00  0.00    +0.215 C 
ATOM      7  C   UNL     1      32.514  -8.276 -21.078  0.00  0.00    +0.107 C 
ATOM      8  C   UNL     1      32.272 -11.754 -21.668  0.00  0.00    +0.147 C 
ATOM      9  C   UNL     1      31.937  -8.958 -19.850  0.00  0.00    +0.164 C 
ATOM     10  C   UNL     1      33.494  -9.520 -23.031  0.00  0.00    +0.268 C 
ATOM     11  C   UNL     1      33.481 -10.886 -23.683  0.00  0.00    +0.143 C 
ATOM     12  C   UNL     1      31.604  -7.180 -21.622  0.00  0.00    +0.024 C 
ATOM     13  C   UNL     1      32.909 -13.218 -23.560  0.00  0.00    +0.074 C 
ATOM     14  C   UNL     1      34.062 -11.036 -24.892  0.00  0.00    +0.191 C 
ATOM     15  C   UNL     1      33.451 -13.508 -24.749  0.00  0.00    +0.110 C 
ATOM     16  C   UNL     1      34.068 -12.396 -25.519  0.00  0.00    +0.236 C 
ENDROOT
BRANCH  15  19
ATOM     17  O   UNL     1      32.611 -15.240 -26.096  0.00  0.00    -0.270 OA
ATOM     18  N   UNL     1      34.317 -15.714 -24.579  0.00  0.00    -0.297 N 
ATOM     19  C   UNL     1      33.403 -14.893 -25.219  0.00  0.00    +0.251 C 
ATOM     20  H   UNL     1      34.899 -15.318 -23.891  0.00  0.00    +0.150 HD
BRANCH  18  21
ATOM     21  C   UNL     1      34.460 -17.124 -24.867  0.00  0.00    +0.119 C 
BRANCH  21  24
ATOM     22  F   UNL     1      34.396 -19.950 -24.763  0.00  0.00    -0.204 F 
ATOM     23  F   UNL     1      36.004 -20.055 -20.314  0.00  0.00    -0.204 F 
ATOM     24  C   UNL     1      34.872 -17.906 -23.654  0.00  0.00    +0.025 C 
ATOM     25  C   UNL     1      34.815 -19.300 -23.668  0.00  0.00    +0.140 C 
ATOM     26  C   UNL     1      35.311 -17.238 -22.510  0.00  0.00    +0.002 C 
ATOM     27  C   UNL     1      35.198 -20.026 -22.541  0.00  0.00    +0.059 C 
ATOM     28  C   UNL     1      35.692 -17.964 -21.382  0.00  0.00    +0.030 C 
ATOM     29  C   UNL     1      35.637 -19.358 -21.397  0.00  0.00    +0.142 C 
ENDBRANCH  21  24
ENDBRANCH  18  21
ENDBRANCH  15  19
BRANCH  14  30
ATOM     30  O   UNL     1      34.646 -10.009 -25.598  0.00  0.00    -0.502 OA
ATOM     31  H   UNL     1      35.071  -9.309 -25.143  0.00  0.00    +0.292 HD
ENDBRANCH  14  30
TORSDOF 4
ENDMDL
MODEL 7
REMARK VINA RESULT:     -10.0      2.859      4.471
REMARK  Name = 54713659
REMARK  4 active torsions:
REMARK  status: ('A' for Active; 'I' for Inactive)
REMARK    1  A    between atoms: C_14  and  O_30
REMARK    2  A    between atoms: C_15  and  C_19
REMARK    3  A    between atoms: N_18  and  C_21
REMARK    4  A    between atoms: C_21  and  C_24
REMARK                            x       y       z     vdW  Elec       q    Type
REMARK                         _______ _______ _______ _____ _____    ______ ____
ROOT
ATOM      1  O   UNL     1      38.209 -23.868 -14.469  0.00  0.00    -0.334 OA
ATOM      2  O   UNL     1      33.887 -23.938 -16.017  0.00  0.00    -0.268 OA
ATOM      3  O   UNL     1      34.242 -21.465 -20.489  0.00  0.00    -0.283 OA
ATOM      4  N   UNL     1      36.104 -23.954 -15.401  0.00  0.00    -0.251 N 
ATOM      5  N   UNL     1      36.683 -22.023 -17.296  0.00  0.00    -0.275 N 
ATOM      6  C   UNL     1      37.479 -23.633 -15.681  0.00  0.00    +0.215 C 
ATOM      7  C   UNL     1      36.002 -24.648 -14.142  0.00  0.00    +0.107 C 
ATOM      8  C   UNL     1      37.576 -22.195 -16.144  0.00  0.00    +0.147 C 
ATOM      9  C   UNL     1      37.244 -24.136 -13.431  0.00  0.00    +0.164 C 
ATOM     10  C   UNL     1      35.051 -23.597 -16.217  0.00  0.00    +0.268 C 
ATOM     11  C   UNL     1      35.444 -22.689 -17.364  0.00  0.00    +0.143 C 
ATOM     12  C   UNL     1      36.025 -26.160 -14.342  0.00  0.00    +0.024 C 
ATOM     13  C   UNL     1      37.024 -21.150 -18.319  0.00  0.00    +0.074 C 
ATOM     14  C   UNL     1      34.590 -22.541 -18.399  0.00  0.00    +0.191 C 
ATOM     15  C   UNL     1      36.273 -20.907 -19.401  0.00  0.00    +0.110 C 
ATOM     16  C   UNL     1      34.975 -21.622 -19.517  0.00  0.00    +0.236 C 
ENDROOT
BRANCH  15  19
ATOM     17  O   UNL     1      37.896 -20.085 -20.887  0.00  0.00    -0.270 OA
ATOM     18  N   UNL     1      35.861 -18.963 -20.702  0.00  0.00    -0.297 N 
ATOM     19  C   UNL     1      36.772 -19.961 -20.399  0.00  0.00    +0.251 C 
ATOM     20  H   UNL     1      34.990 -18.971 -20.243  0.00  0.00    +0.150 HD
BRANCH  18  21
ATOM     21  C   UNL     1      36.120 -17.909 -21.657  0.00  0.00    +0.119 C 
BRANCH  21  24
ATOM     22  F   UNL     1      35.359 -15.730 -23.294  0.00  0.00    -0.204 F 
ATOM     23  F   UNL     1      33.080 -18.528 -26.356  0.00  0.00    -0.204 F 
ATOM     24  C   UNL     1      35.310 -18.073 -22.910  0.00  0.00    +0.025 C 
ATOM     25  C   UNL     1      34.967 -16.956 -23.672  0.00  0.00    +0.140 C 
ATOM     26  C   UNL     1      34.898 -19.344 -23.312  0.00  0.00    +0.002 C 
ATOM     27  C   UNL     1      34.215 -17.109 -24.836  0.00  0.00    +0.059 C 
ATOM     28  C   UNL     1      34.145 -19.497 -24.475  0.00  0.00    +0.030 C 
ATOM     29  C   UNL     1      33.803 -18.380 -25.238  0.00  0.00    +0.142 C 
ENDBRANCH  21  24
ENDBRANCH  18  21
ENDBRANCH  15  19
BRANCH  14  30
ATOM     30  O   UNL     1      33.382 -23.192 -18.499  0.00  0.00    -0.502 OA
ATOM     31  H   UNL     1      32.692 -22.824 -19.015  0.00  0.00    +0.292 HD
ENDBRANCH  14  30
TORSDOF 4
ENDMDL
MODEL 8
REMARK VINA RESULT:      -9.5     12.697     17.375
REMARK  Name = 54713659
REMARK  4 active torsions:
REMARK  status: ('A' for Active; 'I' for Inactive)
REMARK    1  A    between atoms: C_14  and  O_30
REMARK    2  A    between atoms: C_15  and  C_19
REMARK    3  A    between atoms: N_18  and  C_21
REMARK    4  A    between atoms: C_21  and  C_24
REMARK                            x       y       z     vdW  Elec       q    Type
REMARK                         _______ _______ _______ _____ _____    ______ ____
ROOT
ATOM      1  O   UNL     1      30.365  -3.432 -23.160  0.00  0.00    -0.334 OA
ATOM      2  O   UNL     1      34.211  -5.231 -24.903  0.00  0.00    -0.268 OA
ATOM      3  O   UNL     1      33.889 -10.155 -23.528  0.00  0.00    -0.283 OA
ATOM      4  N   UNL     1      32.197  -4.466 -24.097  0.00  0.00    -0.251 N 
ATOM      5  N   UNL     1      31.899  -6.752 -22.567  0.00  0.00    -0.275 N 
ATOM      6  C   UNL     1      30.940  -4.714 -23.442  0.00  0.00    +0.215 C 
ATOM      7  C   UNL     1      32.290  -3.080 -24.483  0.00  0.00    +0.107 C 
ATOM      8  C   UNL     1      31.178  -5.530 -22.189  0.00  0.00    +0.147 C 
ATOM      9  C   UNL     1      31.362  -2.437 -23.467  0.00  0.00    +0.164 C 
ATOM     10  C   UNL     1      33.172  -5.424 -24.276  0.00  0.00    +0.268 C 
ATOM     11  C   UNL     1      32.879  -6.736 -23.578  0.00  0.00    +0.143 C 
ATOM     12  C   UNL     1      31.819  -2.874 -25.918  0.00  0.00    +0.024 C 
ATOM     13  C   UNL     1      31.664  -7.939 -21.888  0.00  0.00    +0.074 C 
ATOM     14  C   UNL     1      33.574  -7.835 -23.939  0.00  0.00    +0.191 C 
ATOM     15  C   UNL     1      32.281  -9.100 -22.141  0.00  0.00    +0.110 C 
ATOM     16  C   UNL     1      33.296  -9.123 -23.227  0.00  0.00    +0.236 C 
ENDROOT
BRANCH  15  19
ATOM     17  O   UNL     1      31.437 -10.147 -20.215  0.00  0.00    -0.270 OA
ATOM     18  N   UNL     1      32.184 -11.469 -21.984  0.00  0.00    -0.297 N 
ATOM     19  C   UNL     1      31.921 -10.271 -21.341  0.00  0.00    +0.251 C 
ATOM     20  H   UNL     1      32.574 -11.437 -22.888  0.00  0.00    +0.150 HD
BRANCH  18  21
ATOM     21  C   UNL     1      31.918 -12.763 -21.399  0.00  0.00    +0.119 C 
BRANCH  21  24
ATOM     22  F   UNL     1      32.650 -13.361 -24.065  0.00  0.00    -0.204 F 
ATOM     23  F   UNL     1      35.892 -16.531 -22.710  0.00  0.00    -0.204 F 
ATOM     24  C   UNL     1      32.977 -13.768 -21.750  0.00  0.00    +0.025 C 
ATOM     25  C   UNL     1      33.290 -14.016 -23.086  0.00  0.00    +0.140 C 
ATOM     26  C   UNL     1      33.650 -14.454 -20.737  0.00  0.00    +0.002 C 
ATOM     27  C   UNL     1      34.274 -14.949 -23.411  0.00  0.00    +0.059 C 
ATOM     28  C   UNL     1      34.633 -15.387 -21.063  0.00  0.00    +0.030 C 
ATOM     29  C   UNL     1      34.947 -15.635 -22.399  0.00  0.00    +0.142 C 
ENDBRANCH  21  24
ENDBRANCH  18  21
ENDBRANCH  15  19
BRANCH  14  30
ATOM     30  O   UNL     1      34.524  -7.853 -24.935  0.00  0.00    -0.502 OA
ATOM     31  H   UNL     1      34.291  -7.613 -25.810  0.00  0.00    +0.292 HD
ENDBRANCH  14  30
TORSDOF 4
ENDMDL
MODEL 9
REMARK VINA RESULT:      -9.5      7.107     11.984
REMARK  Name = 54713659
REMARK  4 active torsions:
REMARK  status: ('A' for Active; 'I' for Inactive)
REMARK    1  A    between atoms: C_14  and  O_30
REMARK    2  A    between atoms: C_15  and  C_19
REMARK    3  A    between atoms: N_18  and  C_21
REMARK    4  A    between atoms: C_21  and  C_24
REMARK                            x       y       z     vdW  Elec       q    Type
REMARK                         _______ _______ _______ _____ _____    ______ ____
ROOT
ATOM      1  O   UNL     1      32.151 -12.264 -19.926  0.00  0.00    -0.334 OA
ATOM      2  O   UNL     1      32.950 -11.770 -24.419  0.00  0.00    -0.268 OA
ATOM      3  O   UNL     1      34.427 -16.466 -25.834  0.00  0.00    -0.283 OA
ATOM      4  N   UNL     1      32.461 -12.163 -22.206  0.00  0.00    -0.251 N 
ATOM      5  N   UNL     1      33.812 -14.575 -22.297  0.00  0.00    -0.275 N 
ATOM      6  C   UNL     1      32.356 -13.070 -21.093  0.00  0.00    +0.215 C 
ATOM      7  C   UNL     1      32.047 -10.840 -21.809  0.00  0.00    +0.107 C 
ATOM      8  C   UNL     1      33.615 -13.906 -21.006  0.00  0.00    +0.147 C 
ATOM      9  C   UNL     1      32.330 -10.887 -20.317  0.00  0.00    +0.164 C 
ATOM     10  C   UNL     1      32.933 -12.525 -23.449  0.00  0.00    +0.268 C 
ATOM     11  C   UNL     1      33.493 -13.931 -23.508  0.00  0.00    +0.143 C 
ATOM     12  C   UNL     1      30.571 -10.609 -22.117  0.00  0.00    +0.024 C 
ATOM     13  C   UNL     1      34.374 -15.843 -22.347  0.00  0.00    +0.074 C 
ATOM     14  C   UNL     1      33.678 -14.509 -24.714  0.00  0.00    +0.191 C 
ATOM     15  C   UNL     1      34.613 -16.530 -23.471  0.00  0.00    +0.110 C 
ATOM     16  C   UNL     1      34.254 -15.890 -24.764  0.00  0.00    +0.236 C 
ENDROOT
BRANCH  15  19
ATOM     17  O   UNL     1      35.286 -18.606 -24.341  0.00  0.00    -0.270 OA
ATOM     18  N   UNL     1      35.644 -18.159 -22.081  0.00  0.00    -0.297 N 
ATOM     19  C   UNL     1      35.208 -17.863 -23.362  0.00  0.00    +0.251 C 
ATOM     20  H   UNL     1      35.525 -17.478 -21.379  0.00  0.00    +0.150 HD
BRANCH  18  21
ATOM     21  C   UNL     1      36.264 -19.414 -21.720  0.00  0.00    +0.119 C 
BRANCH  21  24
ATOM     22  F   UNL     1      37.212 -21.390 -19.931  0.00  0.00    -0.204 F 
ATOM     23  F   UNL     1      32.837 -22.642 -18.630  0.00  0.00    -0.204 F 
ATOM     24  C   UNL     1      35.351 -20.275 -20.895  0.00  0.00    +0.025 C 
ATOM     25  C   UNL     1      35.884 -21.232 -20.032  0.00  0.00    +0.140 C 
ATOM     26  C   UNL     1      33.968 -20.117 -20.993  0.00  0.00    +0.002 C 
ATOM     27  C   UNL     1      35.036 -22.031 -19.267  0.00  0.00    +0.059 C 
ATOM     28  C   UNL     1      33.120 -20.917 -20.229  0.00  0.00    +0.030 C 
ATOM     29  C   UNL     1      33.653 -21.874 -19.365  0.00  0.00    +0.142 C 
ENDBRANCH  21  24
ENDBRANCH  18  21
ENDBRANCH  15  19
BRANCH  14  30
ATOM     30  O   UNL     1      33.359 -13.910 -25.911  0.00  0.00    -0.502 OA
ATOM     31  H   UNL     1      33.462 -14.382 -26.714  0.00  0.00    +0.292 HD
ENDBRANCH  14  30
TORSDOF 4
ENDMDL
