MODEL 1
REMARK VINA RESULT:     -12.1      0.000      0.000
REMARK  Name = 49866474
REMARK  7 active torsions:
REMARK  status: ('A' for Active; 'I' for Inactive)
REMARK    1  A    between atoms: O_1  and  C_3
REMARK    2  A    between atoms: O_1  and  C_18
REMARK    3  A    between atoms: C_4  and  C_10
REMARK    4  A    between atoms: C_18  and  C_19
REMARK    5  A    between atoms: C_19  and  N_20
REMARK    6  A    between atoms: C_19  and  C_24
REMARK    7  A    between atoms: C_24  and  C_26
REMARK                            x       y       z     vdW  Elec       q    Type
REMARK                         _______ _______ _______ _____ _____    ______ ____
ROOT
ATOM      1  O   UNL     1      35.228 -15.412 -23.407  0.00  0.00    -0.476 OA
ENDROOT
BRANCH   1   3
ATOM      2  N   UNL     1      34.334 -18.642 -24.875  0.00  0.00    -0.239 NA
ATOM      3  C   UNL     1      35.002 -16.759 -23.512  0.00  0.00    +0.158 C 
ATOM      4  C   UNL     1      34.962 -18.970 -22.563  0.00  0.00    +0.022 C 
ATOM      5  C   UNL     1      35.197 -17.606 -22.426  0.00  0.00    +0.040 C 
ATOM      6  C   UNL     1      34.573 -17.323 -24.703  0.00  0.00    +0.136 C 
ATOM      7  C   UNL     1      34.535 -19.433 -23.796  0.00  0.00    +0.099 C 
BRANCH   4  10
ATOM      8  N   UNL     1      35.421 -22.482 -18.305  0.00  0.00    -0.236 N 
ATOM      9  N   UNL     1      34.159 -22.888 -18.081  0.00  0.00    -0.180 NA
ATOM     10  C   UNL     1      35.156 -19.873 -21.453  0.00  0.00    +0.002 C 
ATOM     11  C   UNL     1      34.259 -21.404 -19.820  0.00  0.00    +0.035 C 
ATOM     12  C   UNL     1      34.049 -20.531 -20.900  0.00  0.00    +0.003 C 
ATOM     13  C   UNL     1      35.549 -21.591 -19.335  0.00  0.00    +0.067 C 
ATOM     14  C   UNL     1      36.439 -20.079 -20.947  0.00  0.00    +0.001 C 
ATOM     15  C   UNL     1      36.665 -20.946 -19.873  0.00  0.00    +0.016 C 
ATOM     16  C   UNL     1      33.456 -22.230 -19.005  0.00  0.00    +0.119 C 
ATOM     17  H   UNL     1      36.187 -22.799 -17.774  0.00  0.00    +0.174 HD
ENDBRANCH   4  10
ENDBRANCH   1   3
BRANCH   1  18
ATOM     18  C   UNL     1      34.405 -14.692 -22.499  0.00  0.00    +0.184 C 
BRANCH  18  19
ATOM     19  C   UNL     1      33.592 -13.626 -23.242  0.00  0.00    -0.017 C 
BRANCH  19  20
ATOM     20  N   UNL     1      32.992 -14.248 -24.426  0.00  0.00    +0.384 N 
ATOM     21  H   UNL     1      32.843 -13.540 -25.145  0.00  0.00    -0.089 HD
ATOM     22  H   UNL     1      32.098 -14.669 -24.173  0.00  0.00    -0.089 HD
ATOM     23  H   UNL     1      33.618 -14.970 -24.785  0.00  0.00    -0.089 HD
ENDBRANCH  19  20
BRANCH  19  24
ATOM     24  C   UNL     1      32.470 -13.003 -22.376  0.00  0.00    +0.006 C 
BRANCH  24  26
ATOM     25  N   UNL     1      32.954  -9.432 -23.440  0.00  0.00    -0.234 NA
ATOM     26  C   UNL     1      32.336 -11.539 -22.503  0.00  0.00    -0.024 C 
ATOM     27  C   UNL     1      31.858 -10.585 -21.705  0.00  0.00    +0.065 C 
ATOM     28  C   UNL     1      32.035  -9.218 -22.303  0.00  0.00    +0.122 C 
ATOM     29  C   UNL     1      33.004 -10.730 -23.531  0.00  0.00    +0.072 C 
ATOM     30  C   UNL     1      31.373 -10.675 -20.351  0.00  0.00    -0.020 C 
ATOM     31  C   UNL     1      32.521  -8.224 -21.285  0.00  0.00    -0.004 C 
ATOM     32  C   UNL     1      31.556  -9.622 -19.533  0.00  0.00    -0.004 C 
ATOM     33  C   UNL     1      32.262  -8.428 -19.980  0.00  0.00    -0.003 C 
ENDBRANCH  24  26
ENDBRANCH  19  24
ENDBRANCH  18  19
ENDBRANCH   1  18
TORSDOF 7
ENDMDL
MODEL 2
REMARK VINA RESULT:     -12.0      5.346     11.892
REMARK  Name = 49866474
REMARK  7 active torsions:
REMARK  status: ('A' for Active; 'I' for Inactive)
REMARK    1  A    between atoms: O_1  and  C_3
REMARK    2  A    between atoms: O_1  and  C_18
REMARK    3  A    between atoms: C_4  and  C_10
REMARK    4  A    between atoms: C_18  and  C_19
REMARK    5  A    between atoms: C_19  and  N_20
REMARK    6  A    between atoms: C_19  and  C_24
REMARK    7  A    between atoms: C_24  and  C_26
REMARK                            x       y       z     vdW  Elec       q    Type
REMARK                         _______ _______ _______ _____ _____    ______ ____
ROOT
ATOM      1  O   UNL     1      36.021 -22.708 -18.301  0.00  0.00    -0.476 OA
ENDROOT
BRANCH   1   3
ATOM      2  N   UNL     1      32.672 -21.813 -19.474  0.00  0.00    -0.239 NA
ATOM      3  C   UNL     1      35.031 -22.086 -19.017  0.00  0.00    +0.158 C 
ATOM      4  C   UNL     1      34.310 -20.515 -20.690  0.00  0.00    +0.022 C 
ATOM      5  C   UNL     1      35.336 -21.130 -19.980  0.00  0.00    +0.040 C 
ATOM      6  C   UNL     1      33.696 -22.389 -18.804  0.00  0.00    +0.136 C 
ATOM      7  C   UNL     1      33.008 -20.888 -20.402  0.00  0.00    +0.099 C 
BRANCH   4  10
ATOM      8  N   UNL     1      35.244 -16.846 -24.733  0.00  0.00    -0.236 N 
ATOM      9  N   UNL     1      34.563 -17.339 -25.782  0.00  0.00    -0.180 NA
ATOM     10  C   UNL     1      34.595 -19.518 -21.695  0.00  0.00    +0.002 C 
ATOM     11  C   UNL     1      34.345 -18.683 -23.944  0.00  0.00    +0.035 C 
ATOM     12  C   UNL     1      34.054 -19.663 -22.980  0.00  0.00    +0.003 C 
ATOM     13  C   UNL     1      35.154 -17.607 -23.599  0.00  0.00    +0.067 C 
ATOM     14  C   UNL     1      35.404 -18.427 -21.376  0.00  0.00    +0.001 C 
ATOM     15  C   UNL     1      35.703 -17.444 -22.325  0.00  0.00    +0.016 C 
ATOM     16  C   UNL     1      34.017 -18.456 -25.298  0.00  0.00    +0.119 C 
ATOM     17  H   UNL     1      35.763 -16.011 -24.777  0.00  0.00    +0.174 HD
ENDBRANCH   4  10
ENDBRANCH   1   3
BRANCH   1  18
ATOM     18  C   UNL     1      36.786 -21.893 -17.423  0.00  0.00    +0.184 C 
BRANCH  18  19
ATOM     19  C   UNL     1      36.815 -22.500 -16.016  0.00  0.00    -0.017 C 
BRANCH  19  20
ATOM     20  N   UNL     1      35.572 -23.251 -15.814  0.00  0.00    +0.384 N 
ATOM     21  H   UNL     1      35.049 -22.842 -15.040  0.00  0.00    -0.089 HD
ATOM     22  H   UNL     1      35.793 -24.223 -15.600  0.00  0.00    -0.089 HD
ATOM     23  H   UNL     1      35.009 -23.210 -16.664  0.00  0.00    -0.089 HD
ENDBRANCH  19  20
BRANCH  19  24
ATOM     24  C   UNL     1      38.019 -23.446 -15.786  0.00  0.00    +0.006 C 
BRANCH  24  26
ATOM     25  N   UNL     1      37.146 -26.523 -13.816  0.00  0.00    -0.234 NA
ATOM     26  C   UNL     1      37.842 -24.412 -14.686  0.00  0.00    -0.024 C 
ATOM     27  C   UNL     1      37.744 -24.292 -13.362  0.00  0.00    +0.065 C 
ATOM     28  C   UNL     1      37.488 -25.618 -12.700  0.00  0.00    +0.122 C 
ATOM     29  C   UNL     1      37.441 -25.814 -14.866  0.00  0.00    +0.072 C 
ATOM     30  C   UNL     1      37.688 -23.106 -12.547  0.00  0.00    -0.020 C 
ATOM     31  C   UNL     1      36.434 -25.512 -11.634  0.00  0.00    -0.004 C 
ATOM     32  C   UNL     1      36.966 -23.141 -11.411  0.00  0.00    -0.004 C 
ATOM     33  C   UNL     1      36.221 -24.332 -11.023  0.00  0.00    -0.003 C 
ENDBRANCH  24  26
ENDBRANCH  19  24
ENDBRANCH  18  19
ENDBRANCH   1  18
TORSDOF 7
ENDMDL
MODEL 3
REMARK VINA RESULT:     -12.0      5.318     10.962
REMARK  Name = 49866474
REMARK  7 active torsions:
REMARK  status: ('A' for Active; 'I' for Inactive)
REMARK    1  A    between atoms: O_1  and  C_3
REMARK    2  A    between atoms: O_1  and  C_18
REMARK    3  A    between atoms: C_4  and  C_10
REMARK    4  A    between atoms: C_18  and  C_19
REMARK    5  A    between atoms: C_19  and  N_20
REMARK    6  A    between atoms: C_19  and  C_24
REMARK    7  A    between atoms: C_24  and  C_26
REMARK                            x       y       z     vdW  Elec       q    Type
REMARK                         _______ _______ _______ _____ _____    ______ ____
ROOT
ATOM      1  O   UNL     1      36.063 -22.657 -18.347  0.00  0.00    -0.476 OA
ENDROOT
BRANCH   1   3
ATOM      2  N   UNL     1      32.708 -21.798 -19.529  0.00  0.00    -0.239 NA
ATOM      3  C   UNL     1      35.068 -22.045 -19.064  0.00  0.00    +0.158 C 
ATOM      4  C   UNL     1      34.334 -20.476 -20.734  0.00  0.00    +0.022 C 
ATOM      5  C   UNL     1      35.365 -21.082 -20.023  0.00  0.00    +0.040 C 
ATOM      6  C   UNL     1      33.736 -22.365 -18.857  0.00  0.00    +0.136 C 
ATOM      7  C   UNL     1      33.035 -20.866 -20.452  0.00  0.00    +0.099 C 
BRANCH   4  10
ATOM      8  N   UNL     1      35.238 -16.783 -24.762  0.00  0.00    -0.236 N 
ATOM      9  N   UNL     1      34.569 -17.281 -25.816  0.00  0.00    -0.180 NA
ATOM     10  C   UNL     1      34.610 -19.473 -21.735  0.00  0.00    +0.002 C 
ATOM     11  C   UNL     1      34.359 -18.634 -23.982  0.00  0.00    +0.035 C 
ATOM     12  C   UNL     1      34.078 -19.621 -23.023  0.00  0.00    +0.003 C 
ATOM     13  C   UNL     1      35.153 -17.548 -23.630  0.00  0.00    +0.067 C 
ATOM     14  C   UNL     1      35.403 -18.372 -21.409  0.00  0.00    +0.001 C 
ATOM     15  C   UNL     1      35.693 -17.382 -22.354  0.00  0.00    +0.016 C 
ATOM     16  C   UNL     1      34.036 -18.407 -25.337  0.00  0.00    +0.119 C 
ATOM     17  H   UNL     1      35.745 -15.941 -24.800  0.00  0.00    +0.174 HD
ENDBRANCH   4  10
ENDBRANCH   1   3
BRANCH   1  18
ATOM     18  C   UNL     1      36.389 -22.086 -17.087  0.00  0.00    +0.184 C 
BRANCH  18  19
ATOM     19  C   UNL     1      36.140 -23.096 -15.960  0.00  0.00    -0.017 C 
BRANCH  19  20
ATOM     20  N   UNL     1      35.994 -22.354 -14.704  0.00  0.00    +0.384 N 
ATOM     21  H   UNL     1      35.173 -21.752 -14.757  0.00  0.00    -0.089 HD
ATOM     22  H   UNL     1      36.825 -21.784 -14.547  0.00  0.00    -0.089 HD
ATOM     23  H   UNL     1      35.883 -23.013 -13.932  0.00  0.00    -0.089 HD
ENDBRANCH  19  20
BRANCH  19  24
ATOM     24  C   UNL     1      34.875 -23.960 -16.186  0.00  0.00    +0.006 C 
BRANCH  24  26
ATOM     25  N   UNL     1      33.093 -24.511 -12.925  0.00  0.00    -0.234 NA
ATOM     26  C   UNL     1      33.887 -23.902 -15.092  0.00  0.00    -0.024 C 
ATOM     27  C   UNL     1      32.590 -23.601 -15.037  0.00  0.00    +0.065 C 
ATOM     28  C   UNL     1      32.036 -23.778 -13.651  0.00  0.00    +0.122 C 
ATOM     29  C   UNL     1      34.097 -24.466 -13.752  0.00  0.00    +0.072 C 
ATOM     30  C   UNL     1      31.667 -23.309 -16.104  0.00  0.00    -0.020 C 
ATOM     31  C   UNL     1      30.699 -24.464 -13.671  0.00  0.00    -0.004 C 
ATOM     32  C   UNL     1      30.379 -23.672 -15.956  0.00  0.00    -0.004 C 
ATOM     33  C   UNL     1      29.924 -24.381 -14.768  0.00  0.00    -0.003 C 
ENDBRANCH  24  26
ENDBRANCH  19  24
ENDBRANCH  18  19
ENDBRANCH   1  18
TORSDOF 7
ENDMDL
MODEL 4
REMARK VINA RESULT:     -11.9      1.708      9.799
REMARK  Name = 49866474
REMARK  7 active torsions:
REMARK  status: ('A' for Active; 'I' for Inactive)
REMARK    1  A    between atoms: O_1  and  C_3
REMARK    2  A    between atoms: O_1  and  C_18
REMARK    3  A    between atoms: C_4  and  C_10
REMARK    4  A    between atoms: C_18  and  C_19
REMARK    5  A    between atoms: C_19  and  N_20
REMARK    6  A    between atoms: C_19  and  C_24
REMARK    7  A    between atoms: C_24  and  C_26
REMARK                            x       y       z     vdW  Elec       q    Type
REMARK                         _______ _______ _______ _____ _____    ______ ____
ROOT
ATOM      1  O   UNL     1      35.528 -17.786 -23.574  0.00  0.00    -0.476 OA
ENDROOT
BRANCH   1   3
ATOM      2  N   UNL     1      33.462 -16.349 -26.229  0.00  0.00    -0.239 NA
ATOM      3  C   UNL     1      34.754 -16.885 -24.257  0.00  0.00    +0.158 C 
ATOM      4  C   UNL     1      33.676 -14.742 -24.435  0.00  0.00    +0.022 C 
ATOM      5  C   UNL     1      34.466 -15.635 -23.720  0.00  0.00    +0.040 C 
ATOM      6  C   UNL     1      34.233 -17.190 -25.504  0.00  0.00    +0.136 C 
ATOM      7  C   UNL     1      33.203 -15.143 -25.674  0.00  0.00    +0.099 C 
BRANCH   4  10
ATOM      8  N   UNL     1      32.312  -9.868 -22.185  0.00  0.00    -0.236 N 
ATOM      9  N   UNL     1      31.586 -10.200 -21.105  0.00  0.00    -0.180 NA
ATOM     10  C   UNL     1      33.359 -13.437 -23.904  0.00  0.00    +0.002 C 
ATOM     11  C   UNL     1      32.290 -12.059 -22.239  0.00  0.00    +0.035 C 
ATOM     12  C   UNL     1      32.588 -13.338 -22.738  0.00  0.00    +0.003 C 
ATOM     13  C   UNL     1      32.764 -10.937 -22.909  0.00  0.00    +0.067 C 
ATOM     14  C   UNL     1      33.823 -12.294 -24.557  0.00  0.00    +0.001 C 
ATOM     15  C   UNL     1      33.534 -11.015 -24.072  0.00  0.00    +0.016 C 
ATOM     16  C   UNL     1      31.575 -11.534 -21.141  0.00  0.00    +0.119 C 
ATOM     17  H   UNL     1      32.503  -8.935 -22.435  0.00  0.00    +0.174 HD
ENDBRANCH   4  10
ENDBRANCH   1   3
BRANCH   1  18
ATOM     18  C   UNL     1      35.009 -19.102 -23.434  0.00  0.00    +0.184 C 
BRANCH  18  19
ATOM     19  C   UNL     1      35.452 -19.713 -22.100  0.00  0.00    -0.017 C 
BRANCH  19  20
ATOM     20  N   UNL     1      36.657 -19.010 -21.650  0.00  0.00    +0.384 N 
ATOM     21  H   UNL     1      37.286 -19.671 -21.194  0.00  0.00    -0.089 HD
ATOM     22  H   UNL     1      36.397 -18.277 -20.991  0.00  0.00    -0.089 HD
ATOM     23  H   UNL     1      37.127 -18.593 -22.454  0.00  0.00    -0.089 HD
ENDBRANCH  19  20
BRANCH  19  24
ATOM     24  C   UNL     1      34.369 -19.616 -20.997  0.00  0.00    +0.006 C 
BRANCH  24  26
ATOM     25  N   UNL     1      32.758 -22.403 -19.060  0.00  0.00    -0.234 NA
ATOM     26  C   UNL     1      34.149 -20.862 -20.240  0.00  0.00    -0.024 C 
ATOM     27  C   UNL     1      34.943 -21.658 -19.523  0.00  0.00    +0.065 C 
ATOM     28  C   UNL     1      34.175 -22.782 -18.885  0.00  0.00    +0.122 C 
ATOM     29  C   UNL     1      32.828 -21.392 -19.877  0.00  0.00    +0.072 C 
ATOM     30  C   UNL     1      36.329 -21.495 -19.166  0.00  0.00    -0.020 C 
ATOM     31  C   UNL     1      34.593 -23.000 -17.458  0.00  0.00    -0.004 C 
ATOM     32  C   UNL     1      36.749 -21.986 -17.985  0.00  0.00    -0.004 C 
ATOM     33  C   UNL     1      35.826 -22.633 -17.062  0.00  0.00    -0.003 C 
ENDBRANCH  24  26
ENDBRANCH  19  24
ENDBRANCH  18  19
ENDBRANCH   1  18
TORSDOF 7
ENDMDL
MODEL 5
REMARK VINA RESULT:     -11.9      5.024     11.366
REMARK  Name = 49866474
REMARK  7 active torsions:
REMARK  status: ('A' for Active; 'I' for Inactive)
REMARK    1  A    between atoms: O_1  and  C_3
REMARK    2  A    between atoms: O_1  and  C_18
REMARK    3  A    between atoms: C_4  and  C_10
REMARK    4  A    between atoms: C_18  and  C_19
REMARK    5  A    between atoms: C_19  and  N_20
REMARK    6  A    between atoms: C_19  and  C_24
REMARK    7  A    between atoms: C_24  and  C_26
REMARK                            x       y       z     vdW  Elec       q    Type
REMARK                         _______ _______ _______ _____ _____    ______ ____
ROOT
ATOM      1  O   UNL     1      33.312 -22.577 -18.853  0.00  0.00    -0.476 OA
ENDROOT
BRANCH   1   3
ATOM      2  N   UNL     1      36.742 -21.381 -19.291  0.00  0.00    -0.239 NA
ATOM      3  C   UNL     1      34.372 -21.860 -19.343  0.00  0.00    +0.158 C 
ATOM      4  C   UNL     1      35.292 -20.206 -20.828  0.00  0.00    +0.022 C 
ATOM      5  C   UNL     1      34.197 -20.917 -20.350  0.00  0.00    +0.040 C 
ATOM      6  C   UNL     1      35.654 -22.053 -18.852  0.00  0.00    +0.136 C 
ATOM      7  C   UNL     1      36.532 -20.473 -20.271  0.00  0.00    +0.099 C 
BRANCH   4  10
ATOM      8  N   UNL     1      34.600 -16.631 -25.002  0.00  0.00    -0.236 N 
ATOM      9  N   UNL     1      34.035 -17.370 -25.972  0.00  0.00    -0.180 NA
ATOM     10  C   UNL     1      35.141 -19.220 -21.872  0.00  0.00    +0.002 C 
ATOM     11  C   UNL     1      34.435 -18.622 -24.099  0.00  0.00    +0.035 C 
ATOM     12  C   UNL     1      34.571 -19.596 -23.096  0.00  0.00    +0.003 C 
ATOM     13  C   UNL     1      34.866 -17.324 -23.852  0.00  0.00    +0.067 C 
ATOM     14  C   UNL     1      35.566 -17.909 -21.651  0.00  0.00    +0.001 C 
ATOM     15  C   UNL     1      35.437 -16.929 -22.640  0.00  0.00    +0.016 C 
ATOM     16  C   UNL     1      33.936 -18.580 -25.419  0.00  0.00    +0.119 C 
ATOM     17  H   UNL     1      34.806 -15.674 -25.109  0.00  0.00    +0.174 HD
ENDBRANCH   4  10
ENDBRANCH   1   3
BRANCH   1  18
ATOM     18  C   UNL     1      33.618 -23.675 -18.004  0.00  0.00    +0.184 C 
BRANCH  18  19
ATOM     19  C   UNL     1      33.361 -23.306 -16.538  0.00  0.00    -0.017 C 
BRANCH  19  20
ATOM     20  N   UNL     1      31.911 -23.269 -16.322  0.00  0.00    +0.384 N 
ATOM     21  H   UNL     1      31.699 -22.638 -15.548  0.00  0.00    -0.089 HD
ATOM     22  H   UNL     1      31.576 -24.205 -16.099  0.00  0.00    -0.089 HD
ATOM     23  H   UNL     1      31.450 -22.935 -17.168  0.00  0.00    -0.089 HD
ENDBRANCH  19  20
BRANCH  19  24
ATOM     24  C   UNL     1      33.995 -24.305 -15.539  0.00  0.00    +0.006 C 
BRANCH  24  26
ATOM     25  N   UNL     1      37.544 -23.231 -14.939  0.00  0.00    -0.234 NA
ATOM     26  C   UNL     1      35.233 -23.828 -14.896  0.00  0.00    -0.024 C 
ATOM     27  C   UNL     1      35.672 -23.814 -13.637  0.00  0.00    +0.065 C 
ATOM     28  C   UNL     1      37.070 -23.271 -13.541  0.00  0.00    +0.122 C 
ATOM     29  C   UNL     1      36.461 -23.470 -15.619  0.00  0.00    +0.072 C 
ATOM     30  C   UNL     1      35.078 -24.373 -12.450  0.00  0.00    -0.020 C 
ATOM     31  C   UNL     1      37.922 -24.093 -12.614  0.00  0.00    -0.004 C 
ATOM     32  C   UNL     1      35.892 -24.832 -11.481  0.00  0.00    -0.004 C 
ATOM     33  C   UNL     1      37.340 -24.807 -11.633  0.00  0.00    -0.003 C 
ENDBRANCH  24  26
ENDBRANCH  19  24
ENDBRANCH  18  19
ENDBRANCH   1  18
TORSDOF 7
ENDMDL
MODEL 6
REMARK VINA RESULT:     -11.5      3.636     11.499
REMARK  Name = 49866474
REMARK  7 active torsions:
REMARK  status: ('A' for Active; 'I' for Inactive)
REMARK    1  A    between atoms: O_1  and  C_3
REMARK    2  A    between atoms: O_1  and  C_18
REMARK    3  A    between atoms: C_4  and  C_10
REMARK    4  A    between atoms: C_18  and  C_19
REMARK    5  A    between atoms: C_19  and  N_20
REMARK    6  A    between atoms: C_19  and  C_24
REMARK    7  A    between atoms: C_24  and  C_26
REMARK                            x       y       z     vdW  Elec       q    Type
REMARK                         _______ _______ _______ _____ _____    ______ ____
ROOT
ATOM      1  O   UNL     1      31.427 -12.057 -21.838  0.00  0.00    -0.476 OA
ENDROOT
BRANCH   1   3
ATOM      2  N   UNL     1      32.101  -9.303 -19.526  0.00  0.00    -0.239 NA
ATOM      3  C   UNL     1      31.694 -10.791 -21.388  0.00  0.00    +0.158 C 
ATOM      4  C   UNL     1      32.104  -8.454 -21.790  0.00  0.00    +0.022 C 
ATOM      5  C   UNL     1      31.832  -9.729 -22.276  0.00  0.00    +0.040 C 
ATOM      6  C   UNL     1      31.836 -10.527 -20.035  0.00  0.00    +0.136 C 
ATOM      7  C   UNL     1      32.228  -8.296 -20.420  0.00  0.00    +0.099 C 
BRANCH   4  10
ATOM      8  N   UNL     1      32.935  -4.253 -25.303  0.00  0.00    -0.236 N 
ATOM      9  N   UNL     1      34.143  -4.508 -25.835  0.00  0.00    -0.180 NA
ATOM     10  C   UNL     1      32.253  -7.332 -22.687  0.00  0.00    +0.002 C 
ATOM     11  C   UNL     1      33.543  -6.118 -24.323  0.00  0.00    +0.035 C 
ATOM     12  C   UNL     1      33.417  -7.218 -23.459  0.00  0.00    +0.003 C 
ATOM     13  C   UNL     1      32.517  -5.181 -24.388  0.00  0.00    +0.067 C 
ATOM     14  C   UNL     1      31.239  -6.378 -22.772  0.00  0.00    +0.001 C 
ATOM     15  C   UNL     1      31.350  -5.277 -23.628  0.00  0.00    +0.016 C 
ATOM     16  C   UNL     1      34.508  -5.643 -25.236  0.00  0.00    +0.119 C 
ATOM     17  H   UNL     1      32.397  -3.467 -25.550  0.00  0.00    +0.174 HD
ENDBRANCH   4  10
ENDBRANCH   1   3
BRANCH   1  18
ATOM     18  C   UNL     1      32.451 -13.028 -21.667  0.00  0.00    +0.184 C 
BRANCH  18  19
ATOM     19  C   UNL     1      33.018 -13.454 -23.026  0.00  0.00    -0.017 C 
BRANCH  19  20
ATOM     20  N   UNL     1      33.530 -12.260 -23.705  0.00  0.00    +0.384 N 
ATOM     21  H   UNL     1      33.984 -11.650 -23.024  0.00  0.00    -0.089 HD
ATOM     22  H   UNL     1      32.758 -11.762 -24.146  0.00  0.00    -0.089 HD
ATOM     23  H   UNL     1      34.206 -12.537 -24.417  0.00  0.00    -0.089 HD
ENDBRANCH  19  20
BRANCH  19  24
ATOM     24  C   UNL     1      34.156 -14.497 -22.911  0.00  0.00    +0.006 C 
BRANCH  24  26
ATOM     25  N   UNL     1      33.410 -16.389 -26.070  0.00  0.00    -0.234 NA
ATOM     26  C   UNL     1      34.210 -15.474 -24.015  0.00  0.00    -0.024 C 
ATOM     27  C   UNL     1      34.717 -16.700 -24.137  0.00  0.00    +0.065 C 
ATOM     28  C   UNL     1      34.421 -17.294 -25.485  0.00  0.00    +0.122 C 
ATOM     29  C   UNL     1      33.412 -15.382 -25.245  0.00  0.00    +0.072 C 
ATOM     30  C   UNL     1      35.331 -17.544 -23.144  0.00  0.00    -0.020 C 
ATOM     31  C   UNL     1      33.988 -18.729 -25.377  0.00  0.00    -0.004 C 
ATOM     32  C   UNL     1      35.177 -18.878 -23.252  0.00  0.00    -0.004 C 
ATOM     33  C   UNL     1      34.378 -19.464 -24.319  0.00  0.00    -0.003 C 
ENDBRANCH  24  26
ENDBRANCH  19  24
ENDBRANCH  18  19
ENDBRANCH   1  18
TORSDOF 7
ENDMDL
MODEL 7
REMARK VINA RESULT:     -11.5      1.621      2.389
REMARK  Name = 49866474
REMARK  7 active torsions:
REMARK  status: ('A' for Active; 'I' for Inactive)
REMARK    1  A    between atoms: O_1  and  C_3
REMARK    2  A    between atoms: O_1  and  C_18
REMARK    3  A    between atoms: C_4  and  C_10
REMARK    4  A    between atoms: C_18  and  C_19
REMARK    5  A    between atoms: C_19  and  N_20
REMARK    6  A    between atoms: C_19  and  C_24
REMARK    7  A    between atoms: C_24  and  C_26
REMARK                            x       y       z     vdW  Elec       q    Type
REMARK                         _______ _______ _______ _____ _____    ______ ____
ROOT
ATOM      1  O   UNL     1      34.240 -14.677 -24.767  0.00  0.00    -0.476 OA
ENDROOT
BRANCH   1   3
ATOM      2  N   UNL     1      33.594 -18.148 -25.728  0.00  0.00    -0.239 NA
ATOM      3  C   UNL     1      34.218 -16.046 -24.708  0.00  0.00    +0.158 C 
ATOM      4  C   UNL     1      34.733 -18.116 -23.595  0.00  0.00    +0.022 C 
ATOM      5  C   UNL     1      34.769 -16.726 -23.627  0.00  0.00    +0.040 C 
ATOM      6  C   UNL     1      33.647 -16.798 -25.723  0.00  0.00    +0.136 C 
ATOM      7  C   UNL     1      34.140 -18.774 -24.660  0.00  0.00    +0.099 C 
BRANCH   4  10
ATOM      8  N   UNL     1      36.640 -21.062 -19.310  0.00  0.00    -0.236 N 
ATOM      9  N   UNL     1      35.594 -21.824 -18.948  0.00  0.00    -0.180 NA
ATOM     10  C   UNL     1      35.297 -18.850 -22.486  0.00  0.00    +0.002 C 
ATOM     11  C   UNL     1      35.072 -20.486 -20.729  0.00  0.00    +0.035 C 
ATOM     12  C   UNL     1      34.504 -19.784 -21.805  0.00  0.00    +0.003 C 
ATOM     13  C   UNL     1      36.392 -20.236 -20.373  0.00  0.00    +0.067 C 
ATOM     14  C   UNL     1      36.620 -18.620 -22.108  0.00  0.00    +0.001 C 
ATOM     15  C   UNL     1      37.198 -19.310 -21.038  0.00  0.00    +0.016 C 
ATOM     16  C   UNL     1      34.642 -21.470 -19.814  0.00  0.00    +0.119 C 
ATOM     17  H   UNL     1      37.510 -21.096 -18.851  0.00  0.00    +0.174 HD
ENDBRANCH   4  10
ENDBRANCH   1   3
BRANCH   1  18
ATOM     18  C   UNL     1      33.037 -14.001 -24.427  0.00  0.00    +0.184 C 
BRANCH  18  19
ATOM     19  C   UNL     1      33.315 -12.898 -23.399  0.00  0.00    -0.017 C 
BRANCH  19  20
ATOM     20  N   UNL     1      34.501 -13.280 -22.625  0.00  0.00    +0.384 N 
ATOM     21  H   UNL     1      35.007 -14.016 -23.119  0.00  0.00    -0.089 HD
ATOM     22  H   UNL     1      34.214 -13.620 -21.708  0.00  0.00    -0.089 HD
ATOM     23  H   UNL     1      35.108 -12.468 -22.512  0.00  0.00    -0.089 HD
ENDBRANCH  19  20
BRANCH  19  24
ATOM     24  C   UNL     1      33.558 -11.512 -24.044  0.00  0.00    +0.006 C 
BRANCH  24  26
ATOM     25  N   UNL     1      31.578  -9.163 -21.882  0.00  0.00    -0.234 NA
ATOM     26  C   UNL     1      33.158 -10.366 -23.206  0.00  0.00    -0.024 C 
ATOM     27  C   UNL     1      33.600  -9.114 -23.086  0.00  0.00    +0.065 C 
ATOM     28  C   UNL     1      32.769  -8.320 -22.118  0.00  0.00    +0.122 C 
ATOM     29  C   UNL     1      31.905 -10.290 -22.443  0.00  0.00    +0.072 C 
ATOM     30  C   UNL     1      34.607  -8.417 -23.845  0.00  0.00    -0.020 C 
ATOM     31  C   UNL     1      32.468  -6.944 -22.641  0.00  0.00    -0.004 C 
ATOM     32  C   UNL     1      34.462  -7.092 -24.039  0.00  0.00    -0.004 C 
ATOM     33  C   UNL     1      33.297  -6.376 -23.536  0.00  0.00    -0.003 C 
ENDBRANCH  24  26
ENDBRANCH  19  24
ENDBRANCH  18  19
ENDBRANCH   1  18
TORSDOF 7
ENDMDL
MODEL 8
REMARK VINA RESULT:     -11.5      1.582     10.396
REMARK  Name = 49866474
REMARK  7 active torsions:
REMARK  status: ('A' for Active; 'I' for Inactive)
REMARK    1  A    between atoms: O_1  and  C_3
REMARK    2  A    between atoms: O_1  and  C_18
REMARK    3  A    between atoms: C_4  and  C_10
REMARK    4  A    between atoms: C_18  and  C_19
REMARK    5  A    between atoms: C_19  and  N_20
REMARK    6  A    between atoms: C_19  and  C_24
REMARK    7  A    between atoms: C_24  and  C_26
REMARK                            x       y       z     vdW  Elec       q    Type
REMARK                         _______ _______ _______ _____ _____    ______ ____
ROOT
ATOM      1  O   UNL     1      34.576 -15.933 -22.630  0.00  0.00    -0.476 OA
ENDROOT
BRANCH   1   3
ATOM      2  N   UNL     1      33.246 -14.482 -25.715  0.00  0.00    -0.239 NA
ATOM      3  C   UNL     1      34.142 -14.992 -23.527  0.00  0.00    +0.158 C 
ATOM      4  C   UNL     1      33.694 -12.708 -24.134  0.00  0.00    +0.022 C 
ATOM      5  C   UNL     1      34.141 -13.640 -23.203  0.00  0.00    +0.040 C 
ATOM      6  C   UNL     1      33.689 -15.358 -24.785  0.00  0.00    +0.136 C 
ATOM      7  C   UNL     1      33.260 -13.176 -25.363  0.00  0.00    +0.099 C 
BRANCH   4  10
ATOM      8  N   UNL     1      33.403  -7.339 -22.802  0.00  0.00    -0.236 N 
ATOM      9  N   UNL     1      32.314  -7.257 -22.020  0.00  0.00    -0.180 NA
ATOM     10  C   UNL     1      33.680 -11.297 -23.827  0.00  0.00    +0.002 C 
ATOM     11  C   UNL     1      32.673  -9.405 -22.722  0.00  0.00    +0.035 C 
ATOM     12  C   UNL     1      32.668 -10.780 -23.007  0.00  0.00    +0.003 C 
ATOM     13  C   UNL     1      33.674  -8.601 -23.257  0.00  0.00    +0.067 C 
ATOM     14  C   UNL     1      34.673 -10.467 -24.349  0.00  0.00    +0.001 C 
ATOM     15  C   UNL     1      34.691  -9.096 -24.075  0.00  0.00    +0.016 C 
ATOM     16  C   UNL     1      31.873  -8.515 -21.974  0.00  0.00    +0.119 C 
ATOM     17  H   UNL     1      33.959  -6.559 -23.028  0.00  0.00    +0.174 HD
ENDBRANCH   4  10
ENDBRANCH   1   3
BRANCH   1  18
ATOM     18  C   UNL     1      35.347 -17.008 -23.151  0.00  0.00    +0.184 C 
BRANCH  18  19
ATOM     19  C   UNL     1      34.757 -18.353 -22.711  0.00  0.00    -0.017 C 
BRANCH  19  20
ATOM     20  N   UNL     1      34.888 -19.298 -23.825  0.00  0.00    +0.384 N 
ATOM     21  H   UNL     1      34.194 -19.078 -24.540  0.00  0.00    -0.089 HD
ATOM     22  H   UNL     1      34.737 -20.247 -23.485  0.00  0.00    -0.089 HD
ATOM     23  H   UNL     1      35.823 -19.224 -24.225  0.00  0.00    -0.089 HD
ENDBRANCH  19  20
BRANCH  19  24
ATOM     24  C   UNL     1      35.456 -18.944 -21.462  0.00  0.00    +0.006 C 
BRANCH  24  26
ATOM     25  N   UNL     1      32.879 -21.350 -20.165  0.00  0.00    -0.234 NA
ATOM     26  C   UNL     1      34.801 -20.140 -20.900  0.00  0.00    -0.024 C 
ATOM     27  C   UNL     1      35.224 -21.154 -20.145  0.00  0.00    +0.065 C 
ATOM     28  C   UNL     1      34.102 -22.085 -19.783  0.00  0.00    +0.122 C 
ATOM     29  C   UNL     1      33.347 -20.340 -20.840  0.00  0.00    +0.072 C 
ATOM     30  C   UNL     1      36.509 -21.369 -19.530  0.00  0.00    -0.020 C 
ATOM     31  C   UNL     1      34.161 -22.491 -18.337  0.00  0.00    -0.004 C 
ATOM     32  C   UNL     1      36.556 -22.023 -18.355  0.00  0.00    -0.004 C 
ATOM     33  C   UNL     1      35.341 -22.473 -17.688  0.00  0.00    -0.003 C 
ENDBRANCH  24  26
ENDBRANCH  19  24
ENDBRANCH  18  19
ENDBRANCH   1  18
TORSDOF 7
ENDMDL
MODEL 9
REMARK VINA RESULT:     -11.5      5.204     11.938
REMARK  Name = 49866474
REMARK  7 active torsions:
REMARK  status: ('A' for Active; 'I' for Inactive)
REMARK    1  A    between atoms: O_1  and  C_3
REMARK    2  A    between atoms: O_1  and  C_18
REMARK    3  A    between atoms: C_4  and  C_10
REMARK    4  A    between atoms: C_18  and  C_19
REMARK    5  A    between atoms: C_19  and  N_20
REMARK    6  A    between atoms: C_19  and  C_24
REMARK    7  A    between atoms: C_24  and  C_26
REMARK                            x       y       z     vdW  Elec       q    Type
REMARK                         _______ _______ _______ _____ _____    ______ ____
ROOT
ATOM      1  O   UNL     1      36.045 -22.463 -18.442  0.00  0.00    -0.476 OA
ENDROOT
BRANCH   1   3
ATOM      2  N   UNL     1      32.690 -21.703 -19.686  0.00  0.00    -0.239 NA
ATOM      3  C   UNL     1      35.048 -21.882 -19.179  0.00  0.00    +0.158 C 
ATOM      4  C   UNL     1      34.300 -20.341 -20.869  0.00  0.00    +0.022 C 
ATOM      5  C   UNL     1      35.334 -20.915 -20.137  0.00  0.00    +0.040 C 
ATOM      6  C   UNL     1      33.721 -22.238 -18.994  0.00  0.00    +0.136 C 
ATOM      7  C   UNL     1      33.008 -20.766 -20.608  0.00  0.00    +0.099 C 
BRANCH   4  10
ATOM      8  N   UNL     1      35.175 -16.643 -24.898  0.00  0.00    -0.236 N 
ATOM      9  N   UNL     1      34.550 -17.170 -25.965  0.00  0.00    -0.180 NA
ATOM     10  C   UNL     1      34.566 -19.335 -21.870  0.00  0.00    +0.002 C 
ATOM     11  C   UNL     1      34.342 -18.519 -24.128  0.00  0.00    +0.035 C 
ATOM     12  C   UNL     1      34.071 -19.509 -23.170  0.00  0.00    +0.003 C 
ATOM     13  C   UNL     1      35.088 -17.404 -23.764  0.00  0.00    +0.067 C 
ATOM     14  C   UNL     1      35.312 -18.206 -21.532  0.00  0.00    +0.001 C 
ATOM     15  C   UNL     1      35.591 -17.212 -22.476  0.00  0.00    +0.016 C 
ATOM     16  C   UNL     1      34.045 -18.311 -25.492  0.00  0.00    +0.119 C 
ATOM     17  H   UNL     1      35.654 -15.783 -24.930  0.00  0.00    +0.174 HD
ENDBRANCH   4  10
ENDBRANCH   1   3
BRANCH   1  18
ATOM     18  C   UNL     1      35.710 -22.880 -17.125  0.00  0.00    +0.184 C 
BRANCH  18  19
ATOM     19  C   UNL     1      36.792 -22.439 -16.131  0.00  0.00    -0.017 C 
BRANCH  19  20
ATOM     20  N   UNL     1      37.347 -21.163 -16.594  0.00  0.00    +0.384 N 
ATOM     21  H   UNL     1      37.571 -21.229 -17.587  0.00  0.00    -0.089 HD
ATOM     22  H   UNL     1      38.193 -20.950 -16.067  0.00  0.00    -0.089 HD
ATOM     23  H   UNL     1      36.660 -20.422 -16.449  0.00  0.00    -0.089 HD
ENDBRANCH  19  20
BRANCH  19  24
ATOM     24  C   UNL     1      36.258 -22.264 -14.689  0.00  0.00    +0.006 C 
BRANCH  24  26
ATOM     25  N   UNL     1      37.755 -24.327 -11.929  0.00  0.00    -0.234 NA
ATOM     26  C   UNL     1      36.577 -23.378 -13.776  0.00  0.00    -0.024 C 
ATOM     27  C   UNL     1      36.473 -24.704 -13.867  0.00  0.00    +0.065 C 
ATOM     28  C   UNL     1      37.027 -25.391 -12.650  0.00  0.00    +0.122 C 
ATOM     29  C   UNL     1      37.393 -23.248 -12.561  0.00  0.00    +0.072 C 
ATOM     30  C   UNL     1      36.077 -25.520 -14.985  0.00  0.00    -0.020 C 
ATOM     31  C   UNL     1      37.864 -26.583 -13.018  0.00  0.00    -0.004 C 
ATOM     32  C   UNL     1      36.632 -26.739 -15.119  0.00  0.00    -0.004 C 
ATOM     33  C   UNL     1      37.643 -27.218 -14.185  0.00  0.00    -0.003 C 
ENDBRANCH  24  26
ENDBRANCH  19  24
ENDBRANCH  18  19
ENDBRANCH   1  18
TORSDOF 7
ENDMDL
