MODEL 1
REMARK VINA RESULT:     -12.3      0.000      0.000
REMARK  Name = 9969613
REMARK  5 active torsions:
REMARK  status: ('A' for Active; 'I' for Inactive)
REMARK    1  A    between atoms: C_3  and  O_7
REMARK    2  A    between atoms: C_4  and  O_17
REMARK    3  A    between atoms: O_7  and  C_13
REMARK    4  A    between atoms: O_17  and  C_21
REMARK    5  A    between atoms: C_18  and  N_24
REMARK                            x       y       z     vdW  Elec       q    Type
REMARK                         _______ _______ _______ _____ _____    ______ ____
ROOT
ATOM      1  N   UNL     1      34.732 -23.419 -16.701  0.00  0.00    -0.283 NA
ATOM      2  N   UNL     1      32.348 -23.479 -17.049  0.00  0.00    -0.151 NA
ATOM      3  C   UNL     1      34.486 -23.313 -15.385  0.00  0.00    +0.296 C 
ATOM      4  C   UNL     1      33.628 -23.498 -17.468  0.00  0.00    +0.260 C 
ATOM      5  C   UNL     1      33.235 -23.282 -14.821  0.00  0.00    +0.094 C 
ATOM      6  C   UNL     1      32.187 -23.370 -15.713  0.00  0.00    +0.119 C 
ENDROOT
BRANCH   3   7
ATOM      7  O   UNL     1      35.592 -23.229 -14.555  0.00  0.00    -0.427 OA
BRANCH   7  13
ATOM      8  O   UNL     1      40.109 -24.912 -14.667  0.00  0.00    -0.435 OA
ATOM      9  O   UNL     1      39.348 -27.195 -14.771  0.00  0.00    -0.435 OA
ATOM     10  C   UNL     1      38.752 -25.004 -14.662  0.00  0.00    +0.179 C 
ATOM     11  C   UNL     1      38.316 -26.308 -14.720  0.00  0.00    +0.177 C 
ATOM     12  C   UNL     1      37.868 -23.946 -14.606  0.00  0.00    +0.078 C 
ATOM     13  C   UNL     1      36.502 -24.240 -14.610  0.00  0.00    +0.151 C 
ATOM     14  C   UNL     1      36.973 -26.626 -14.727  0.00  0.00    +0.043 C 
ATOM     15  C   UNL     1      40.480 -26.303 -14.735  0.00  0.00    +0.429 C 
ATOM     16  C   UNL     1      36.057 -25.572 -14.672  0.00  0.00    +0.041 C 
ENDBRANCH   7  13
ENDBRANCH   3   7
BRANCH   4  17
ATOM     17  O   UNL     1      33.828 -23.609 -18.824  0.00  0.00    -0.383 OA
BRANCH  17  21
ATOM     18  C   UNL     1      34.702 -20.124 -20.903  0.00  0.00    +0.057 C 
ATOM     19  C   UNL     1      33.375 -20.482 -20.668  0.00  0.00    +0.018 C 
ATOM     20  C   UNL     1      35.737 -20.937 -20.439  0.00  0.00    +0.018 C 
ATOM     21  C   UNL     1      34.119 -22.452 -19.514  0.00  0.00    +0.160 C 
ATOM     22  C   UNL     1      33.082 -21.653 -19.969  0.00  0.00    +0.040 C 
ATOM     23  C   UNL     1      35.443 -22.108 -19.740  0.00  0.00    +0.040 C 
BRANCH  18  24
ATOM     24  N   UNL     1      34.994 -18.963 -21.595  0.00  0.00    -0.246 N 
ATOM     25  N   UNL     1      35.566 -16.842 -21.971  0.00  0.00    -0.224 NA
ATOM     26  C   UNL     1      34.986 -18.799 -22.957  0.00  0.00    +0.092 C 
ATOM     27  C   UNL     1      35.350 -17.755 -21.050  0.00  0.00    +0.172 C 
ATOM     28  C   UNL     1      35.341 -17.486 -23.162  0.00  0.00    +0.117 C 
ENDBRANCH  18  24
ENDBRANCH  17  21
ENDBRANCH   4  17
TORSDOF 5
ENDMDL
MODEL 2
REMARK VINA RESULT:     -11.7      2.802      5.523
REMARK  Name = 9969613
REMARK  5 active torsions:
REMARK  status: ('A' for Active; 'I' for Inactive)
REMARK    1  A    between atoms: C_3  and  O_7
REMARK    2  A    between atoms: C_4  and  O_17
REMARK    3  A    between atoms: O_7  and  C_13
REMARK    4  A    between atoms: O_17  and  C_21
REMARK    5  A    between atoms: C_18  and  N_24
REMARK                            x       y       z     vdW  Elec       q    Type
REMARK                         _______ _______ _______ _____ _____    ______ ____
ROOT
ATOM      1  N   UNL     1      33.472 -23.630 -16.495  0.00  0.00    -0.283 NA
ATOM      2  N   UNL     1      35.757 -22.950 -16.854  0.00  0.00    -0.151 NA
ATOM      3  C   UNL     1      33.692 -23.490 -15.177  0.00  0.00    +0.296 C 
ATOM      4  C   UNL     1      34.538 -23.346 -17.269  0.00  0.00    +0.260 C 
ATOM      5  C   UNL     1      34.881 -23.095 -14.617  0.00  0.00    +0.094 C 
ATOM      6  C   UNL     1      35.894 -22.834 -15.516  0.00  0.00    +0.119 C 
ENDROOT
BRANCH   3   7
ATOM      7  O   UNL     1      32.624 -23.771 -14.340  0.00  0.00    -0.427 OA
BRANCH   7  13
ATOM      8  O   UNL     1      28.900 -22.331 -17.044  0.00  0.00    -0.435 OA
ATOM      9  O   UNL     1      27.734 -24.412 -16.699  0.00  0.00    -0.435 OA
ATOM     10  C   UNL     1      29.601 -23.192 -16.257  0.00  0.00    +0.179 C 
ATOM     11  C   UNL     1      28.936 -24.381 -16.060  0.00  0.00    +0.177 C 
ATOM     12  C   UNL     1      30.839 -22.952 -15.697  0.00  0.00    +0.078 C 
ATOM     13  C   UNL     1      31.404 -23.962 -14.914  0.00  0.00    +0.151 C 
ATOM     14  C   UNL     1      29.472 -25.394 -15.291  0.00  0.00    +0.043 C 
ATOM     15  C   UNL     1      27.719 -23.110 -17.320  0.00  0.00    +0.429 C 
ATOM     16  C   UNL     1      30.724 -25.175 -14.712  0.00  0.00    +0.041 C 
ENDBRANCH   7  13
ENDBRANCH   3   7
BRANCH   4  17
ATOM     17  O   UNL     1      34.362 -23.474 -18.627  0.00  0.00    -0.383 OA
BRANCH  17  21
ATOM     18  C   UNL     1      34.876 -20.062 -20.934  0.00  0.00    +0.057 C 
ATOM     19  C   UNL     1      33.593 -20.479 -20.582  0.00  0.00    +0.018 C 
ATOM     20  C   UNL     1      35.988 -20.792 -20.510  0.00  0.00    +0.018 C 
ATOM     21  C   UNL     1      34.533 -22.341 -19.393  0.00  0.00    +0.160 C 
ATOM     22  C   UNL     1      33.420 -21.626 -19.806  0.00  0.00    +0.040 C 
ATOM     23  C   UNL     1      35.814 -21.938 -19.735  0.00  0.00    +0.040 C 
BRANCH  18  24
ATOM     24  N   UNL     1      35.048 -18.925 -21.702  0.00  0.00    -0.246 N 
ATOM     25  N   UNL     1      35.453 -16.796 -22.222  0.00  0.00    -0.224 NA
ATOM     26  C   UNL     1      34.950 -18.839 -23.067  0.00  0.00    +0.092 C 
ATOM     27  C   UNL     1      35.353 -17.669 -21.244  0.00  0.00    +0.172 C 
ATOM     28  C   UNL     1      35.203 -17.519 -23.362  0.00  0.00    +0.117 C 
ENDBRANCH  18  24
ENDBRANCH  17  21
ENDBRANCH   4  17
TORSDOF 5
ENDMDL
MODEL 3
REMARK VINA RESULT:     -11.2      1.306      1.713
REMARK  Name = 9969613
REMARK  5 active torsions:
REMARK  status: ('A' for Active; 'I' for Inactive)
REMARK    1  A    between atoms: C_3  and  O_7
REMARK    2  A    between atoms: C_4  and  O_17
REMARK    3  A    between atoms: O_7  and  C_13
REMARK    4  A    between atoms: O_17  and  C_21
REMARK    5  A    between atoms: C_18  and  N_24
REMARK                            x       y       z     vdW  Elec       q    Type
REMARK                         _______ _______ _______ _____ _____    ______ ____
ROOT
ATOM      1  N   UNL     1      35.801 -22.773 -17.272  0.00  0.00    -0.283 NA
ATOM      2  N   UNL     1      34.103 -22.455 -18.953  0.00  0.00    -0.151 NA
ATOM      3  C   UNL     1      34.826 -23.157 -16.432  0.00  0.00    +0.296 C 
ATOM      4  C   UNL     1      35.373 -22.438 -18.505  0.00  0.00    +0.260 C 
ATOM      5  C   UNL     1      33.493 -23.221 -16.754  0.00  0.00    +0.094 C 
ATOM      6  C   UNL     1      33.184 -22.853 -18.047  0.00  0.00    +0.119 C 
ENDROOT
BRANCH   3   7
ATOM      7  O   UNL     1      35.217 -23.510 -15.152  0.00  0.00    -0.427 OA
BRANCH   7  13
ATOM      8  O   UNL     1      39.800 -24.805 -14.394  0.00  0.00    -0.435 OA
ATOM      9  O   UNL     1      39.268 -27.143 -14.624  0.00  0.00    -0.435 OA
ATOM     10  C   UNL     1      38.479 -25.011 -14.646  0.00  0.00    +0.179 C 
ATOM     11  C   UNL     1      38.174 -26.347 -14.776  0.00  0.00    +0.177 C 
ATOM     12  C   UNL     1      37.514 -24.032 -14.765  0.00  0.00    +0.078 C 
ATOM     13  C   UNL     1      36.203 -24.441 -15.026  0.00  0.00    +0.151 C 
ATOM     14  C   UNL     1      36.888 -26.777 -15.034  0.00  0.00    +0.043 C 
ATOM     15  C   UNL     1      40.293 -26.159 -14.382  0.00  0.00    +0.429 C 
ATOM     16  C   UNL     1      35.893 -25.805 -15.160  0.00  0.00    +0.041 C 
ENDBRANCH   7  13
ENDBRANCH   3   7
BRANCH   4  17
ATOM     17  O   UNL     1      36.336 -22.038 -19.401  0.00  0.00    -0.383 OA
BRANCH  17  21
ATOM     18  C   UNL     1      35.488 -18.709 -21.731  0.00  0.00    +0.057 C 
ATOM     19  C   UNL     1      34.487 -19.641 -21.457  0.00  0.00    +0.018 C 
ATOM     20  C   UNL     1      36.774 -18.896 -21.223  0.00  0.00    +0.018 C 
ATOM     21  C   UNL     1      36.055 -20.933 -20.175  0.00  0.00    +0.160 C 
ATOM     22  C   UNL     1      34.773 -20.760 -20.673  0.00  0.00    +0.040 C 
ATOM     23  C   UNL     1      37.058 -20.015 -20.440  0.00  0.00    +0.040 C 
BRANCH  18  24
ATOM     24  N   UNL     1      35.206 -17.600 -22.507  0.00  0.00    -0.246 N 
ATOM     25  N   UNL     1      34.911 -15.464 -23.070  0.00  0.00    -0.224 NA
ATOM     26  C   UNL     1      34.859 -17.597 -23.834  0.00  0.00    +0.092 C 
ATOM     27  C   UNL     1      35.223 -16.291 -22.097  0.00  0.00    +0.172 C 
ATOM     28  C   UNL     1      34.683 -16.272 -24.156  0.00  0.00    +0.117 C 
ENDBRANCH  18  24
ENDBRANCH  17  21
ENDBRANCH   4  17
TORSDOF 5
ENDMDL
MODEL 4
REMARK VINA RESULT:     -11.2      0.920      1.832
REMARK  Name = 9969613
REMARK  5 active torsions:
REMARK  status: ('A' for Active; 'I' for Inactive)
REMARK    1  A    between atoms: C_3  and  O_7
REMARK    2  A    between atoms: C_4  and  O_17
REMARK    3  A    between atoms: O_7  and  C_13
REMARK    4  A    between atoms: O_17  and  C_21
REMARK    5  A    between atoms: C_18  and  N_24
REMARK                            x       y       z     vdW  Elec       q    Type
REMARK                         _______ _______ _______ _____ _____    ______ ____
ROOT
ATOM      1  N   UNL     1      34.146 -23.872 -16.457  0.00  0.00    -0.283 NA
ATOM      2  N   UNL     1      32.286 -23.068 -17.763  0.00  0.00    -0.151 NA
ATOM      3  C   UNL     1      33.359 -23.781 -15.374  0.00  0.00    +0.296 C 
ATOM      4  C   UNL     1      33.552 -23.503 -17.609  0.00  0.00    +0.260 C 
ATOM      5  C   UNL     1      32.054 -23.355 -15.385  0.00  0.00    +0.094 C 
ATOM      6  C   UNL     1      31.562 -23.006 -16.625  0.00  0.00    +0.119 C 
ENDROOT
BRANCH   3   7
ATOM      7  O   UNL     1      33.926 -24.150 -14.165  0.00  0.00    -0.427 OA
BRANCH   7  13
ATOM      8  O   UNL     1      37.930 -26.657 -15.135  0.00  0.00    -0.435 OA
ATOM      9  O   UNL     1      39.327 -24.996 -14.089  0.00  0.00    -0.435 OA
ATOM     10  C   UNL     1      37.209 -25.615 -14.638  0.00  0.00    +0.179 C 
ATOM     11  C   UNL     1      38.007 -24.665 -14.041  0.00  0.00    +0.177 C 
ATOM     12  C   UNL     1      35.838 -25.476 -14.699  0.00  0.00    +0.078 C 
ATOM     13  C   UNL     1      35.276 -24.330 -14.129  0.00  0.00    +0.151 C 
ATOM     14  C   UNL     1      37.477 -23.526 -13.470  0.00  0.00    +0.043 C 
ATOM     15  C   UNL     1      39.270 -26.258 -14.784  0.00  0.00    +0.429 C 
ATOM     16  C   UNL     1      36.090 -23.362 -13.518  0.00  0.00    +0.041 C 
ENDBRANCH   7  13
ENDBRANCH   3   7
BRANCH   4  17
ATOM     17  O   UNL     1      34.319 -23.580 -18.748  0.00  0.00    -0.383 OA
BRANCH  17  21
ATOM     18  C   UNL     1      34.855 -20.077 -20.909  0.00  0.00    +0.057 C 
ATOM     19  C   UNL     1      35.962 -20.783 -20.440  0.00  0.00    +0.018 C 
ATOM     20  C   UNL     1      33.567 -20.548 -20.653  0.00  0.00    +0.018 C 
ATOM     21  C   UNL     1      34.496 -22.417 -19.466  0.00  0.00    +0.160 C 
ATOM     22  C   UNL     1      35.781 -21.961 -19.714  0.00  0.00    +0.040 C 
ATOM     23  C   UNL     1      33.387 -21.726 -19.926  0.00  0.00    +0.040 C 
BRANCH  18  24
ATOM     24  N   UNL     1      35.033 -18.910 -21.630  0.00  0.00    -0.246 N 
ATOM     25  N   UNL     1      35.090 -17.515 -23.367  0.00  0.00    -0.224 NA
ATOM     26  C   UNL     1      35.433 -17.696 -21.133  0.00  0.00    +0.092 C 
ATOM     27  C   UNL     1      34.839 -18.745 -22.978  0.00  0.00    +0.172 C 
ATOM     28  C   UNL     1      35.461 -16.856 -22.221  0.00  0.00    +0.117 C 
ENDBRANCH  18  24
ENDBRANCH  17  21
ENDBRANCH   4  17
TORSDOF 5
ENDMDL
MODEL 5
REMARK VINA RESULT:     -11.0      3.742      7.365
REMARK  Name = 9969613
REMARK  5 active torsions:
REMARK  status: ('A' for Active; 'I' for Inactive)
REMARK    1  A    between atoms: C_3  and  O_7
REMARK    2  A    between atoms: C_4  and  O_17
REMARK    3  A    between atoms: O_7  and  C_13
REMARK    4  A    between atoms: O_17  and  C_21
REMARK    5  A    between atoms: C_18  and  N_24
REMARK                            x       y       z     vdW  Elec       q    Type
REMARK                         _______ _______ _______ _____ _____    ______ ____
ROOT
ATOM      1  N   UNL     1      34.649 -24.328 -14.468  0.00  0.00    -0.283 NA
ATOM      2  N   UNL     1      35.138 -23.975 -12.134  0.00  0.00    -0.151 NA
ATOM      3  C   UNL     1      35.852 -23.801 -14.747  0.00  0.00    +0.296 C 
ATOM      4  C   UNL     1      34.358 -24.385 -13.154  0.00  0.00    +0.260 C 
ATOM      5  C   UNL     1      36.745 -23.345 -13.811  0.00  0.00    +0.094 C 
ATOM      6  C   UNL     1      36.330 -23.458 -12.500  0.00  0.00    +0.119 C 
ENDROOT
BRANCH   3   7
ATOM      7  O   UNL     1      36.195 -23.722 -16.087  0.00  0.00    -0.427 OA
BRANCH   7  13
ATOM      8  O   UNL     1      34.879 -21.137 -19.939  0.00  0.00    -0.435 OA
ATOM      9  O   UNL     1      32.555 -21.692 -19.624  0.00  0.00    -0.435 OA
ATOM     10  C   UNL     1      34.681 -21.941 -18.859  0.00  0.00    +0.179 C 
ATOM     11  C   UNL     1      33.354 -22.259 -18.680  0.00  0.00    +0.177 C 
ATOM     12  C   UNL     1      35.661 -22.413 -18.011  0.00  0.00    +0.078 C 
ATOM     13  C   UNL     1      35.263 -23.232 -16.950  0.00  0.00    +0.151 C 
ATOM     14  C   UNL     1      32.934 -23.065 -17.641  0.00  0.00    +0.043 C 
ATOM     15  C   UNL     1      33.528 -20.983 -20.419  0.00  0.00    +0.429 C 
ATOM     16  C   UNL     1      33.908 -23.555 -16.767  0.00  0.00    +0.041 C 
ENDBRANCH   7  13
ENDBRANCH   3   7
BRANCH   4  17
ATOM     17  O   UNL     1      33.136 -24.918 -12.817  0.00  0.00    -0.383 OA
BRANCH  17  21
ATOM     18  C   UNL     1      29.893 -23.863 -15.183  0.00  0.00    +0.057 C 
ATOM     19  C   UNL     1      30.188 -25.208 -14.964  0.00  0.00    +0.018 C 
ATOM     20  C   UNL     1      30.688 -22.871 -14.607  0.00  0.00    +0.018 C 
ATOM     21  C   UNL     1      32.059 -24.567 -13.602  0.00  0.00    +0.160 C 
ATOM     22  C   UNL     1      31.278 -25.562 -14.168  0.00  0.00    +0.040 C 
ATOM     23  C   UNL     1      31.778 -23.226 -13.812  0.00  0.00    +0.040 C 
BRANCH  18  24
ATOM     24  N   UNL     1      28.813 -23.511 -15.971  0.00  0.00    -0.246 N 
ATOM     25  N   UNL     1      27.338 -23.567 -17.642  0.00  0.00    -0.224 NA
ATOM     26  C   UNL     1      27.945 -22.472 -15.752  0.00  0.00    +0.092 C 
ATOM     27  C   UNL     1      28.402 -24.137 -17.121  0.00  0.00    +0.172 C 
ATOM     28  C   UNL     1      27.048 -22.528 -16.793  0.00  0.00    +0.117 C 
ENDBRANCH  18  24
ENDBRANCH  17  21
ENDBRANCH   4  17
TORSDOF 5
ENDMDL
MODEL 6
REMARK VINA RESULT:     -10.7      3.172      5.550
REMARK  Name = 9969613
REMARK  5 active torsions:
REMARK  status: ('A' for Active; 'I' for Inactive)
REMARK    1  A    between atoms: C_3  and  O_7
REMARK    2  A    between atoms: C_4  and  O_17
REMARK    3  A    between atoms: O_7  and  C_13
REMARK    4  A    between atoms: O_17  and  C_21
REMARK    5  A    between atoms: C_18  and  N_24
REMARK                            x       y       z     vdW  Elec       q    Type
REMARK                         _______ _______ _______ _____ _____    ______ ____
ROOT
ATOM      1  N   UNL     1      35.699 -21.176 -19.777  0.00  0.00    -0.283 NA
ATOM      2  N   UNL     1      33.937 -20.107 -21.027  0.00  0.00    -0.151 NA
ATOM      3  C   UNL     1      34.764 -21.978 -19.243  0.00  0.00    +0.296 C 
ATOM      4  C   UNL     1      35.220 -20.272 -20.653  0.00  0.00    +0.260 C 
ATOM      5  C   UNL     1      33.424 -21.922 -19.531  0.00  0.00    +0.094 C 
ATOM      6  C   UNL     1      33.061 -20.953 -20.444  0.00  0.00    +0.119 C 
ENDROOT
BRANCH   3   7
ATOM      7  O   UNL     1      35.209 -22.925 -18.335  0.00  0.00    -0.427 OA
BRANCH   7  13
ATOM      8  O   UNL     1      30.995 -23.654 -16.108  0.00  0.00    -0.435 OA
ATOM      9  O   UNL     1      32.060 -23.789 -13.951  0.00  0.00    -0.435 OA
ATOM     10  C   UNL     1      32.344 -23.494 -16.187  0.00  0.00    +0.179 C 
ATOM     11  C   UNL     1      32.953 -23.573 -14.955  0.00  0.00    +0.177 C 
ATOM     12  C   UNL     1      33.068 -23.278 -17.341  0.00  0.00    +0.078 C 
ATOM     13  C   UNL     1      34.453 -23.139 -17.223  0.00  0.00    +0.151 C 
ATOM     14  C   UNL     1      34.319 -23.438 -14.810  0.00  0.00    +0.043 C 
ATOM     15  C   UNL     1      30.822 -23.840 -14.689  0.00  0.00    +0.429 C 
ATOM     16  C   UNL     1      35.075 -23.217 -15.965  0.00  0.00    +0.041 C 
ENDBRANCH   7  13
ENDBRANCH   3   7
BRANCH   4  17
ATOM     17  O   UNL     1      36.141 -19.427 -21.229  0.00  0.00    -0.383 OA
BRANCH  17  21
ATOM     18  C   UNL     1      34.684 -15.980 -23.026  0.00  0.00    +0.057 C 
ATOM     19  C   UNL     1      34.957 -17.108 -23.800  0.00  0.00    +0.018 C 
ATOM     20  C   UNL     1      34.901 -16.010 -21.648  0.00  0.00    +0.018 C 
ATOM     21  C   UNL     1      35.657 -18.282 -21.825  0.00  0.00    +0.160 C 
ATOM     22  C   UNL     1      35.446 -18.266 -23.195  0.00  0.00    +0.040 C 
ATOM     23  C   UNL     1      35.390 -17.168 -21.044  0.00  0.00    +0.040 C 
BRANCH  18  24
ATOM     24  N   UNL     1      34.199 -14.832 -23.624  0.00  0.00    -0.246 N 
ATOM     25  N   UNL     1      33.212 -13.516 -25.129  0.00  0.00    -0.224 NA
ATOM     26  C   UNL     1      34.266 -13.557 -23.122  0.00  0.00    +0.092 C 
ATOM     27  C   UNL     1      33.554 -14.750 -24.833  0.00  0.00    +0.172 C 
ATOM     28  C   UNL     1      33.653 -12.767 -24.066  0.00  0.00    +0.117 C 
ENDBRANCH  18  24
ENDBRANCH  17  21
ENDBRANCH   4  17
TORSDOF 5
ENDMDL
MODEL 7
REMARK VINA RESULT:     -10.5      3.474      9.909
REMARK  Name = 9969613
REMARK  5 active torsions:
REMARK  status: ('A' for Active; 'I' for Inactive)
REMARK    1  A    between atoms: C_3  and  O_7
REMARK    2  A    between atoms: C_4  and  O_17
REMARK    3  A    between atoms: O_7  and  C_13
REMARK    4  A    between atoms: O_17  and  C_21
REMARK    5  A    between atoms: C_18  and  N_24
REMARK                            x       y       z     vdW  Elec       q    Type
REMARK                         _______ _______ _______ _____ _____    ______ ____
ROOT
ATOM      1  N   UNL     1      35.808 -20.752 -20.265  0.00  0.00    -0.283 NA
ATOM      2  N   UNL     1      33.598 -21.580 -19.773  0.00  0.00    -0.151 NA
ATOM      3  C   UNL     1      35.239 -19.890 -21.123  0.00  0.00    +0.296 C 
ATOM      4  C   UNL     1      34.937 -21.560 -19.630  0.00  0.00    +0.260 C 
ATOM      5  C   UNL     1      33.891 -19.800 -21.368  0.00  0.00    +0.094 C 
ATOM      6  C   UNL     1      33.106 -20.682 -20.654  0.00  0.00    +0.119 C 
ENDROOT
BRANCH   3   7
ATOM      7  O   UNL     1      36.095 -19.038 -21.801  0.00  0.00    -0.427 OA
BRANCH   7  13
ATOM      8  O   UNL     1      34.083 -17.351 -25.846  0.00  0.00    -0.435 OA
ATOM      9  O   UNL     1      33.844 -15.144 -24.908  0.00  0.00    -0.435 OA
ATOM     10  C   UNL     1      34.553 -17.277 -24.571  0.00  0.00    +0.179 C 
ATOM     11  C   UNL     1      34.416 -16.017 -24.034  0.00  0.00    +0.177 C 
ATOM     12  C   UNL     1      35.111 -18.315 -23.852  0.00  0.00    +0.078 C 
ATOM     13  C   UNL     1      35.538 -18.046 -22.549  0.00  0.00    +0.151 C 
ATOM     14  C   UNL     1      34.830 -15.725 -22.751  0.00  0.00    +0.043 C 
ATOM     15  C   UNL     1      33.636 -15.996 -26.053  0.00  0.00    +0.429 C 
ATOM     16  C   UNL     1      35.399 -16.759 -22.002  0.00  0.00    +0.041 C 
ENDBRANCH   7  13
ENDBRANCH   3   7
BRANCH   4  17
ATOM     17  O   UNL     1      35.473 -22.461 -18.739  0.00  0.00    -0.383 OA
BRANCH  17  21
ATOM     18  C   UNL     1      33.070 -23.650 -15.570  0.00  0.00    +0.057 C 
ATOM     19  C   UNL     1      34.426 -23.400 -15.361  0.00  0.00    +0.018 C 
ATOM     20  C   UNL     1      32.521 -23.500 -16.844  0.00  0.00    +0.018 C 
ATOM     21  C   UNL     1      34.675 -22.856 -17.687  0.00  0.00    +0.160 C 
ATOM     22  C   UNL     1      35.233 -23.000 -16.427  0.00  0.00    +0.040 C 
ATOM     23  C   UNL     1      33.329 -23.101 -17.909  0.00  0.00    +0.040 C 
BRANCH  18  24
ATOM     24  N   UNL     1      32.269 -24.046 -14.515  0.00  0.00    -0.246 N 
ATOM     25  N   UNL     1      30.971 -23.903 -12.708  0.00  0.00    -0.224 NA
ATOM     26  C   UNL     1      31.914 -25.332 -14.195  0.00  0.00    +0.092 C 
ATOM     27  C   UNL     1      31.674 -23.227 -13.589  0.00  0.00    +0.172 C 
ATOM     28  C   UNL     1      31.117 -25.217 -13.080  0.00  0.00    +0.117 C 
ENDBRANCH  18  24
ENDBRANCH  17  21
ENDBRANCH   4  17
TORSDOF 5
ENDMDL
MODEL 8
REMARK VINA RESULT:     -10.4      5.787      9.684
REMARK  Name = 9969613
REMARK  5 active torsions:
REMARK  status: ('A' for Active; 'I' for Inactive)
REMARK    1  A    between atoms: C_3  and  O_7
REMARK    2  A    between atoms: C_4  and  O_17
REMARK    3  A    between atoms: O_7  and  C_13
REMARK    4  A    between atoms: O_17  and  C_21
REMARK    5  A    between atoms: C_18  and  N_24
REMARK                            x       y       z     vdW  Elec       q    Type
REMARK                         _______ _______ _______ _____ _____    ______ ____
ROOT
ATOM      1  N   UNL     1      34.832 -16.272 -23.301  0.00  0.00    -0.283 NA
ATOM      2  N   UNL     1      34.363 -14.539 -21.693  0.00  0.00    -0.151 NA
ATOM      3  C   UNL     1      35.252 -17.036 -22.280  0.00  0.00    +0.296 C 
ATOM      4  C   UNL     1      34.404 -15.047 -22.940  0.00  0.00    +0.260 C 
ATOM      5  C   UNL     1      35.265 -16.648 -20.963  0.00  0.00    +0.094 C 
ATOM      6  C   UNL     1      34.802 -15.371 -20.724  0.00  0.00    +0.119 C 
ENDROOT
BRANCH   3   7
ATOM      7  O   UNL     1      35.702 -18.305 -22.603  0.00  0.00    -0.427 OA
BRANCH   7  13
ATOM      8  O   UNL     1      32.946 -21.373 -20.104  0.00  0.00    -0.435 OA
ATOM      9  O   UNL     1      34.852 -22.265 -18.931  0.00  0.00    -0.435 OA
ATOM     10  C   UNL     1      34.110 -20.779 -20.483  0.00  0.00    +0.179 C 
ATOM     11  C   UNL     1      35.200 -21.290 -19.814  0.00  0.00    +0.177 C 
ATOM     12  C   UNL     1      34.240 -19.779 -21.424  0.00  0.00    +0.078 C 
ATOM     13  C   UNL     1      35.525 -19.293 -21.682  0.00  0.00    +0.151 C 
ATOM     14  C   UNL     1      36.478 -20.826 -20.049  0.00  0.00    +0.043 C 
ATOM     15  C   UNL     1      33.423 -22.313 -19.121  0.00  0.00    +0.429 C 
ATOM     16  C   UNL     1      36.637 -19.813 -20.997  0.00  0.00    +0.041 C 
ENDBRANCH   7  13
ENDBRANCH   3   7
BRANCH   4  17
ATOM     17  O   UNL     1      33.963 -14.227 -23.952  0.00  0.00    -0.383 OA
BRANCH  17  21
ATOM     18  C   UNL     1      32.691 -10.421 -22.888  0.00  0.00    +0.057 C 
ATOM     19  C   UNL     1      32.147 -11.540 -22.258  0.00  0.00    +0.018 C 
ATOM     20  C   UNL     1      33.664 -10.581 -23.876  0.00  0.00    +0.018 C 
ATOM     21  C   UNL     1      33.541 -12.963 -23.599  0.00  0.00    +0.160 C 
ATOM     22  C   UNL     1      32.575 -12.819 -22.616  0.00  0.00    +0.040 C 
ATOM     23  C   UNL     1      34.091 -11.861 -24.233  0.00  0.00    +0.040 C 
BRANCH  18  24
ATOM     24  N   UNL     1      32.268  -9.153 -22.534  0.00  0.00    -0.246 N 
ATOM     25  N   UNL     1      31.266  -7.168 -22.681  0.00  0.00    -0.224 NA
ATOM     26  C   UNL     1      32.529  -8.505 -21.354  0.00  0.00    +0.092 C 
ATOM     27  C   UNL     1      31.505  -8.305 -23.296  0.00  0.00    +0.172 C 
ATOM     28  C   UNL     1      31.902  -7.286 -21.470  0.00  0.00    +0.117 C 
ENDBRANCH  18  24
ENDBRANCH  17  21
ENDBRANCH   4  17
TORSDOF 5
ENDMDL
MODEL 9
REMARK VINA RESULT:     -10.3      6.662     12.811
REMARK  Name = 9969613
REMARK  5 active torsions:
REMARK  status: ('A' for Active; 'I' for Inactive)
REMARK    1  A    between atoms: C_3  and  O_7
REMARK    2  A    between atoms: C_4  and  O_17
REMARK    3  A    between atoms: O_7  and  C_13
REMARK    4  A    between atoms: O_17  and  C_21
REMARK    5  A    between atoms: C_18  and  N_24
REMARK                            x       y       z     vdW  Elec       q    Type
REMARK                         _______ _______ _______ _____ _____    ______ ____
ROOT
ATOM      1  N   UNL     1      34.241 -14.964 -23.572  0.00  0.00    -0.283 NA
ATOM      2  N   UNL     1      34.220 -16.051 -25.723  0.00  0.00    -0.151 NA
ATOM      3  C   UNL     1      33.268 -14.158 -24.027  0.00  0.00    +0.296 C 
ATOM      4  C   UNL     1      34.667 -15.879 -24.464  0.00  0.00    +0.260 C 
ATOM      5  C   UNL     1      32.721 -14.220 -25.284  0.00  0.00    +0.094 C 
ATOM      6  C   UNL     1      33.243 -15.200 -26.102  0.00  0.00    +0.119 C 
ENDROOT
BRANCH   3   7
ATOM      7  O   UNL     1      32.798 -13.200 -23.144  0.00  0.00    -0.427 OA
BRANCH   7  13
ATOM      8  O   UNL     1      32.432  -8.454 -22.371  0.00  0.00    -0.435 OA
ATOM      9  O   UNL     1      34.275  -7.984 -23.849  0.00  0.00    -0.435 OA
ATOM     10  C   UNL     1      32.957  -9.584 -22.917  0.00  0.00    +0.179 C 
ATOM     11  C   UNL     1      34.011  -9.316 -23.761  0.00  0.00    +0.177 C 
ATOM     12  C   UNL     1      32.522 -10.873 -22.686  0.00  0.00    +0.078 C 
ATOM     13  C   UNL     1      33.191 -11.911 -23.341  0.00  0.00    +0.151 C 
ATOM     14  C   UNL     1      34.687 -10.322 -24.421  0.00  0.00    +0.043 C 
ATOM     15  C   UNL     1      33.272  -7.445 -22.965  0.00  0.00    +0.429 C 
ATOM     16  C   UNL     1      34.266 -11.637 -24.204  0.00  0.00    +0.041 C 
ENDBRANCH   7  13
ENDBRANCH   3   7
BRANCH   4  17
ATOM     17  O   UNL     1      35.663 -16.730 -24.044  0.00  0.00    -0.383 OA
BRANCH  17  21
ATOM     18  C   UNL     1      34.594 -19.727 -21.379  0.00  0.00    +0.057 C 
ATOM     19  C   UNL     1      34.153 -19.780 -22.701  0.00  0.00    +0.018 C 
ATOM     20  C   UNL     1      35.394 -18.667 -20.952  0.00  0.00    +0.018 C 
ATOM     21  C   UNL     1      35.308 -17.725 -23.159  0.00  0.00    +0.160 C 
ATOM     22  C   UNL     1      34.513 -18.773 -23.596  0.00  0.00    +0.040 C 
ATOM     23  C   UNL     1      35.753 -17.660 -21.848  0.00  0.00    +0.040 C 
BRANCH  18  24
ATOM     24  N   UNL     1      34.238 -20.726 -20.491  0.00  0.00    -0.246 N 
ATOM     25  N   UNL     1      32.952 -22.081 -19.276  0.00  0.00    -0.224 NA
ATOM     26  C   UNL     1      35.092 -21.538 -19.789  0.00  0.00    +0.092 C 
ATOM     27  C   UNL     1      32.963 -21.095 -20.146  0.00  0.00    +0.172 C 
ATOM     28  C   UNL     1      34.276 -22.362 -19.050  0.00  0.00    +0.117 C 
ENDBRANCH  18  24
ENDBRANCH  17  21
ENDBRANCH   4  17
TORSDOF 5
ENDMDL
