MODEL 1
REMARK VINA RESULT:     -11.4      0.000      0.000
REMARK  Name = 5289109
REMARK  6 active torsions:
REMARK  status: ('A' for Active; 'I' for Inactive)
REMARK    1  A    between atoms: C_3  and  C_9
REMARK    2  A    between atoms: C_4  and  C_21
REMARK    3  A    between atoms: N_8  and  C_11
REMARK    4  A    between atoms: C_11  and  C_12
REMARK    5  A    between atoms: N_20  and  C_23
REMARK    6  A    between atoms: C_23  and  C_24
REMARK                            x       y       z     vdW  Elec       q    Type
REMARK                         _______ _______ _______ _____ _____    ______ ____
ROOT
ATOM      1  N   UNL     1      37.963 -23.586 -15.329  0.00  0.00    -0.244 NA
ATOM      2  N   UNL     1      36.597 -24.603 -13.625  0.00  0.00    -0.244 NA
ATOM      3  C   UNL     1      36.893 -22.847 -15.693  0.00  0.00    +0.115 C 
ATOM      4  C   UNL     1      35.598 -23.830 -14.057  0.00  0.00    +0.115 C 
ATOM      5  C   UNL     1      35.659 -22.930 -15.079  0.00  0.00    +0.100 C 
ATOM      6  C   UNL     1      37.747 -24.430 -14.303  0.00  0.00    +0.250 C 
ENDROOT
BRANCH   3   9
ATOM      7  O   UNL     1      37.619 -20.813 -16.605  0.00  0.00    -0.269 OA
ATOM      8  N   UNL     1      36.726 -22.370 -18.073  0.00  0.00    -0.296 N 
ATOM      9  C   UNL     1      37.104 -21.929 -16.799  0.00  0.00    +0.260 C 
ATOM     10  H   UNL     1      36.324 -23.265 -18.156  0.00  0.00    +0.150 HD
BRANCH   8  11
ATOM     11  C   UNL     1      36.894 -21.584 -19.274  0.00  0.00    +0.117 C 
BRANCH  11  12
ATOM     12  C   UNL     1      35.577 -21.190 -19.877  0.00  0.00    -0.003 C 
ATOM     13  C   UNL     1      35.549 -20.330 -20.967  0.00  0.00    -0.007 C 
ATOM     14  C   UNL     1      34.325 -19.966 -21.529  0.00  0.00    -0.022 C 
ATOM     15  C   UNL     1      34.397 -21.690 -19.337  0.00  0.00    -0.003 C 
ATOM     16  C   UNL     1      33.137 -20.463 -20.994  0.00  0.00    -0.004 C 
ATOM     17  C   UNL     1      33.173 -21.326 -19.898  0.00  0.00    -0.001 C 
ATOM     18  C   UNL     1      34.286 -19.043 -22.700  0.00  0.00    +0.031 C 
ENDBRANCH  11  12
ENDBRANCH   8  11
ENDBRANCH   3   9
BRANCH   4  21
ATOM     19  O   UNL     1      34.291 -24.731 -12.331  0.00  0.00    -0.269 OA
ATOM     20  N   UNL     1      33.232 -23.298 -13.816  0.00  0.00    -0.296 N 
ATOM     21  C   UNL     1      34.319 -24.006 -13.322  0.00  0.00    +0.260 C 
ATOM     22  H   UNL     1      33.354 -22.742 -14.619  0.00  0.00    +0.150 HD
BRANCH  20  23
ATOM     23  C   UNL     1      31.930 -23.346 -13.198  0.00  0.00    +0.117 C 
BRANCH  23  24
ATOM     24  C   UNL     1      30.897 -23.935 -14.098  0.00  0.00    -0.003 C 
ATOM     25  C   UNL     1      30.072 -23.101 -14.852  0.00  0.00    -0.007 C 
ATOM     26  C   UNL     1      29.105 -23.652 -15.695  0.00  0.00    -0.022 C 
ATOM     27  C   UNL     1      30.757 -25.320 -14.187  0.00  0.00    -0.003 C 
ATOM     28  C   UNL     1      28.966 -25.037 -15.783  0.00  0.00    -0.004 C 
ATOM     29  C   UNL     1      29.792 -25.871 -15.030  0.00  0.00    -0.001 C 
ATOM     30  C   UNL     1      28.221 -22.761 -16.500  0.00  0.00    +0.031 C 
ENDBRANCH  23  24
ENDBRANCH  20  23
ENDBRANCH   4  21
TORSDOF 6
ENDMDL
MODEL 2
REMARK VINA RESULT:     -11.4      0.067      6.837
REMARK  Name = 5289109
REMARK  6 active torsions:
REMARK  status: ('A' for Active; 'I' for Inactive)
REMARK    1  A    between atoms: C_3  and  C_9
REMARK    2  A    between atoms: C_4  and  C_21
REMARK    3  A    between atoms: N_8  and  C_11
REMARK    4  A    between atoms: C_11  and  C_12
REMARK    5  A    between atoms: N_20  and  C_23
REMARK    6  A    between atoms: C_23  and  C_24
REMARK                            x       y       z     vdW  Elec       q    Type
REMARK                         _______ _______ _______ _____ _____    ______ ____
ROOT
ATOM      1  N   UNL     1      36.537 -24.653 -13.675  0.00  0.00    -0.244 NA
ATOM      2  N   UNL     1      37.917 -23.639 -15.369  0.00  0.00    -0.244 NA
ATOM      3  C   UNL     1      35.523 -23.860 -14.079  0.00  0.00    +0.115 C 
ATOM      4  C   UNL     1      36.857 -22.898 -15.697  0.00  0.00    +0.115 C 
ATOM      5  C   UNL     1      35.628 -22.944 -15.107  0.00  0.00    +0.100 C 
ATOM      6  C   UNL     1      37.688 -24.493 -14.354  0.00  0.00    +0.250 C 
ENDROOT
BRANCH   3   9
ATOM      7  O   UNL     1      34.198 -24.768 -12.371  0.00  0.00    -0.269 OA
ATOM      8  N   UNL     1      33.176 -23.272 -13.818  0.00  0.00    -0.296 N 
ATOM      9  C   UNL     1      34.270 -24.017 -13.360  0.00  0.00    +0.260 C 
ATOM     10  H   UNL     1      33.301 -22.697 -14.607  0.00  0.00    +0.150 HD
BRANCH   8  11
ATOM     11  C   UNL     1      31.872 -23.302 -13.195  0.00  0.00    +0.117 C 
BRANCH  11  12
ATOM     12  C   UNL     1      30.832 -23.902 -14.097  0.00  0.00    -0.003 C 
ATOM     13  C   UNL     1      30.045 -23.072 -14.885  0.00  0.00    -0.007 C 
ATOM     14  C   UNL     1      29.080 -23.629 -15.725  0.00  0.00    -0.022 C 
ATOM     15  C   UNL     1      30.667 -25.282 -14.134  0.00  0.00    -0.003 C 
ATOM     16  C   UNL     1      28.908 -25.013 -15.768  0.00  0.00    -0.004 C 
ATOM     17  C   UNL     1      29.703 -25.839 -14.973  0.00  0.00    -0.001 C 
ATOM     18  C   UNL     1      28.230 -22.746 -16.574  0.00  0.00    +0.031 C 
ENDBRANCH  11  12
ENDBRANCH   8  11
ENDBRANCH   3   9
BRANCH   4  21
ATOM     19  O   UNL     1      37.619 -20.864 -16.582  0.00  0.00    -0.269 OA
ATOM     20  N   UNL     1      36.697 -22.383 -18.074  0.00  0.00    -0.296 N 
ATOM     21  C   UNL     1      37.088 -21.948 -16.815  0.00  0.00    +0.260 C 
ATOM     22  H   UNL     1      36.279 -23.270 -18.159  0.00  0.00    +0.150 HD
BRANCH  20  23
ATOM     23  C   UNL     1      36.878 -21.586 -19.261  0.00  0.00    +0.117 C 
BRANCH  23  24
ATOM     24  C   UNL     1      35.581 -21.187 -19.879  0.00  0.00    -0.003 C 
ATOM     25  C   UNL     1      35.568 -20.321 -20.972  0.00  0.00    -0.007 C 
ATOM     26  C   UNL     1      34.354 -19.947 -21.551  0.00  0.00    -0.022 C 
ATOM     27  C   UNL     1      34.382 -21.679 -19.364  0.00  0.00    -0.003 C 
ATOM     28  C   UNL     1      33.156 -20.440 -21.036  0.00  0.00    -0.004 C 
ATOM     29  C   UNL     1      33.169 -21.306 -19.943  0.00  0.00    -0.001 C 
ATOM     30  C   UNL     1      34.339 -19.020 -22.719  0.00  0.00    +0.031 C 
ENDBRANCH  23  24
ENDBRANCH  20  23
ENDBRANCH   4  21
TORSDOF 6
ENDMDL
MODEL 3
REMARK VINA RESULT:     -11.2      6.894     11.914
REMARK  Name = 5289109
REMARK  6 active torsions:
REMARK  status: ('A' for Active; 'I' for Inactive)
REMARK    1  A    between atoms: C_3  and  C_9
REMARK    2  A    between atoms: C_4  and  C_21
REMARK    3  A    between atoms: N_8  and  C_11
REMARK    4  A    between atoms: C_11  and  C_12
REMARK    5  A    between atoms: N_20  and  C_23
REMARK    6  A    between atoms: C_23  and  C_24
REMARK                            x       y       z     vdW  Elec       q    Type
REMARK                         _______ _______ _______ _____ _____    ______ ____
ROOT
ATOM      1  N   UNL     1      34.560 -17.776 -24.472  0.00  0.00    -0.244 NA
ATOM      2  N   UNL     1      33.518 -16.061 -25.805  0.00  0.00    -0.244 NA
ATOM      3  C   UNL     1      34.837 -16.835 -23.546  0.00  0.00    +0.115 C 
ATOM      4  C   UNL     1      33.836 -15.203 -24.833  0.00  0.00    +0.115 C 
ATOM      5  C   UNL     1      34.493 -15.504 -23.677  0.00  0.00    +0.100 C 
ATOM      6  C   UNL     1      33.908 -17.326 -25.561  0.00  0.00    +0.250 C 
ENDROOT
BRANCH   3   9
ATOM      7  O   UNL     1      35.414 -16.705 -21.276  0.00  0.00    -0.269 OA
ATOM      8  N   UNL     1      36.336 -18.443 -22.503  0.00  0.00    -0.296 N 
ATOM      9  C   UNL     1      35.541 -17.299 -22.362  0.00  0.00    +0.260 C 
ATOM     10  H   UNL     1      36.394 -18.864 -23.391  0.00  0.00    +0.150 HD
BRANCH   8  11
ATOM     11  C   UNL     1      37.078 -19.041 -21.416  0.00  0.00    +0.117 C 
BRANCH  11  12
ATOM     12  C   UNL     1      36.265 -20.062 -20.675  0.00  0.00    -0.003 C 
ATOM     13  C   UNL     1      34.887 -20.100 -20.847  0.00  0.00    -0.007 C 
ATOM     14  C   UNL     1      34.131 -21.050 -20.161  0.00  0.00    -0.022 C 
ATOM     15  C   UNL     1      36.899 -20.961 -19.825  0.00  0.00    -0.003 C 
ATOM     16  C   UNL     1      34.759 -21.956 -19.306  0.00  0.00    -0.004 C 
ATOM     17  C   UNL     1      36.144 -21.911 -19.139  0.00  0.00    -0.001 C 
ATOM     18  C   UNL     1      32.651 -21.097 -20.338  0.00  0.00    +0.031 C 
ENDBRANCH  11  12
ENDBRANCH   8  11
ENDBRANCH   3   9
BRANCH   4  21
ATOM     19  O   UNL     1      32.733 -13.547 -26.074  0.00  0.00    -0.269 OA
ATOM     20  N   UNL     1      33.819 -12.867 -24.140  0.00  0.00    -0.296 N 
ATOM     21  C   UNL     1      33.416 -13.802 -25.084  0.00  0.00    +0.260 C 
ATOM     22  H   UNL     1      34.366 -13.169 -23.379  0.00  0.00    +0.150 HD
BRANCH  20  23
ATOM     23  C   UNL     1      33.469 -11.472 -24.231  0.00  0.00    +0.117 C 
BRANCH  23  24
ATOM     24  C   UNL     1      32.789 -10.978 -22.999  0.00  0.00    -0.003 C 
ATOM     25  C   UNL     1      32.742  -9.610 -22.731  0.00  0.00    -0.007 C 
ATOM     26  C   UNL     1      32.105  -9.146 -21.578  0.00  0.00    -0.022 C 
ATOM     27  C   UNL     1      32.200 -11.882 -22.115  0.00  0.00    -0.003 C 
ATOM     28  C   UNL     1      31.517 -10.051 -20.696  0.00  0.00    -0.004 C 
ATOM     29  C   UNL     1      31.564 -11.419 -20.964  0.00  0.00    -0.001 C 
ATOM     30  C   UNL     1      32.055  -7.684 -21.290  0.00  0.00    +0.031 C 
ENDBRANCH  23  24
ENDBRANCH  20  23
ENDBRANCH   4  21
TORSDOF 6
ENDMDL
MODEL 4
REMARK VINA RESULT:     -11.2      6.982     11.007
REMARK  Name = 5289109
REMARK  6 active torsions:
REMARK  status: ('A' for Active; 'I' for Inactive)
REMARK    1  A    between atoms: C_3  and  C_9
REMARK    2  A    between atoms: C_4  and  C_21
REMARK    3  A    between atoms: N_8  and  C_11
REMARK    4  A    between atoms: C_11  and  C_12
REMARK    5  A    between atoms: N_20  and  C_23
REMARK    6  A    between atoms: C_23  and  C_24
REMARK                            x       y       z     vdW  Elec       q    Type
REMARK                         _______ _______ _______ _____ _____    ______ ____
ROOT
ATOM      1  N   UNL     1      33.457 -15.929 -25.830  0.00  0.00    -0.244 NA
ATOM      2  N   UNL     1      34.492 -17.668 -24.522  0.00  0.00    -0.244 NA
ATOM      3  C   UNL     1      33.790 -15.052 -24.860  0.00  0.00    +0.115 C 
ATOM      4  C   UNL     1      34.777 -16.728 -23.618  0.00  0.00    +0.115 C 
ATOM      5  C   UNL     1      34.464 -15.403 -23.707  0.00  0.00    +0.100 C 
ATOM      6  C   UNL     1      33.834 -17.201 -25.599  0.00  0.00    +0.250 C 
ENDROOT
BRANCH   3   9
ATOM      7  O   UNL     1      32.863 -13.337 -26.162  0.00  0.00    -0.269 OA
ATOM      8  N   UNL     1      33.614 -12.766 -24.044  0.00  0.00    -0.296 N 
ATOM      9  C   UNL     1      33.393 -13.674 -25.088  0.00  0.00    +0.260 C 
ATOM     10  H   UNL     1      34.039 -13.098 -23.221  0.00  0.00    +0.150 HD
BRANCH   8  11
ATOM     11  C   UNL     1      33.253 -11.368 -24.110  0.00  0.00    +0.117 C 
BRANCH  11  12
ATOM     12  C   UNL     1      32.651 -10.883 -22.823  0.00  0.00    -0.003 C 
ATOM     13  C   UNL     1      32.684  -9.528 -22.518  0.00  0.00    -0.007 C 
ATOM     14  C   UNL     1      32.122  -9.076 -21.323  0.00  0.00    -0.022 C 
ATOM     15  C   UNL     1      32.066 -11.794 -21.951  0.00  0.00    -0.003 C 
ATOM     16  C   UNL     1      31.533  -9.983 -20.442  0.00  0.00    -0.004 C 
ATOM     17  C   UNL     1      31.505 -11.342 -20.756  0.00  0.00    -0.001 C 
ATOM     18  C   UNL     1      32.153  -7.623 -20.986  0.00  0.00    +0.031 C 
ENDBRANCH  11  12
ENDBRANCH   8  11
ENDBRANCH   3   9
BRANCH   4  21
ATOM     19  O   UNL     1      35.377 -16.626 -21.354  0.00  0.00    -0.269 OA
ATOM     20  N   UNL     1      36.269 -18.365 -22.603  0.00  0.00    -0.296 N 
ATOM     21  C   UNL     1      35.503 -17.222 -22.421  0.00  0.00    +0.260 C 
ATOM     22  H   UNL     1      36.307 -18.772 -23.498  0.00  0.00    +0.150 HD
BRANCH  20  23
ATOM     23  C   UNL     1      37.011 -18.980 -21.531  0.00  0.00    +0.117 C 
BRANCH  23  24
ATOM     24  C   UNL     1      36.203 -19.993 -20.791  0.00  0.00    -0.003 C 
ATOM     25  C   UNL     1      34.815 -20.007 -20.922  0.00  0.00    -0.007 C 
ATOM     26  C   UNL     1      34.059 -20.955 -20.230  0.00  0.00    -0.022 C 
ATOM     27  C   UNL     1      36.836 -20.924 -19.968  0.00  0.00    -0.003 C 
ATOM     28  C   UNL     1      34.693 -21.886 -19.408  0.00  0.00    -0.004 C 
ATOM     29  C   UNL     1      36.081 -21.872 -19.277  0.00  0.00    -0.001 C 
ATOM     30  C   UNL     1      32.574 -20.971 -20.370  0.00  0.00    +0.031 C 
ENDBRANCH  23  24
ENDBRANCH  20  23
ENDBRANCH   4  21
TORSDOF 6
ENDMDL
MODEL 5
REMARK VINA RESULT:     -11.1      6.991     10.543
REMARK  Name = 5289109
REMARK  6 active torsions:
REMARK  status: ('A' for Active; 'I' for Inactive)
REMARK    1  A    between atoms: C_3  and  C_9
REMARK    2  A    between atoms: C_4  and  C_21
REMARK    3  A    between atoms: N_8  and  C_11
REMARK    4  A    between atoms: C_11  and  C_12
REMARK    5  A    between atoms: N_20  and  C_23
REMARK    6  A    between atoms: C_23  and  C_24
REMARK                            x       y       z     vdW  Elec       q    Type
REMARK                         _______ _______ _______ _____ _____    ______ ____
ROOT
ATOM      1  N   UNL     1      34.281 -14.392 -21.445  0.00  0.00    -0.244 NA
ATOM      2  N   UNL     1      35.096 -16.510 -20.634  0.00  0.00    -0.244 NA
ATOM      3  C   UNL     1      34.402 -14.868 -22.701  0.00  0.00    +0.115 C 
ATOM      4  C   UNL     1      35.181 -16.891 -21.911  0.00  0.00    +0.115 C 
ATOM      5  C   UNL     1      34.857 -16.137 -23.000  0.00  0.00    +0.100 C 
ATOM      6  C   UNL     1      34.640 -15.254 -20.474  0.00  0.00    +0.250 C 
ENDROOT
BRANCH   3   9
ATOM      7  O   UNL     1      33.371 -14.360 -24.745  0.00  0.00    -0.269 OA
ATOM      8  N   UNL     1      34.397 -12.613 -23.616  0.00  0.00    -0.296 N 
ATOM      9  C   UNL     1      34.021 -13.955 -23.764  0.00  0.00    +0.260 C 
ATOM     10  H   UNL     1      34.911 -12.359 -22.816  0.00  0.00    +0.150 HD
BRANCH   8  11
ATOM     11  C   UNL     1      34.072 -11.581 -24.574  0.00  0.00    +0.117 C 
BRANCH  11  12
ATOM     12  C   UNL     1      33.661 -10.302 -23.904  0.00  0.00    -0.003 C 
ATOM     13  C   UNL     1      34.316  -9.119 -24.222  0.00  0.00    -0.007 C 
ATOM     14  C   UNL     1      33.933  -7.930 -23.602  0.00  0.00    -0.022 C 
ATOM     15  C   UNL     1      32.629 -10.314 -22.972  0.00  0.00    -0.003 C 
ATOM     16  C   UNL     1      32.899  -7.933 -22.665  0.00  0.00    -0.004 C 
ATOM     17  C   UNL     1      32.247  -9.126 -22.351  0.00  0.00    -0.001 C 
ATOM     18  C   UNL     1      34.631  -6.654 -23.936  0.00  0.00    +0.031 C 
ENDBRANCH  11  12
ENDBRANCH   8  11
ENDBRANCH   3   9
BRANCH   4  21
ATOM     19  O   UNL     1      36.084 -18.613 -23.221  0.00  0.00    -0.269 OA
ATOM     20  N   UNL     1      35.679 -19.090 -20.987  0.00  0.00    -0.296 N 
ATOM     21  C   UNL     1      35.683 -18.274 -22.110  0.00  0.00    +0.260 C 
ATOM     22  H   UNL     1      35.336 -18.727 -20.139  0.00  0.00    +0.150 HD
BRANCH  20  23
ATOM     23  C   UNL     1      36.158 -20.449 -21.015  0.00  0.00    +0.117 C 
BRANCH  23  24
ATOM     24  C   UNL     1      35.681 -21.242 -19.845  0.00  0.00    -0.003 C 
ATOM     25  C   UNL     1      36.555 -21.533 -18.797  0.00  0.00    -0.007 C 
ATOM     26  C   UNL     1      36.110 -22.274 -17.702  0.00  0.00    -0.022 C 
ATOM     27  C   UNL     1      34.362 -21.692 -19.797  0.00  0.00    -0.003 C 
ATOM     28  C   UNL     1      34.790 -22.723 -17.655  0.00  0.00    -0.004 C 
ATOM     29  C   UNL     1      33.916 -22.432 -18.702  0.00  0.00    -0.001 C 
ATOM     30  C   UNL     1      37.044 -22.586 -16.582  0.00  0.00    +0.031 C 
ENDBRANCH  23  24
ENDBRANCH  20  23
ENDBRANCH   4  21
TORSDOF 6
ENDMDL
MODEL 6
REMARK VINA RESULT:     -11.1      6.988     12.244
REMARK  Name = 5289109
REMARK  6 active torsions:
REMARK  status: ('A' for Active; 'I' for Inactive)
REMARK    1  A    between atoms: C_3  and  C_9
REMARK    2  A    between atoms: C_4  and  C_21
REMARK    3  A    between atoms: N_8  and  C_11
REMARK    4  A    between atoms: C_11  and  C_12
REMARK    5  A    between atoms: N_20  and  C_23
REMARK    6  A    between atoms: C_23  and  C_24
REMARK                            x       y       z     vdW  Elec       q    Type
REMARK                         _______ _______ _______ _____ _____    ______ ____
ROOT
ATOM      1  N   UNL     1      35.092 -16.514 -20.648  0.00  0.00    -0.244 NA
ATOM      2  N   UNL     1      34.295 -14.396 -21.476  0.00  0.00    -0.244 NA
ATOM      3  C   UNL     1      35.199 -16.931 -21.926  0.00  0.00    +0.115 C 
ATOM      4  C   UNL     1      34.434 -14.899 -22.705  0.00  0.00    +0.115 C 
ATOM      5  C   UNL     1      34.876 -16.150 -23.018  0.00  0.00    +0.100 C 
ATOM      6  C   UNL     1      34.641 -15.254 -20.498  0.00  0.00    +0.250 C 
ENDROOT
BRANCH   3   9
ATOM      7  O   UNL     1      35.990 -18.703 -23.243  0.00  0.00    -0.269 OA
ATOM      8  N   UNL     1      35.808 -19.081 -20.962  0.00  0.00    -0.296 N 
ATOM      9  C   UNL     1      35.684 -18.288 -22.111  0.00  0.00    +0.260 C 
ATOM     10  H   UNL     1      35.548 -18.691 -20.097  0.00  0.00    +0.150 HD
BRANCH   8  11
ATOM     11  C   UNL     1      36.298 -20.441 -20.979  0.00  0.00    +0.117 C 
BRANCH  11  12
ATOM     12  C   UNL     1      35.771 -21.242 -19.824  0.00  0.00    -0.003 C 
ATOM     13  C   UNL     1      36.610 -21.549 -18.760  0.00  0.00    -0.007 C 
ATOM     14  C   UNL     1      36.119 -22.291 -17.686  0.00  0.00    -0.022 C 
ATOM     15  C   UNL     1      34.447 -21.668 -19.830  0.00  0.00    -0.003 C 
ATOM     16  C   UNL     1      34.793 -22.723 -17.684  0.00  0.00    -0.004 C 
ATOM     17  C   UNL     1      33.957 -22.411 -18.756  0.00  0.00    -0.001 C 
ATOM     18  C   UNL     1      37.013 -22.627 -16.540  0.00  0.00    +0.031 C 
ENDBRANCH  11  12
ENDBRANCH   8  11
ENDBRANCH   3   9
BRANCH   4  21
ATOM     19  O   UNL     1      33.531 -14.418 -24.815  0.00  0.00    -0.269 OA
ATOM     20  N   UNL     1      34.314 -12.624 -23.570  0.00  0.00    -0.296 N 
ATOM     21  C   UNL     1      34.057 -13.969 -23.799  0.00  0.00    +0.260 C 
ATOM     22  H   UNL     1      34.740 -12.361 -22.722  0.00  0.00    +0.150 HD
BRANCH  20  23
ATOM     23  C   UNL     1      33.982 -11.597 -24.526  0.00  0.00    +0.117 C 
BRANCH  23  24
ATOM     24  C   UNL     1      33.615 -10.310 -23.869  0.00  0.00    -0.003 C 
ATOM     25  C   UNL     1      34.292  -9.138 -24.207  0.00  0.00    -0.007 C 
ATOM     26  C   UNL     1      33.948  -7.932 -23.593  0.00  0.00    -0.022 C 
ATOM     27  C   UNL     1      32.595 -10.276 -22.918  0.00  0.00    -0.003 C 
ATOM     28  C   UNL     1      32.928  -7.900 -22.643  0.00  0.00    -0.004 C 
ATOM     29  C   UNL     1      32.251  -9.072 -22.305  0.00  0.00    -0.001 C 
ATOM     30  C   UNL     1      34.672  -6.679 -23.953  0.00  0.00    +0.031 C 
ENDBRANCH  23  24
ENDBRANCH  20  23
ENDBRANCH   4  21
TORSDOF 6
ENDMDL
MODEL 7
REMARK VINA RESULT:     -11.0      8.223     12.112
REMARK  Name = 5289109
REMARK  6 active torsions:
REMARK  status: ('A' for Active; 'I' for Inactive)
REMARK    1  A    between atoms: C_3  and  C_9
REMARK    2  A    between atoms: C_4  and  C_21
REMARK    3  A    between atoms: N_8  and  C_11
REMARK    4  A    between atoms: C_11  and  C_12
REMARK    5  A    between atoms: N_20  and  C_23
REMARK    6  A    between atoms: C_23  and  C_24
REMARK                            x       y       z     vdW  Elec       q    Type
REMARK                         _______ _______ _______ _____ _____    ______ ____
ROOT
ATOM      1  N   UNL     1      32.921 -13.479 -24.121  0.00  0.00    -0.244 NA
ATOM      2  N   UNL     1      34.263 -15.478 -24.049  0.00  0.00    -0.244 NA
ATOM      3  C   UNL     1      33.066 -13.378 -22.783  0.00  0.00    +0.115 C 
ATOM      4  C   UNL     1      34.349 -15.294 -22.730  0.00  0.00    +0.115 C 
ATOM      5  C   UNL     1      33.784 -14.277 -22.020  0.00  0.00    +0.100 C 
ATOM      6  C   UNL     1      33.538 -14.537 -24.681  0.00  0.00    +0.250 C 
ENDROOT
BRANCH   3   9
ATOM      7  O   UNL     1      31.833 -12.368 -21.063  0.00  0.00    -0.269 OA
ATOM      8  N   UNL     1      32.479 -11.017 -22.834  0.00  0.00    -0.296 N 
ATOM      9  C   UNL     1      32.409 -12.243 -22.159  0.00  0.00    +0.260 C 
ATOM     10  H   UNL     1      32.949 -10.987 -23.698  0.00  0.00    +0.150 HD
BRANCH   8  11
ATOM     11  C   UNL     1      31.897  -9.793 -22.331  0.00  0.00    +0.117 C 
BRANCH  11  12
ATOM     12  C   UNL     1      32.570  -8.577 -22.898  0.00  0.00    -0.003 C 
ATOM     13  C   UNL     1      31.821  -7.436 -23.158  0.00  0.00    -0.007 C 
ATOM     14  C   UNL     1      32.447  -6.305 -23.683  0.00  0.00    -0.022 C 
ATOM     15  C   UNL     1      33.936  -8.604 -23.155  0.00  0.00    -0.003 C 
ATOM     16  C   UNL     1      33.817  -6.324 -23.945  0.00  0.00    -0.004 C 
ATOM     17  C   UNL     1      34.561  -7.474 -23.680  0.00  0.00    -0.001 C 
ATOM     18  C   UNL     1      31.651  -5.076 -23.967  0.00  0.00    +0.031 C 
ENDBRANCH  11  12
ENDBRANCH   8  11
ENDBRANCH   3   9
BRANCH   4  21
ATOM     19  O   UNL     1      35.277 -16.239 -20.794  0.00  0.00    -0.269 OA
ATOM     20  N   UNL     1      35.674 -17.339 -22.798  0.00  0.00    -0.296 N 
ATOM     21  C   UNL     1      35.146 -16.323 -22.013  0.00  0.00    +0.260 C 
ATOM     22  H   UNL     1      35.513 -17.319 -23.769  0.00  0.00    +0.150 HD
BRANCH  20  23
ATOM     23  C   UNL     1      36.447 -18.422 -22.246  0.00  0.00    +0.117 C 
BRANCH  23  24
ATOM     24  C   UNL     1      35.604 -19.395 -21.494  0.00  0.00    -0.003 C 
ATOM     25  C   UNL     1      36.183 -20.221 -20.531  0.00  0.00    -0.007 C 
ATOM     26  C   UNL     1      35.394 -21.132 -19.825  0.00  0.00    -0.022 C 
ATOM     27  C   UNL     1      34.236 -19.480 -21.752  0.00  0.00    -0.003 C 
ATOM     28  C   UNL     1      34.027 -21.214 -20.085  0.00  0.00    -0.004 C 
ATOM     29  C   UNL     1      33.447 -20.389 -21.048  0.00  0.00    -0.001 C 
ATOM     30  C   UNL     1      36.013 -22.015 -18.796  0.00  0.00    +0.031 C 
ENDBRANCH  23  24
ENDBRANCH  20  23
ENDBRANCH   4  21
TORSDOF 6
ENDMDL
MODEL 8
REMARK VINA RESULT:     -11.0      8.203     13.180
REMARK  Name = 5289109
REMARK  6 active torsions:
REMARK  status: ('A' for Active; 'I' for Inactive)
REMARK    1  A    between atoms: C_3  and  C_9
REMARK    2  A    between atoms: C_4  and  C_21
REMARK    3  A    between atoms: N_8  and  C_11
REMARK    4  A    between atoms: C_11  and  C_12
REMARK    5  A    between atoms: N_20  and  C_23
REMARK    6  A    between atoms: C_23  and  C_24
REMARK                            x       y       z     vdW  Elec       q    Type
REMARK                         _______ _______ _______ _____ _____    ______ ____
ROOT
ATOM      1  N   UNL     1      34.220 -15.503 -24.029  0.00  0.00    -0.244 NA
ATOM      2  N   UNL     1      32.873 -13.507 -24.101  0.00  0.00    -0.244 NA
ATOM      3  C   UNL     1      34.336 -15.332 -22.696  0.00  0.00    +0.115 C 
ATOM      4  C   UNL     1      33.045 -13.422 -22.781  0.00  0.00    +0.115 C 
ATOM      5  C   UNL     1      33.758 -14.286 -22.004  0.00  0.00    +0.100 C 
ATOM      6  C   UNL     1      33.485 -14.568 -24.660  0.00  0.00    +0.250 C 
ENDROOT
BRANCH   3   9
ATOM      7  O   UNL     1      35.284 -16.262 -20.763  0.00  0.00    -0.269 OA
ATOM      8  N   UNL     1      35.666 -17.368 -22.765  0.00  0.00    -0.296 N 
ATOM      9  C   UNL     1      35.125 -16.331 -21.995  0.00  0.00    +0.260 C 
ATOM     10  H   UNL     1      35.502 -17.363 -23.736  0.00  0.00    +0.150 HD
BRANCH   8  11
ATOM     11  C   UNL     1      36.452 -18.448 -22.212  0.00  0.00    +0.117 C 
BRANCH  11  12
ATOM     12  C   UNL     1      35.605 -19.429 -21.454  0.00  0.00    -0.003 C 
ATOM     13  C   UNL     1      36.192 -20.249 -20.499  0.00  0.00    -0.007 C 
ATOM     14  C   UNL     1      35.405 -21.159 -19.793  0.00  0.00    -0.022 C 
ATOM     15  C   UNL     1      34.242 -19.505 -21.715  0.00  0.00    -0.003 C 
ATOM     16  C   UNL     1      34.036 -21.243 -20.049  0.00  0.00    -0.004 C 
ATOM     17  C   UNL     1      33.455 -20.415 -21.010  0.00  0.00    -0.001 C 
ATOM     18  C   UNL     1      36.027 -22.045 -18.767  0.00  0.00    +0.031 C 
ENDBRANCH  11  12
ENDBRANCH   8  11
ENDBRANCH   3   9
BRANCH   4  21
ATOM     19  O   UNL     1      31.755 -12.420 -21.098  0.00  0.00    -0.269 OA
ATOM     20  N   UNL     1      32.537 -11.038 -22.790  0.00  0.00    -0.296 N 
ATOM     21  C   UNL     1      32.378 -12.257 -22.145  0.00  0.00    +0.260 C 
ATOM     22  H   UNL     1      33.056 -11.009 -23.626  0.00  0.00    +0.150 HD
BRANCH  20  23
ATOM     23  C   UNL     1      31.972  -9.813 -22.283  0.00  0.00    +0.117 C 
BRANCH  23  24
ATOM     24  C   UNL     1      32.619  -8.605 -22.871  0.00  0.00    -0.003 C 
ATOM     25  C   UNL     1      31.859  -7.463 -23.127  0.00  0.00    -0.007 C 
ATOM     26  C   UNL     1      32.464  -6.332 -23.678  0.00  0.00    -0.022 C 
ATOM     27  C   UNL     1      33.982  -8.616 -23.165  0.00  0.00    -0.003 C 
ATOM     28  C   UNL     1      33.827  -6.344 -23.970  0.00  0.00    -0.004 C 
ATOM     29  C   UNL     1      34.587  -7.485 -23.714  0.00  0.00    -0.001 C 
ATOM     30  C   UNL     1      31.653  -5.111 -23.953  0.00  0.00    +0.031 C 
ENDBRANCH  23  24
ENDBRANCH  20  23
ENDBRANCH   4  21
TORSDOF 6
ENDMDL
MODEL 9
REMARK VINA RESULT:     -11.0      2.262      6.130
REMARK  Name = 5289109
REMARK  6 active torsions:
REMARK  status: ('A' for Active; 'I' for Inactive)
REMARK    1  A    between atoms: C_3  and  C_9
REMARK    2  A    between atoms: C_4  and  C_21
REMARK    3  A    between atoms: N_8  and  C_11
REMARK    4  A    between atoms: C_11  and  C_12
REMARK    5  A    between atoms: N_20  and  C_23
REMARK    6  A    between atoms: C_23  and  C_24
REMARK                            x       y       z     vdW  Elec       q    Type
REMARK                         _______ _______ _______ _____ _____    ______ ____
ROOT
ATOM      1  N   UNL     1      30.635 -24.529 -15.202  0.00  0.00    -0.244 NA
ATOM      2  N   UNL     1      31.961 -25.178 -13.298  0.00  0.00    -0.244 NA
ATOM      3  C   UNL     1      31.678 -23.787 -15.629  0.00  0.00    +0.115 C 
ATOM      4  C   UNL     1      32.935 -24.417 -13.800  0.00  0.00    +0.115 C 
ATOM      5  C   UNL     1      32.878 -23.691 -14.953  0.00  0.00    +0.100 C 
ATOM      6  C   UNL     1      30.843 -25.189 -14.047  0.00  0.00    +0.250 C 
ENDROOT
BRANCH   3   9
ATOM      7  O   UNL     1      30.338 -22.688 -17.209  0.00  0.00    -0.269 OA
ATOM      8  N   UNL     1      32.612 -22.806 -17.650  0.00  0.00    -0.296 N 
ATOM      9  C   UNL     1      31.475 -23.067 -16.874  0.00  0.00    +0.260 C 
ATOM     10  H   UNL     1      33.482 -23.134 -17.328  0.00  0.00    +0.150 HD
BRANCH   8  11
ATOM     11  C   UNL     1      32.577 -22.081 -18.900  0.00  0.00    +0.117 C 
BRANCH  11  12
ATOM     12  C   UNL     1      33.949 -21.668 -19.348  0.00  0.00    -0.003 C 
ATOM     13  C   UNL     1      34.087 -20.733 -20.367  0.00  0.00    -0.007 C 
ATOM     14  C   UNL     1      35.362 -20.347 -20.782  0.00  0.00    -0.022 C 
ATOM     15  C   UNL     1      35.068 -22.224 -18.739  0.00  0.00    -0.003 C 
ATOM     16  C   UNL     1      36.490 -20.901 -20.177  0.00  0.00    -0.004 C 
ATOM     17  C   UNL     1      36.343 -21.839 -19.155  0.00  0.00    -0.001 C 
ATOM     18  C   UNL     1      35.520 -19.345 -21.875  0.00  0.00    +0.031 C 
ENDBRANCH  11  12
ENDBRANCH   8  11
ENDBRANCH   3   9
BRANCH   4  21
ATOM     19  O   UNL     1      34.240 -23.650 -12.008  0.00  0.00    -0.269 OA
ATOM     20  N   UNL     1      35.193 -25.243 -13.399  0.00  0.00    -0.296 N 
ATOM     21  C   UNL     1      34.178 -24.389 -12.988  0.00  0.00    +0.260 C 
ATOM     22  H   UNL     1      35.048 -25.798 -14.199  0.00  0.00    +0.150 HD
BRANCH  20  23
ATOM     23  C   UNL     1      36.448 -25.349 -12.700  0.00  0.00    +0.117 C 
BRANCH  23  24
ATOM     24  C   UNL     1      37.619 -25.225 -13.616  0.00  0.00    -0.003 C 
ATOM     25  C   UNL     1      38.742 -26.029 -13.424  0.00  0.00    -0.007 C 
ATOM     26  C   UNL     1      39.838 -25.914 -14.281  0.00  0.00    -0.022 C 
ATOM     27  C   UNL     1      37.591 -24.306 -14.665  0.00  0.00    -0.003 C 
ATOM     28  C   UNL     1      39.808 -24.995 -15.329  0.00  0.00    -0.004 C 
ATOM     29  C   UNL     1      38.685 -24.191 -15.522  0.00  0.00    -0.001 C 
ATOM     30  C   UNL     1      41.039 -26.773 -14.076  0.00  0.00    +0.031 C 
ENDBRANCH  23  24
ENDBRANCH  20  23
ENDBRANCH   4  21
TORSDOF 6
ENDMDL
