MODEL 1
REMARK VINA RESULT:     -11.9      0.000      0.000
REMARK  Name = 24864821
REMARK  5 active torsions:
REMARK  status: ('A' for Active; 'I' for Inactive)
REMARK    1  A    between atoms: C_5  and  C_16
REMARK    2  A    between atoms: C_7  and  C_10
REMARK    3  A    between atoms: C_16  and  O_17
REMARK    4  A    between atoms: O_17  and  C_20
REMARK    5  A    between atoms: C_25  and  O_28
REMARK                            x       y       z     vdW  Elec       q    Type
REMARK                         _______ _______ _______ _____ _____    ______ ____
ROOT
ATOM      1  N   UNL     1      36.350 -23.385 -15.514  0.00  0.00    -0.191 N 
ATOM      2  N   UNL     1      35.018 -23.153 -15.624  0.00  0.00    -0.163 NA
ATOM      3  N   UNL     1      38.515 -23.233 -15.815  0.00  0.00    -0.128 NA
ATOM      4  N   UNL     1      38.278 -24.222 -14.883  0.00  0.00    -0.127 NA
ATOM      5  C   UNL     1      37.352 -22.744 -16.182  0.00  0.00    +0.208 A 
ATOM      6  C   UNL     1      36.977 -24.306 -14.708  0.00  0.00    +0.186 A 
ATOM      7  C   UNL     1      34.287 -23.912 -14.856  0.00  0.00    +0.101 C 
ATOM      8  C   UNL     1      36.161 -25.123 -13.903  0.00  0.00    +0.042 C 
ATOM      9  C   UNL     1      34.831 -24.968 -13.942  0.00  0.00    +0.024 C 
ENDROOT
BRANCH   7  10
ATOM     10  C   UNL     1      32.810 -23.751 -14.882  0.00  0.00    +0.019 C 
ATOM     11  C   UNL     1      32.161 -23.456 -16.080  0.00  0.00    +0.002 C 
ATOM     12  C   UNL     1      32.072 -23.898 -13.707  0.00  0.00    +0.002 C 
ATOM     13  C   UNL     1      30.775 -23.307 -16.105  0.00  0.00    +0.000 C 
ATOM     14  C   UNL     1      30.686 -23.750 -13.732  0.00  0.00    +0.000 C 
ATOM     15  C   UNL     1      30.036 -23.454 -14.930  0.00  0.00    +0.000 C 
ENDBRANCH   7  10
BRANCH   5  16
ATOM     16  C   UNL     1      37.106 -21.648 -17.177  0.00  0.00    +0.272 C 
BRANCH  16  17
ATOM     17  O   UNL     1      36.858 -22.228 -18.456  0.00  0.00    -0.467 OA
BRANCH  17  20
ATOM     18  N   UNL     1      33.398 -21.045 -20.411  0.00  0.00    -0.248 NA
ATOM     19  C   UNL     1      35.767 -20.786 -20.055  0.00  0.00    +0.030 C 
ATOM     20  C   UNL     1      35.733 -21.822 -19.111  0.00  0.00    +0.138 C 
ATOM     21  C   UNL     1      34.560 -20.425 -20.689  0.00  0.00    +0.066 C 
ATOM     22  C   UNL     1      36.962 -20.117 -20.370  0.00  0.00    +0.059 C 
ATOM     23  C   UNL     1      34.595 -19.396 -21.626  0.00  0.00    +0.109 C 
ATOM     24  C   UNL     1      34.537 -22.463 -18.822  0.00  0.00    +0.057 C 
ATOM     25  C   UNL     1      35.782 -18.730 -21.939  0.00  0.00    +0.118 C 
ATOM     26  C   UNL     1      36.968 -19.091 -21.310  0.00  0.00    +0.011 C 
ATOM     27  C   UNL     1      33.407 -22.041 -19.494  0.00  0.00    +0.102 C 
BRANCH  25  28
ATOM     28  O   UNL     1      35.777 -17.730 -22.862  0.00  0.00    -0.476 OA
ATOM     29  C   UNL     1      34.909 -17.886 -23.984  0.00  0.00    +0.252 C 
ENDBRANCH  25  28
ENDBRANCH  17  20
ENDBRANCH  16  17
ENDBRANCH   5  16
TORSDOF 5
ENDMDL
MODEL 2
REMARK VINA RESULT:     -11.7      6.500     11.002
REMARK  Name = 24864821
REMARK  5 active torsions:
REMARK  status: ('A' for Active; 'I' for Inactive)
REMARK    1  A    between atoms: C_5  and  C_16
REMARK    2  A    between atoms: C_7  and  C_10
REMARK    3  A    between atoms: C_16  and  O_17
REMARK    4  A    between atoms: O_17  and  C_20
REMARK    5  A    between atoms: C_25  and  O_28
REMARK                            x       y       z     vdW  Elec       q    Type
REMARK                         _______ _______ _______ _____ _____    ______ ____
ROOT
ATOM      1  N   UNL     1      34.204 -16.606 -24.263  0.00  0.00    -0.191 N 
ATOM      2  N   UNL     1      34.732 -17.183 -23.155  0.00  0.00    -0.163 NA
ATOM      3  N   UNL     1      33.429 -15.095 -25.647  0.00  0.00    -0.128 NA
ATOM      4  N   UNL     1      33.369 -16.323 -26.273  0.00  0.00    -0.127 NA
ATOM      5  C   UNL     1      33.929 -15.283 -24.447  0.00  0.00    +0.208 A 
ATOM      6  C   UNL     1      33.836 -17.223 -25.435  0.00  0.00    +0.186 A 
ATOM      7  C   UNL     1      34.896 -18.472 -23.261  0.00  0.00    +0.101 C 
ATOM      8  C   UNL     1      34.009 -18.619 -25.514  0.00  0.00    +0.042 C 
ATOM      9  C   UNL     1      34.525 -19.278 -24.468  0.00  0.00    +0.024 C 
ENDROOT
BRANCH   7  10
ATOM     10  C   UNL     1      35.473 -19.221 -22.113  0.00  0.00    +0.019 C 
ATOM     11  C   UNL     1      34.700 -20.165 -21.437  0.00  0.00    +0.002 C 
ATOM     12  C   UNL     1      36.787 -18.980 -21.713  0.00  0.00    +0.002 C 
ATOM     13  C   UNL     1      35.242 -20.868 -20.362  0.00  0.00    +0.000 C 
ATOM     14  C   UNL     1      37.329 -19.683 -20.638  0.00  0.00    +0.000 C 
ATOM     15  C   UNL     1      36.556 -20.627 -19.961  0.00  0.00    +0.000 C 
ENDBRANCH   7  10
BRANCH   5  16
ATOM     16  C   UNL     1      34.184 -14.238 -23.400  0.00  0.00    +0.272 C 
BRANCH  16  17
ATOM     17  O   UNL     1      33.934 -12.950 -23.959  0.00  0.00    -0.467 OA
BRANCH  17  20
ATOM     18  N   UNL     1      31.609 -10.392 -21.669  0.00  0.00    -0.248 NA
ATOM     19  C   UNL     1      33.385 -10.704 -23.266  0.00  0.00    +0.030 C 
ATOM     20  C   UNL     1      33.181 -12.089 -23.215  0.00  0.00    +0.138 C 
ATOM     21  C   UNL     1      32.566  -9.881 -22.466  0.00  0.00    +0.066 C 
ATOM     22  C   UNL     1      34.375 -10.135 -24.086  0.00  0.00    +0.059 C 
ATOM     23  C   UNL     1      32.769  -8.505 -22.517  0.00  0.00    +0.109 C 
ATOM     24  C   UNL     1      32.196 -12.619 -22.394  0.00  0.00    +0.057 C 
ATOM     25  C   UNL     1      33.753  -7.940 -23.333  0.00  0.00    +0.118 C 
ATOM     26  C   UNL     1      34.557  -8.757 -24.118  0.00  0.00    +0.011 C 
ATOM     27  C   UNL     1      31.443 -11.734 -21.648  0.00  0.00    +0.102 C 
BRANCH  25  28
ATOM     28  O   UNL     1      33.922  -6.590 -23.358  0.00  0.00    -0.476 OA
ATOM     29  C   UNL     1      34.332  -6.010 -24.596  0.00  0.00    +0.252 C 
ENDBRANCH  25  28
ENDBRANCH  17  20
ENDBRANCH  16  17
ENDBRANCH   5  16
TORSDOF 5
ENDMDL
MODEL 3
REMARK VINA RESULT:     -11.7      6.670     11.323
REMARK  Name = 24864821
REMARK  5 active torsions:
REMARK  status: ('A' for Active; 'I' for Inactive)
REMARK    1  A    between atoms: C_5  and  C_16
REMARK    2  A    between atoms: C_7  and  C_10
REMARK    3  A    between atoms: C_16  and  O_17
REMARK    4  A    between atoms: O_17  and  C_20
REMARK    5  A    between atoms: C_25  and  O_28
REMARK                            x       y       z     vdW  Elec       q    Type
REMARK                         _______ _______ _______ _____ _____    ______ ____
ROOT
ATOM      1  N   UNL     1      34.088 -16.475 -24.420  0.00  0.00    -0.191 N 
ATOM      2  N   UNL     1      34.638 -17.032 -23.313  0.00  0.00    -0.163 NA
ATOM      3  N   UNL     1      33.268 -14.992 -25.810  0.00  0.00    -0.128 NA
ATOM      4  N   UNL     1      33.230 -16.227 -26.425  0.00  0.00    -0.127 NA
ATOM      5  C   UNL     1      33.783 -15.160 -24.613  0.00  0.00    +0.208 A 
ATOM      6  C   UNL     1      33.724 -17.110 -25.585  0.00  0.00    +0.186 A 
ATOM      7  C   UNL     1      34.830 -18.318 -23.410  0.00  0.00    +0.101 C 
ATOM      8  C   UNL     1      33.926 -18.502 -25.655  0.00  0.00    +0.042 C 
ATOM      9  C   UNL     1      34.466 -19.141 -24.608  0.00  0.00    +0.024 C 
ENDROOT
BRANCH   7  10
ATOM     10  C   UNL     1      35.432 -19.045 -22.262  0.00  0.00    +0.019 C 
ATOM     11  C   UNL     1      34.699 -20.026 -21.595  0.00  0.00    +0.002 C 
ATOM     12  C   UNL     1      36.731 -18.746 -21.852  0.00  0.00    +0.002 C 
ATOM     13  C   UNL     1      35.265 -20.709 -20.519  0.00  0.00    +0.000 C 
ATOM     14  C   UNL     1      37.297 -19.429 -20.776  0.00  0.00    +0.000 C 
ATOM     15  C   UNL     1      36.564 -20.410 -20.108  0.00  0.00    +0.000 C 
ENDBRANCH   7  10
BRANCH   5  16
ATOM     16  C   UNL     1      34.023 -14.102 -23.576  0.00  0.00    +0.272 C 
BRANCH  16  17
ATOM     17  O   UNL     1      33.057 -13.065 -23.737  0.00  0.00    -0.467 OA
BRANCH  17  20
ATOM     18  N   UNL     1      34.545  -9.228 -24.238  0.00  0.00    -0.248 NA
ATOM     19  C   UNL     1      33.076 -10.744 -23.077  0.00  0.00    +0.030 C 
ATOM     20  C   UNL     1      33.532 -11.795 -23.884  0.00  0.00    +0.138 C 
ATOM     21  C   UNL     1      33.617  -9.459 -23.291  0.00  0.00    +0.066 C 
ATOM     22  C   UNL     1      32.108 -10.948 -22.078  0.00  0.00    +0.059 C 
ATOM     23  C   UNL     1      33.164  -8.415 -22.489  0.00  0.00    +0.109 C 
ATOM     24  C   UNL     1      34.488 -11.560 -24.861  0.00  0.00    +0.057 C 
ATOM     25  C   UNL     1      32.202  -8.618 -21.497  0.00  0.00    +0.118 C 
ATOM     26  C   UNL     1      31.673  -9.887 -21.291  0.00  0.00    +0.011 C 
ATOM     27  C   UNL     1      34.959 -10.269 -24.996  0.00  0.00    +0.102 C 
BRANCH  25  28
ATOM     28  O   UNL     1      31.784  -7.574 -20.731  0.00  0.00    -0.476 OA
ATOM     29  C   UNL     1      32.086  -6.261 -21.204  0.00  0.00    +0.252 C 
ENDBRANCH  25  28
ENDBRANCH  17  20
ENDBRANCH  16  17
ENDBRANCH   5  16
TORSDOF 5
ENDMDL
MODEL 4
REMARK VINA RESULT:     -11.4      7.024     12.599
REMARK  Name = 24864821
REMARK  5 active torsions:
REMARK  status: ('A' for Active; 'I' for Inactive)
REMARK    1  A    between atoms: C_5  and  C_16
REMARK    2  A    between atoms: C_7  and  C_10
REMARK    3  A    between atoms: C_16  and  O_17
REMARK    4  A    between atoms: O_17  and  C_20
REMARK    5  A    between atoms: C_25  and  O_28
REMARK                            x       y       z     vdW  Elec       q    Type
REMARK                         _______ _______ _______ _____ _____    ______ ____
ROOT
ATOM      1  N   UNL     1      32.651 -11.935 -22.273  0.00  0.00    -0.191 N 
ATOM      2  N   UNL     1      32.961 -10.834 -23.001  0.00  0.00    -0.163 NA
ATOM      3  N   UNL     1      32.508 -14.024 -21.627  0.00  0.00    -0.128 NA
ATOM      4  N   UNL     1      31.864 -13.239 -20.692  0.00  0.00    -0.127 NA
ATOM      5  C   UNL     1      32.971 -13.229 -22.564  0.00  0.00    +0.208 A 
ATOM      6  C   UNL     1      31.956 -11.988 -21.087  0.00  0.00    +0.186 A 
ATOM      7  C   UNL     1      32.534  -9.719 -22.476  0.00  0.00    +0.101 C 
ATOM      8  C   UNL     1      31.491 -10.770 -20.554  0.00  0.00    +0.042 C 
ATOM      9  C   UNL     1      31.750  -9.627 -21.203  0.00  0.00    +0.024 C 
ENDROOT
BRANCH   7  10
ATOM     10  C   UNL     1      32.815  -8.440 -23.179  0.00  0.00    +0.019 C 
ATOM     11  C   UNL     1      31.764  -7.681 -23.693  0.00  0.00    +0.002 C 
ATOM     12  C   UNL     1      34.130  -7.997 -23.323  0.00  0.00    +0.002 C 
ATOM     13  C   UNL     1      32.028  -6.480 -24.350  0.00  0.00    +0.000 C 
ATOM     14  C   UNL     1      34.394  -6.796 -23.980  0.00  0.00    +0.000 C 
ATOM     15  C   UNL     1      33.343  -6.037 -24.495  0.00  0.00    +0.000 C 
ENDBRANCH   7  10
BRANCH   5  16
ATOM     16  C   UNL     1      33.743 -13.628 -23.788  0.00  0.00    +0.272 C 
BRANCH  16  17
ATOM     17  O   UNL     1      34.751 -14.566 -23.417  0.00  0.00    -0.467 OA
BRANCH  17  20
ATOM     18  N   UNL     1      34.240 -18.440 -24.804  0.00  0.00    -0.248 NA
ATOM     19  C   UNL     1      34.891 -16.944 -23.031  0.00  0.00    +0.030 C 
ATOM     20  C   UNL     1      34.591 -15.849 -23.852  0.00  0.00    +0.138 C 
ATOM     21  C   UNL     1      34.699 -18.240 -23.555  0.00  0.00    +0.066 C 
ATOM     22  C   UNL     1      35.372 -16.773 -21.722  0.00  0.00    +0.059 C 
ATOM     23  C   UNL     1      34.998 -19.327 -22.739  0.00  0.00    +0.109 C 
ATOM     24  C   UNL     1      34.118 -16.051 -25.141  0.00  0.00    +0.057 C 
ATOM     25  C   UNL     1      35.475 -19.157 -21.437  0.00  0.00    +0.118 C 
ATOM     26  C   UNL     1      35.663 -17.878 -20.928  0.00  0.00    +0.011 C 
ATOM     27  C   UNL     1      33.961 -17.356 -25.565  0.00  0.00    +0.102 C 
BRANCH  25  28
ATOM     28  O   UNL     1      35.755 -20.245 -20.669  0.00  0.00    -0.476 OA
ATOM     29  C   UNL     1      34.646 -21.017 -20.208  0.00  0.00    +0.252 C 
ENDBRANCH  25  28
ENDBRANCH  17  20
ENDBRANCH  16  17
ENDBRANCH   5  16
TORSDOF 5
ENDMDL
MODEL 5
REMARK VINA RESULT:     -11.3      4.584     10.577
REMARK  Name = 24864821
REMARK  5 active torsions:
REMARK  status: ('A' for Active; 'I' for Inactive)
REMARK    1  A    between atoms: C_5  and  C_16
REMARK    2  A    between atoms: C_7  and  C_10
REMARK    3  A    between atoms: C_16  and  O_17
REMARK    4  A    between atoms: O_17  and  C_20
REMARK    5  A    between atoms: C_25  and  O_28
REMARK                            x       y       z     vdW  Elec       q    Type
REMARK                         _______ _______ _______ _____ _____    ______ ____
ROOT
ATOM      1  N   UNL     1      34.138 -15.677 -24.286  0.00  0.00    -0.191 N 
ATOM      2  N   UNL     1      33.836 -14.672 -23.427  0.00  0.00    -0.163 NA
ATOM      3  N   UNL     1      34.901 -17.572 -25.079  0.00  0.00    -0.128 NA
ATOM      4  N   UNL     1      34.303 -16.882 -26.114  0.00  0.00    -0.127 NA
ATOM      5  C   UNL     1      34.793 -16.838 -23.995  0.00  0.00    +0.208 A 
ATOM      6  C   UNL     1      33.848 -15.747 -25.629  0.00  0.00    +0.186 A 
ATOM      7  C   UNL     1      33.193 -13.682 -23.980  0.00  0.00    +0.101 C 
ATOM      8  C   UNL     1      33.169 -14.655 -26.203  0.00  0.00    +0.042 C 
ATOM      9  C   UNL     1      32.827 -13.614 -25.431  0.00  0.00    +0.024 C 
ENDROOT
BRANCH   7  10
ATOM     10  C   UNL     1      32.801 -12.520 -23.140  0.00  0.00    +0.019 C 
ATOM     11  C   UNL     1      33.102 -11.224 -23.557  0.00  0.00    +0.002 C 
ATOM     12  C   UNL     1      32.130 -12.727 -21.935  0.00  0.00    +0.002 C 
ATOM     13  C   UNL     1      32.732 -10.135 -22.769  0.00  0.00    +0.000 C 
ATOM     14  C   UNL     1      31.760 -11.637 -21.147  0.00  0.00    +0.000 C 
ATOM     15  C   UNL     1      32.061 -10.340 -21.563  0.00  0.00    +0.000 C 
ENDBRANCH   7  10
BRANCH   5  16
ATOM     16  C   UNL     1      35.294 -17.174 -22.621  0.00  0.00    +0.272 C 
BRANCH  16  17
ATOM     17  O   UNL     1      34.649 -18.364 -22.170  0.00  0.00    -0.467 OA
BRANCH  17  20
ATOM     18  N   UNL     1      36.946 -20.895 -19.823  0.00  0.00    -0.248 NA
ATOM     19  C   UNL     1      34.782 -20.235 -20.651  0.00  0.00    +0.030 C 
ATOM     20  C   UNL     1      35.384 -19.208 -21.391  0.00  0.00    +0.138 C 
ATOM     21  C   UNL     1      35.612 -21.066 -19.870  0.00  0.00    +0.066 C 
ATOM     22  C   UNL     1      33.392 -20.442 -20.677  0.00  0.00    +0.059 C 
ATOM     23  C   UNL     1      35.013 -22.085 -19.136  0.00  0.00    +0.109 C 
ATOM     24  C   UNL     1      36.759 -19.029 -21.345  0.00  0.00    +0.057 C 
ATOM     25  C   UNL     1      33.631 -22.292 -19.161  0.00  0.00    +0.118 C 
ATOM     26  C   UNL     1      32.820 -21.469 -19.933  0.00  0.00    +0.011 C 
ATOM     27  C   UNL     1      37.489 -19.893 -20.552  0.00  0.00    +0.102 C 
BRANCH  25  28
ATOM     28  O   UNL     1      33.082 -23.300 -18.431  0.00  0.00    -0.476 OA
ATOM     29  C   UNL     1      33.639 -23.545 -17.139  0.00  0.00    +0.252 C 
ENDBRANCH  25  28
ENDBRANCH  17  20
ENDBRANCH  16  17
ENDBRANCH   5  16
TORSDOF 5
ENDMDL
MODEL 6
REMARK VINA RESULT:     -11.2      8.381     13.907
REMARK  Name = 24864821
REMARK  5 active torsions:
REMARK  status: ('A' for Active; 'I' for Inactive)
REMARK    1  A    between atoms: C_5  and  C_16
REMARK    2  A    between atoms: C_7  and  C_10
REMARK    3  A    between atoms: C_16  and  O_17
REMARK    4  A    between atoms: O_17  and  C_20
REMARK    5  A    between atoms: C_25  and  O_28
REMARK                            x       y       z     vdW  Elec       q    Type
REMARK                         _______ _______ _______ _____ _____    ______ ____
ROOT
ATOM      1  N   UNL     1      32.250 -10.003 -21.757  0.00  0.00    -0.191 N 
ATOM      2  N   UNL     1      32.615  -9.175 -22.768  0.00  0.00    -0.163 NA
ATOM      3  N   UNL     1      31.759 -11.821 -20.636  0.00  0.00    -0.128 NA
ATOM      4  N   UNL     1      31.631 -10.743 -19.785  0.00  0.00    -0.127 NA
ATOM      5  C   UNL     1      32.129 -11.361 -21.810  0.00  0.00    +0.208 A 
ATOM      6  C   UNL     1      31.928  -9.657 -20.466  0.00  0.00    +0.186 A 
ATOM      7  C   UNL     1      32.656  -7.917 -22.429  0.00  0.00    +0.101 C 
ATOM      8  C   UNL     1      31.963  -8.288 -20.134  0.00  0.00    +0.042 C 
ATOM      9  C   UNL     1      32.314  -7.395 -21.067  0.00  0.00    +0.024 C 
ENDROOT
BRANCH   7  10
ATOM     10  C   UNL     1      33.048  -6.910 -23.450  0.00  0.00    +0.019 C 
ATOM     11  C   UNL     1      32.103  -6.006 -23.936  0.00  0.00    +0.002 C 
ATOM     12  C   UNL     1      34.360  -6.868 -23.919  0.00  0.00    +0.002 C 
ATOM     13  C   UNL     1      32.472  -5.061 -24.892  0.00  0.00    +0.000 C 
ATOM     14  C   UNL     1      34.729  -5.922 -24.875  0.00  0.00    +0.000 C 
ATOM     15  C   UNL     1      33.785  -5.018 -25.363  0.00  0.00    +0.000 C 
ENDBRANCH   7  10
BRANCH   5  16
ATOM     16  C   UNL     1      32.394 -12.160 -23.052  0.00  0.00    +0.272 C 
BRANCH  16  17
ATOM     17  O   UNL     1      33.497 -13.033 -22.817  0.00  0.00    -0.467 OA
BRANCH  17  20
ATOM     18  N   UNL     1      33.937 -16.171 -25.491  0.00  0.00    -0.248 NA
ATOM     19  C   UNL     1      34.271 -15.271 -23.281  0.00  0.00    +0.030 C 
ATOM     20  C   UNL     1      33.653 -14.078 -23.679  0.00  0.00    +0.138 C 
ATOM     21  C   UNL     1      34.393 -16.306 -24.232  0.00  0.00    +0.066 C 
ATOM     22  C   UNL     1      34.759 -15.447 -21.975  0.00  0.00    +0.059 C 
ATOM     23  C   UNL     1      35.008 -17.491 -23.836  0.00  0.00    +0.109 C 
ATOM     24  C   UNL     1      33.181 -13.936 -24.976  0.00  0.00    +0.057 C 
ATOM     25  C   UNL     1      35.493 -17.665 -22.538  0.00  0.00    +0.118 C 
ATOM     26  C   UNL     1      35.369 -16.642 -21.606  0.00  0.00    +0.011 C 
ATOM     27  C   UNL     1      33.346 -15.004 -25.836  0.00  0.00    +0.102 C 
BRANCH  25  28
ATOM     28  O   UNL     1      36.086 -18.839 -22.187  0.00  0.00    -0.476 OA
ATOM     29  C   UNL     1      35.450 -19.608 -21.166  0.00  0.00    +0.252 C 
ENDBRANCH  25  28
ENDBRANCH  17  20
ENDBRANCH  16  17
ENDBRANCH   5  16
TORSDOF 5
ENDMDL
MODEL 7
REMARK VINA RESULT:     -10.9      1.838      4.352
REMARK  Name = 24864821
REMARK  5 active torsions:
REMARK  status: ('A' for Active; 'I' for Inactive)
REMARK    1  A    between atoms: C_5  and  C_16
REMARK    2  A    between atoms: C_7  and  C_10
REMARK    3  A    between atoms: C_16  and  O_17
REMARK    4  A    between atoms: O_17  and  C_20
REMARK    5  A    between atoms: C_25  and  O_28
REMARK                            x       y       z     vdW  Elec       q    Type
REMARK                         _______ _______ _______ _____ _____    ______ ____
ROOT
ATOM      1  N   UNL     1      33.707 -23.555 -16.915  0.00  0.00    -0.191 N 
ATOM      2  N   UNL     1      34.905 -24.068 -16.540  0.00  0.00    -0.163 NA
ATOM      3  N   UNL     1      32.126 -22.647 -18.131  0.00  0.00    -0.128 NA
ATOM      4  N   UNL     1      31.613 -22.897 -16.875  0.00  0.00    -0.127 NA
ATOM      5  C   UNL     1      33.378 -23.046 -18.137  0.00  0.00    +0.208 A 
ATOM      6  C   UNL     1      32.567 -23.443 -16.153  0.00  0.00    +0.186 A 
ATOM      7  C   UNL     1      34.933 -24.493 -15.307  0.00  0.00    +0.101 C 
ATOM      8  C   UNL     1      32.633 -23.894 -14.820  0.00  0.00    +0.042 C 
ATOM      9  C   UNL     1      33.776 -24.417 -14.359  0.00  0.00    +0.024 C 
ENDROOT
BRANCH   7  10
ATOM     10  C   UNL     1      36.191 -25.081 -14.778  0.00  0.00    +0.019 C 
ATOM     11  C   UNL     1      36.543 -26.389 -15.109  0.00  0.00    +0.002 C 
ATOM     12  C   UNL     1      37.020 -24.324 -13.950  0.00  0.00    +0.002 C 
ATOM     13  C   UNL     1      37.725 -26.939 -14.614  0.00  0.00    +0.000 C 
ATOM     14  C   UNL     1      38.201 -24.874 -13.455  0.00  0.00    +0.000 C 
ATOM     15  C   UNL     1      38.554 -26.183 -13.785  0.00  0.00    +0.000 C 
ENDBRANCH   7  10
BRANCH   5  16
ATOM     16  C   UNL     1      34.343 -22.978 -19.284  0.00  0.00    +0.272 C 
BRANCH  16  17
ATOM     17  O   UNL     1      34.110 -21.776 -20.016  0.00  0.00    -0.467 OA
BRANCH  17  20
ATOM     18  N   UNL     1      37.426 -19.372 -20.662  0.00  0.00    -0.248 NA
ATOM     19  C   UNL     1      35.192 -20.027 -21.280  0.00  0.00    +0.030 C 
ATOM     20  C   UNL     1      35.190 -20.975 -20.247  0.00  0.00    +0.138 C 
ATOM     21  C   UNL     1      36.347 -19.237 -21.454  0.00  0.00    +0.066 C 
ATOM     22  C   UNL     1      34.083 -19.859 -22.127  0.00  0.00    +0.059 C 
ATOM     23  C   UNL     1      36.349 -18.296 -22.481  0.00  0.00    +0.109 C 
ATOM     24  C   UNL     1      36.301 -21.117 -19.428  0.00  0.00    +0.057 C 
ATOM     25  C   UNL     1      35.247 -18.129 -23.322  0.00  0.00    +0.118 C 
ATOM     26  C   UNL     1      34.112 -18.911 -23.145  0.00  0.00    +0.011 C 
ATOM     27  C   UNL     1      37.385 -20.298 -19.676  0.00  0.00    +0.102 C 
BRANCH  25  28
ATOM     28  O   UNL     1      35.284 -17.198 -24.314  0.00  0.00    -0.476 OA
ATOM     29  C   UNL     1      34.273 -17.278 -25.319  0.00  0.00    +0.252 C 
ENDBRANCH  25  28
ENDBRANCH  17  20
ENDBRANCH  16  17
ENDBRANCH   5  16
TORSDOF 5
ENDMDL
MODEL 8
REMARK VINA RESULT:     -10.9      4.035     10.210
REMARK  Name = 24864821
REMARK  5 active torsions:
REMARK  status: ('A' for Active; 'I' for Inactive)
REMARK    1  A    between atoms: C_5  and  C_16
REMARK    2  A    between atoms: C_7  and  C_10
REMARK    3  A    between atoms: C_16  and  O_17
REMARK    4  A    between atoms: O_17  and  C_20
REMARK    5  A    between atoms: C_25  and  O_28
REMARK                            x       y       z     vdW  Elec       q    Type
REMARK                         _______ _______ _______ _____ _____    ______ ____
ROOT
ATOM      1  N   UNL     1      34.337 -16.455 -24.150  0.00  0.00    -0.191 N 
ATOM      2  N   UNL     1      34.062 -15.343 -23.424  0.00  0.00    -0.163 NA
ATOM      3  N   UNL     1      35.032 -18.462 -24.691  0.00  0.00    -0.128 NA
ATOM      4  N   UNL     1      34.486 -17.877 -25.815  0.00  0.00    -0.127 NA
ATOM      5  C   UNL     1      34.935 -17.599 -23.706  0.00  0.00    +0.208 A 
ATOM      6  C   UNL     1      34.072 -16.675 -25.481  0.00  0.00    +0.186 A 
ATOM      7  C   UNL     1      33.474 -14.401 -24.108  0.00  0.00    +0.101 C 
ATOM      8  C   UNL     1      33.453 -15.632 -26.198  0.00  0.00    +0.042 C 
ATOM      9  C   UNL     1      33.141 -14.493 -25.565  0.00  0.00    +0.024 C 
ENDROOT
BRANCH   7  10
ATOM     10  C   UNL     1      33.116 -13.132 -23.422  0.00  0.00    +0.019 C 
ATOM     11  C   UNL     1      32.352 -13.160 -22.256  0.00  0.00    +0.002 C 
ATOM     12  C   UNL     1      33.547 -11.912 -23.944  0.00  0.00    +0.002 C 
ATOM     13  C   UNL     1      32.018 -11.969 -21.613  0.00  0.00    +0.000 C 
ATOM     14  C   UNL     1      33.214 -10.721 -23.300  0.00  0.00    +0.000 C 
ATOM     15  C   UNL     1      32.448 -10.748 -22.134  0.00  0.00    +0.000 C 
ENDBRANCH   7  10
BRANCH   5  16
ATOM     16  C   UNL     1      35.392 -17.788 -22.289  0.00  0.00    +0.272 C 
BRANCH  16  17
ATOM     17  O   UNL     1      35.677 -19.169 -22.074  0.00  0.00    -0.467 OA
BRANCH  17  20
ATOM     18  N   UNL     1      32.817 -21.326 -19.986  0.00  0.00    -0.248 NA
ATOM     19  C   UNL     1      35.124 -20.707 -20.298  0.00  0.00    +0.030 C 
ATOM     20  C   UNL     1      34.753 -19.888 -21.373  0.00  0.00    +0.138 C 
ATOM     21  C   UNL     1      34.110 -21.418 -19.624  0.00  0.00    +0.066 C 
ATOM     22  C   UNL     1      36.464 -20.827 -19.892  0.00  0.00    +0.059 C 
ATOM     23  C   UNL     1      34.479 -22.233 -18.556  0.00  0.00    +0.109 C 
ATOM     24  C   UNL     1      33.422 -19.791 -21.749  0.00  0.00    +0.057 C 
ATOM     25  C   UNL     1      35.811 -22.352 -18.152  0.00  0.00    +0.118 C 
ATOM     26  C   UNL     1      36.805 -21.648 -18.821  0.00  0.00    +0.011 C 
ATOM     27  C   UNL     1      32.500 -20.525 -21.029  0.00  0.00    +0.102 C 
BRANCH  25  28
ATOM     28  O   UNL     1      36.133 -23.156 -17.103  0.00  0.00    -0.476 OA
ATOM     29  C   UNL     1      37.165 -22.700 -16.229  0.00  0.00    +0.252 C 
ENDBRANCH  25  28
ENDBRANCH  17  20
ENDBRANCH  16  17
ENDBRANCH   5  16
TORSDOF 5
ENDMDL
MODEL 9
REMARK VINA RESULT:     -10.7      8.876     13.901
REMARK  Name = 24864821
REMARK  5 active torsions:
REMARK  status: ('A' for Active; 'I' for Inactive)
REMARK    1  A    between atoms: C_5  and  C_16
REMARK    2  A    between atoms: C_7  and  C_10
REMARK    3  A    between atoms: C_16  and  O_17
REMARK    4  A    between atoms: O_17  and  C_20
REMARK    5  A    between atoms: C_25  and  O_28
REMARK                            x       y       z     vdW  Elec       q    Type
REMARK                         _______ _______ _______ _____ _____    ______ ____
ROOT
ATOM      1  N   UNL     1      32.158 -10.021 -21.656  0.00  0.00    -0.191 N 
ATOM      2  N   UNL     1      32.501  -9.232 -22.705  0.00  0.00    -0.163 NA
ATOM      3  N   UNL     1      31.638 -11.789 -20.470  0.00  0.00    -0.128 NA
ATOM      4  N   UNL     1      31.636 -10.692 -19.633  0.00  0.00    -0.127 NA
ATOM      5  C   UNL     1      31.951 -11.369 -21.675  0.00  0.00    +0.208 A 
ATOM      6  C   UNL     1      31.950  -9.637 -20.352  0.00  0.00    +0.186 A 
ATOM      7  C   UNL     1      32.642  -7.974 -22.394  0.00  0.00    +0.101 C 
ATOM      8  C   UNL     1      32.092  -8.269 -20.049  0.00  0.00    +0.042 C 
ATOM      9  C   UNL     1      32.430  -7.412 -21.021  0.00  0.00    +0.024 C 
ENDROOT
BRANCH   7  10
ATOM     10  C   UNL     1      33.022  -7.008 -23.458  0.00  0.00    +0.019 C 
ATOM     11  C   UNL     1      32.071  -6.125 -23.970  0.00  0.00    +0.002 C 
ATOM     12  C   UNL     1      34.329  -6.984 -23.943  0.00  0.00    +0.002 C 
ATOM     13  C   UNL     1      32.428  -5.218 -24.966  0.00  0.00    +0.000 C 
ATOM     14  C   UNL     1      34.686  -6.076 -24.939  0.00  0.00    +0.000 C 
ATOM     15  C   UNL     1      33.736  -5.193 -25.453  0.00  0.00    +0.000 C 
ENDBRANCH   7  10
BRANCH   5  16
ATOM     16  C   UNL     1      32.078 -12.201 -22.918  0.00  0.00    +0.272 C 
BRANCH  16  17
ATOM     17  O   UNL     1      33.460 -12.437 -23.180  0.00  0.00    -0.467 OA
BRANCH  17  20
ATOM     18  N   UNL     1      35.014 -16.065 -21.909  0.00  0.00    -0.248 NA
ATOM     19  C   UNL     1      34.025 -14.734 -23.657  0.00  0.00    +0.030 C 
ATOM     20  C   UNL     1      33.967 -13.640 -22.784  0.00  0.00    +0.138 C 
ATOM     21  C   UNL     1      34.563 -15.944 -23.171  0.00  0.00    +0.066 C 
ATOM     22  C   UNL     1      33.564 -14.644 -24.982  0.00  0.00    +0.059 C 
ATOM     23  C   UNL     1      34.621 -17.031 -24.040  0.00  0.00    +0.109 C 
ATOM     24  C   UNL     1      34.430 -13.761 -21.481  0.00  0.00    +0.057 C 
ATOM     25  C   UNL     1      34.163 -16.942 -25.356  0.00  0.00    +0.118 C 
ATOM     26  C   UNL     1      33.633 -15.746 -25.828  0.00  0.00    +0.011 C 
ATOM     27  C   UNL     1      34.940 -14.985 -21.097  0.00  0.00    +0.102 C 
BRANCH  25  28
ATOM     28  O   UNL     1      34.237 -18.025 -26.176  0.00  0.00    -0.476 OA
ATOM     29  C   UNL     1      33.943 -19.298 -25.599  0.00  0.00    +0.252 C 
ENDBRANCH  25  28
ENDBRANCH  17  20
ENDBRANCH  16  17
ENDBRANCH   5  16
TORSDOF 5
ENDMDL
