MODEL 1
REMARK VINA RESULT:     -11.4      0.000      0.000
REMARK  Name = 10250490
REMARK  6 active torsions:
REMARK  status: ('A' for Active; 'I' for Inactive)
REMARK    1  A    between atoms: N_2  and  C_18
REMARK    2  A    between atoms: C_3  and  C_6
REMARK    3  A    between atoms: C_5  and  N_12
REMARK    4  A    between atoms: C_18  and  C_19
REMARK    5  A    between atoms: C_19  and  N_21
REMARK    6  A    between atoms: C_22  and  C_26
REMARK                            x       y       z     vdW  Elec       q    Type
REMARK                         _______ _______ _______ _____ _____    ______ ____
ROOT
ATOM      1  O   UNL     1      33.928 -23.953 -18.072  0.00  0.00    -0.270 OA
ATOM      2  N   UNL     1      35.629 -22.843 -16.953  0.00  0.00    -0.299 N 
ATOM      3  C   UNL     1      34.723 -22.999 -18.008  0.00  0.00    +0.246 C 
ATOM      4  H   UNL     1      36.230 -22.063 -16.964  0.00  0.00    +0.150 HD
ENDROOT
BRANCH   3   6
ATOM      5  C   UNL     1      34.826 -20.073 -21.082  0.00  0.00    +0.058 C 
ATOM      6  C   UNL     1      34.759 -21.997 -19.062  0.00  0.00    +0.053 C 
ATOM      7  C   UNL     1      36.017 -20.560 -20.540  0.00  0.00    +0.015 C 
ATOM      8  C   UNL     1      33.602 -20.550 -20.613  0.00  0.00    +0.015 C 
ATOM      9  C   UNL     1      35.983 -21.521 -19.531  0.00  0.00    +0.006 C 
ATOM     10  C   UNL     1      33.568 -21.511 -19.602  0.00  0.00    +0.006 C 
BRANCH   5  12
ATOM     11  O   UNL     1      35.481 -17.281 -20.707  0.00  0.00    -0.269 OA
ATOM     12  N   UNL     1      34.862 -19.073 -22.131  0.00  0.00    -0.233 N 
ATOM     13  C   UNL     1      35.239 -17.740 -21.823  0.00  0.00    +0.257 C 
ATOM     14  C   UNL     1      34.507 -19.406 -23.439  0.00  0.00    +0.072 C 
ATOM     15  C   UNL     1      35.296 -16.783 -22.972  0.00  0.00    +0.059 C 
ATOM     16  C   UNL     1      34.534 -18.523 -24.444  0.00  0.00    +0.017 C 
ATOM     17  C   UNL     1      34.948 -17.174 -24.201  0.00  0.00    +0.006 C 
ENDBRANCH   5  12
ENDBRANCH   3   6
BRANCH   2  18
ATOM     18  C   UNL     1      35.731 -23.766 -15.845  0.00  0.00    +0.111 C 
BRANCH  18  19
ATOM     19  C   UNL     1      34.802 -23.394 -14.701  0.00  0.00    +0.111 C 
BRANCH  19  21
ATOM     20  O   UNL     1      32.840 -24.815 -13.161  0.00  0.00    -0.270 OA
ATOM     21  N   UNL     1      33.419 -23.590 -15.043  0.00  0.00    -0.299 N 
ATOM     22  C   UNL     1      32.539 -24.295 -14.233  0.00  0.00    +0.252 C 
ATOM     23  H   UNL     1      33.084 -23.208 -15.887  0.00  0.00    +0.150 HD
BRANCH  22  26
ATOM     24 CL   UNL     1      27.935 -23.604 -17.116  0.00  0.00    -0.075 Cl
ATOM     25  S   UNL     1      30.686 -23.428 -16.012  0.00  0.00    -0.071 S 
ATOM     26  C   UNL     1      31.149 -24.431 -14.740  0.00  0.00    +0.084 C 
ATOM     27  C   UNL     1      30.208 -25.276 -14.292  0.00  0.00    +0.012 C 
ATOM     28  C   UNL     1      29.003 -25.105 -15.034  0.00  0.00    +0.019 C 
ATOM     29  C   UNL     1      29.125 -24.132 -16.001  0.00  0.00    +0.087 C 
ENDBRANCH  22  26
ENDBRANCH  19  21
ENDBRANCH  18  19
ENDBRANCH   2  18
TORSDOF 6
ENDMDL
MODEL 2
REMARK VINA RESULT:     -11.3      3.259      4.452
REMARK  Name = 10250490
REMARK  6 active torsions:
REMARK  status: ('A' for Active; 'I' for Inactive)
REMARK    1  A    between atoms: N_2  and  C_18
REMARK    2  A    between atoms: C_3  and  C_6
REMARK    3  A    between atoms: C_5  and  N_12
REMARK    4  A    between atoms: C_18  and  C_19
REMARK    5  A    between atoms: C_19  and  N_21
REMARK    6  A    between atoms: C_22  and  C_26
REMARK                            x       y       z     vdW  Elec       q    Type
REMARK                         _______ _______ _______ _____ _____    ______ ____
ROOT
ATOM      1  O   UNL     1      34.137 -24.140 -18.043  0.00  0.00    -0.270 OA
ATOM      2  N   UNL     1      32.418 -22.819 -17.224  0.00  0.00    -0.299 N 
ATOM      3  C   UNL     1      33.464 -23.097 -18.110  0.00  0.00    +0.246 C 
ATOM      4  H   UNL     1      31.925 -21.974 -17.334  0.00  0.00    +0.150 HD
ENDROOT
BRANCH   3   6
ATOM      5  C   UNL     1      34.326 -20.165 -21.056  0.00  0.00    +0.058 C 
ATOM      6  C   UNL     1      33.759 -22.092 -19.119  0.00  0.00    +0.053 C 
ATOM      7  C   UNL     1      33.003 -20.435 -20.705  0.00  0.00    +0.015 C 
ATOM      8  C   UNL     1      35.366 -20.860 -20.437  0.00  0.00    +0.015 C 
ATOM      9  C   UNL     1      32.720 -21.397 -19.737  0.00  0.00    +0.006 C 
ATOM     10  C   UNL     1      35.082 -21.824 -19.469  0.00  0.00    +0.006 C 
BRANCH   5  12
ATOM     11  O   UNL     1      35.548 -17.593 -20.552  0.00  0.00    -0.269 OA
ATOM     12  N   UNL     1      34.620 -19.165 -22.064  0.00  0.00    -0.233 N 
ATOM     13  C   UNL     1      35.261 -17.955 -21.693  0.00  0.00    +0.257 C 
ATOM     14  C   UNL     1      34.258 -19.374 -23.396  0.00  0.00    +0.072 C 
ATOM     15  C   UNL     1      35.570 -16.999 -22.801  0.00  0.00    +0.059 C 
ATOM     16  C   UNL     1      34.515 -18.488 -24.365  0.00  0.00    +0.017 C 
ATOM     17  C   UNL     1      35.198 -17.268 -24.055  0.00  0.00    +0.006 C 
ENDBRANCH   5  12
ENDBRANCH   3   6
BRANCH   2  18
ATOM     18  C   UNL     1      32.020 -23.706 -16.154  0.00  0.00    +0.111 C 
BRANCH  18  19
ATOM     19  C   UNL     1      32.838 -23.488 -14.892  0.00  0.00    +0.111 C 
BRANCH  19  21
ATOM     20  O   UNL     1      35.584 -22.687 -15.130  0.00  0.00    -0.270 OA
ATOM     21  N   UNL     1      33.990 -24.347 -14.841  0.00  0.00    -0.299 N 
ATOM     22  C   UNL     1      35.288 -23.868 -14.967  0.00  0.00    +0.252 C 
ATOM     23  H   UNL     1      33.853 -25.314 -14.713  0.00  0.00    +0.150 HD
BRANCH  22  26
ATOM     24 CL   UNL     1      40.185 -26.281 -14.533  0.00  0.00    -0.075 Cl
ATOM     25  S   UNL     1      37.939 -24.342 -14.651  0.00  0.00    -0.071 S 
ATOM     26  C   UNL     1      36.368 -24.887 -14.919  0.00  0.00    +0.084 C 
ATOM     27  C   UNL     1      36.230 -26.214 -15.068  0.00  0.00    +0.012 C 
ATOM     28  C   UNL     1      37.498 -26.854 -14.958  0.00  0.00    +0.019 C 
ATOM     29  C   UNL     1      38.515 -25.953 -14.731  0.00  0.00    +0.087 C 
ENDBRANCH  22  26
ENDBRANCH  19  21
ENDBRANCH  18  19
ENDBRANCH   2  18
TORSDOF 6
ENDMDL
MODEL 3
REMARK VINA RESULT:     -11.3      2.916      4.058
REMARK  Name = 10250490
REMARK  6 active torsions:
REMARK  status: ('A' for Active; 'I' for Inactive)
REMARK    1  A    between atoms: N_2  and  C_18
REMARK    2  A    between atoms: C_3  and  C_6
REMARK    3  A    between atoms: C_5  and  N_12
REMARK    4  A    between atoms: C_18  and  C_19
REMARK    5  A    between atoms: C_19  and  N_21
REMARK    6  A    between atoms: C_22  and  C_26
REMARK                            x       y       z     vdW  Elec       q    Type
REMARK                         _______ _______ _______ _____ _____    ______ ____
ROOT
ATOM      1  O   UNL     1      34.211 -23.922 -17.783  0.00  0.00    -0.270 OA
ATOM      2  N   UNL     1      32.187 -22.867 -17.382  0.00  0.00    -0.299 N 
ATOM      3  C   UNL     1      33.405 -23.016 -18.054  0.00  0.00    +0.246 C 
ATOM      4  H   UNL     1      31.594 -22.127 -17.648  0.00  0.00    +0.150 HD
ENDROOT
BRANCH   3   6
ATOM      5  C   UNL     1      34.299 -20.163 -21.068  0.00  0.00    +0.058 C 
ATOM      6  C   UNL     1      33.712 -22.039 -19.087  0.00  0.00    +0.053 C 
ATOM      7  C   UNL     1      35.330 -20.862 -20.439  0.00  0.00    +0.015 C 
ATOM      8  C   UNL     1      32.973 -20.404 -20.705  0.00  0.00    +0.015 C 
ATOM      9  C   UNL     1      35.037 -21.800 -19.450  0.00  0.00    +0.006 C 
ATOM     10  C   UNL     1      32.680 -21.341 -19.715  0.00  0.00    +0.006 C 
BRANCH   5  12
ATOM     11  O   UNL     1      35.533 -17.587 -20.614  0.00  0.00    -0.269 OA
ATOM     12  N   UNL     1      34.605 -19.188 -22.096  0.00  0.00    -0.233 N 
ATOM     13  C   UNL     1      35.250 -17.973 -21.748  0.00  0.00    +0.257 C 
ATOM     14  C   UNL     1      34.249 -19.425 -23.425  0.00  0.00    +0.072 C 
ATOM     15  C   UNL     1      35.573 -17.044 -22.876  0.00  0.00    +0.059 C 
ATOM     16  C   UNL     1      34.518 -18.563 -24.412  0.00  0.00    +0.017 C 
ATOM     17  C   UNL     1      35.207 -17.340 -24.126  0.00  0.00    +0.006 C 
ENDBRANCH   5  12
ENDBRANCH   3   6
BRANCH   2  18
ATOM     18  C   UNL     1      31.750 -23.742 -16.317  0.00  0.00    +0.111 C 
BRANCH  18  19
ATOM     19  C   UNL     1      32.178 -23.238 -14.949  0.00  0.00    +0.111 C 
BRANCH  19  21
ATOM     20  O   UNL     1      33.340 -24.686 -12.759  0.00  0.00    -0.270 OA
ATOM     21  N   UNL     1      33.579 -23.454 -14.709  0.00  0.00    -0.299 N 
ATOM     22  C   UNL     1      34.052 -24.171 -13.617  0.00  0.00    +0.252 C 
ATOM     23  H   UNL     1      34.230 -23.077 -15.346  0.00  0.00    +0.150 HD
BRANCH  22  26
ATOM     24 CL   UNL     1      39.309 -25.315 -14.638  0.00  0.00    -0.075 Cl
ATOM     25  S   UNL     1      36.355 -25.033 -14.758  0.00  0.00    -0.071 S 
ATOM     26  C   UNL     1      35.529 -24.281 -13.498  0.00  0.00    +0.084 C 
ATOM     27  C   UNL     1      36.289 -23.844 -12.482  0.00  0.00    +0.012 C 
ATOM     28  C   UNL     1      37.661 -24.137 -12.735  0.00  0.00    +0.019 C 
ATOM     29  C   UNL     1      37.838 -24.782 -13.939  0.00  0.00    +0.087 C 
ENDBRANCH  22  26
ENDBRANCH  19  21
ENDBRANCH  18  19
ENDBRANCH   2  18
TORSDOF 6
ENDMDL
MODEL 4
REMARK VINA RESULT:     -10.5      5.253      9.052
REMARK  Name = 10250490
REMARK  6 active torsions:
REMARK  status: ('A' for Active; 'I' for Inactive)
REMARK    1  A    between atoms: N_2  and  C_18
REMARK    2  A    between atoms: C_3  and  C_6
REMARK    3  A    between atoms: C_5  and  N_12
REMARK    4  A    between atoms: C_18  and  C_19
REMARK    5  A    between atoms: C_19  and  N_21
REMARK    6  A    between atoms: C_22  and  C_26
REMARK                            x       y       z     vdW  Elec       q    Type
REMARK                         _______ _______ _______ _____ _____    ______ ____
ROOT
ATOM      1  O   UNL     1      33.293 -16.110 -26.505  0.00  0.00    -0.270 OA
ATOM      2  N   UNL     1      34.162 -16.748 -24.452  0.00  0.00    -0.299 N 
ATOM      3  C   UNL     1      33.676 -15.803 -25.363  0.00  0.00    +0.246 C 
ATOM      4  H   UNL     1      34.448 -16.435 -23.563  0.00  0.00    +0.150 HD
ENDROOT
BRANCH   3   6
ATOM      5  C   UNL     1      33.620 -11.754 -24.087  0.00  0.00    +0.058 C 
ATOM      6  C   UNL     1      33.656 -14.415 -24.926  0.00  0.00    +0.053 C 
ATOM      7  C   UNL     1      33.452 -12.064 -25.437  0.00  0.00    +0.015 C 
ATOM      8  C   UNL     1      33.806 -12.778 -23.156  0.00  0.00    +0.015 C 
ATOM      9  C   UNL     1      33.470 -13.394 -25.856  0.00  0.00    +0.006 C 
ATOM     10  C   UNL     1      33.824 -14.108 -23.576  0.00  0.00    +0.006 C 
BRANCH   5  12
ATOM     11  O   UNL     1      31.565 -10.542 -22.453  0.00  0.00    -0.269 OA
ATOM     12  N   UNL     1      33.603 -10.372 -23.652  0.00  0.00    -0.233 N 
ATOM     13  C   UNL     1      32.554  -9.907 -22.816  0.00  0.00    +0.257 C 
ATOM     14  C   UNL     1      34.599  -9.486 -24.067  0.00  0.00    +0.072 C 
ATOM     15  C   UNL     1      32.639  -8.480 -22.374  0.00  0.00    +0.059 C 
ATOM     16  C   UNL     1      34.634  -8.204 -23.686  0.00  0.00    +0.017 C 
ATOM     17  C   UNL     1      33.625  -7.691 -22.807  0.00  0.00    +0.006 C 
ENDBRANCH   5  12
ENDBRANCH   3   6
BRANCH   2  18
ATOM     18  C   UNL     1      34.266 -18.159 -24.745  0.00  0.00    +0.111 C 
BRANCH  18  19
ATOM     19  C   UNL     1      35.276 -18.858 -23.850  0.00  0.00    +0.111 C 
BRANCH  19  21
ATOM     20  O   UNL     1      36.306 -19.375 -21.221  0.00  0.00    -0.270 OA
ATOM     21  N   UNL     1      34.638 -19.624 -22.813  0.00  0.00    -0.299 N 
ATOM     22  C   UNL     1      35.215 -19.822 -21.565  0.00  0.00    +0.252 C 
ATOM     23  H   UNL     1      33.756 -20.023 -22.996  0.00  0.00    +0.150 HD
BRANCH  22  26
ATOM     24 CL   UNL     1      33.873 -23.409 -17.651  0.00  0.00    -0.075 Cl
ATOM     25  S   UNL     1      35.307 -21.687 -19.600  0.00  0.00    -0.071 S 
ATOM     26  C   UNL     1      34.440 -20.658 -20.612  0.00  0.00    +0.084 C 
ATOM     27  C   UNL     1      33.106 -20.686 -20.467  0.00  0.00    +0.012 C 
ATOM     28  C   UNL     1      32.744 -21.617 -19.451  0.00  0.00    +0.019 C 
ATOM     29  C   UNL     1      33.844 -22.232 -18.896  0.00  0.00    +0.087 C 
ENDBRANCH  22  26
ENDBRANCH  19  21
ENDBRANCH  18  19
ENDBRANCH   2  18
TORSDOF 6
ENDMDL
MODEL 5
REMARK VINA RESULT:     -10.4      6.617     11.893
REMARK  Name = 10250490
REMARK  6 active torsions:
REMARK  status: ('A' for Active; 'I' for Inactive)
REMARK    1  A    between atoms: N_2  and  C_18
REMARK    2  A    between atoms: C_3  and  C_6
REMARK    3  A    between atoms: C_5  and  N_12
REMARK    4  A    between atoms: C_18  and  C_19
REMARK    5  A    between atoms: C_19  and  N_21
REMARK    6  A    between atoms: C_22  and  C_26
REMARK                            x       y       z     vdW  Elec       q    Type
REMARK                         _______ _______ _______ _____ _____    ______ ____
ROOT
ATOM      1  O   UNL     1      34.121 -16.229 -26.623  0.00  0.00    -0.270 OA
ATOM      2  N   UNL     1      33.235 -14.834 -24.998  0.00  0.00    -0.299 N 
ATOM      3  C   UNL     1      33.909 -15.984 -25.423  0.00  0.00    +0.246 C 
ATOM      4  H   UNL     1      33.101 -14.701 -24.031  0.00  0.00    +0.150 HD
ENDROOT
BRANCH   3   6
ATOM      5  C   UNL     1      35.174 -18.694 -22.411  0.00  0.00    +0.058 C 
ATOM      6  C   UNL     1      34.343 -16.913 -24.392  0.00  0.00    +0.053 C 
ATOM      7  C   UNL     1      34.596 -19.176 -23.586  0.00  0.00    +0.015 C 
ATOM      8  C   UNL     1      35.337 -17.321 -22.227  0.00  0.00    +0.015 C 
ATOM      9  C   UNL     1      34.181 -18.285 -24.576  0.00  0.00    +0.006 C 
ATOM     10  C   UNL     1      34.921 -16.430 -23.217  0.00  0.00    +0.006 C 
BRANCH   5  12
ATOM     11  O   UNL     1      37.883 -18.970 -21.435  0.00  0.00    -0.269 OA
ATOM     12  N   UNL     1      35.604 -19.620 -21.382  0.00  0.00    -0.233 N 
ATOM     13  C   UNL     1      36.959 -19.631 -20.961  0.00  0.00    +0.257 C 
ATOM     14  C   UNL     1      34.699 -20.520 -20.815  0.00  0.00    +0.072 C 
ATOM     15  C   UNL     1      37.308 -20.583 -19.861  0.00  0.00    +0.059 C 
ATOM     16  C   UNL     1      35.042 -21.387 -19.856  0.00  0.00    +0.017 C 
ATOM     17  C   UNL     1      36.386 -21.411 -19.362  0.00  0.00    +0.006 C 
ENDBRANCH   5  12
ENDBRANCH   3   6
BRANCH   2  18
ATOM     18  C   UNL     1      32.722 -13.829 -25.902  0.00  0.00    +0.111 C 
BRANCH  18  19
ATOM     19  C   UNL     1      33.802 -12.860 -26.355  0.00  0.00    +0.111 C 
BRANCH  19  21
ATOM     20  O   UNL     1      34.202 -12.416 -23.547  0.00  0.00    -0.270 OA
ATOM     21  N   UNL     1      33.721 -11.601 -25.665  0.00  0.00    -0.299 N 
ATOM     22  C   UNL     1      33.930 -11.482 -24.296  0.00  0.00    +0.252 C 
ATOM     23  H   UNL     1      33.507 -10.791 -26.183  0.00  0.00    +0.150 HD
BRANCH  22  26
ATOM     24 CL   UNL     1      32.024  -7.121 -21.587  0.00  0.00    -0.075 Cl
ATOM     25  S   UNL     1      32.429  -9.811 -22.777  0.00  0.00    -0.071 S 
ATOM     26  C   UNL     1      33.784 -10.116 -23.730  0.00  0.00    +0.084 C 
ATOM     27  C   UNL     1      34.624  -9.082 -23.896  0.00  0.00    +0.012 C 
ATOM     28  C   UNL     1      34.138  -7.939 -23.195  0.00  0.00    +0.019 C 
ATOM     29  C   UNL     1      32.953  -8.197 -22.543  0.00  0.00    +0.087 C 
ENDBRANCH  22  26
ENDBRANCH  19  21
ENDBRANCH  18  19
ENDBRANCH   2  18
TORSDOF 6
ENDMDL
MODEL 6
REMARK VINA RESULT:     -10.1      6.652     11.846
REMARK  Name = 10250490
REMARK  6 active torsions:
REMARK  status: ('A' for Active; 'I' for Inactive)
REMARK    1  A    between atoms: N_2  and  C_18
REMARK    2  A    between atoms: C_3  and  C_6
REMARK    3  A    between atoms: C_5  and  N_12
REMARK    4  A    between atoms: C_18  and  C_19
REMARK    5  A    between atoms: C_19  and  N_21
REMARK    6  A    between atoms: C_22  and  C_26
REMARK                            x       y       z     vdW  Elec       q    Type
REMARK                         _______ _______ _______ _____ _____    ______ ____
ROOT
ATOM      1  O   UNL     1      34.540 -16.407 -26.205  0.00  0.00    -0.270 OA
ATOM      2  N   UNL     1      33.600 -15.013 -24.609  0.00  0.00    -0.299 N 
ATOM      3  C   UNL     1      34.235 -16.191 -25.020  0.00  0.00    +0.246 C 
ATOM      4  H   UNL     1      33.387 -14.907 -23.653  0.00  0.00    +0.150 HD
ENDROOT
BRANCH   3   6
ATOM      5  C   UNL     1      35.038 -19.094 -22.029  0.00  0.00    +0.058 C 
ATOM      6  C   UNL     1      34.510 -17.185 -23.994  0.00  0.00    +0.053 C 
ATOM      7  C   UNL     1      35.319 -17.748 -21.789  0.00  0.00    +0.015 C 
ATOM      8  C   UNL     1      34.492 -19.484 -23.252  0.00  0.00    +0.015 C 
ATOM      9  C   UNL     1      35.055 -16.794 -22.772  0.00  0.00    +0.006 C 
ATOM     10  C   UNL     1      34.228 -18.530 -24.234  0.00  0.00    +0.006 C 
BRANCH   5  12
ATOM     11  O   UNL     1      33.042 -20.625 -20.602  0.00  0.00    -0.269 OA
ATOM     12  N   UNL     1      35.314 -20.085 -21.007  0.00  0.00    -0.233 N 
ATOM     13  C   UNL     1      34.245 -20.800 -20.408  0.00  0.00    +0.257 C 
ATOM     14  C   UNL     1      36.625 -20.327 -20.591  0.00  0.00    +0.072 C 
ATOM     15  C   UNL     1      34.621 -21.838 -19.399  0.00  0.00    +0.059 C 
ATOM     16  C   UNL     1      36.934 -21.238 -19.661  0.00  0.00    +0.017 C 
ATOM     17  C   UNL     1      35.899 -22.019 -19.054  0.00  0.00    +0.006 C 
ENDBRANCH   5  12
ENDBRANCH   3   6
BRANCH   2  18
ATOM     18  C   UNL     1      33.240 -13.943 -25.511  0.00  0.00    +0.111 C 
BRANCH  18  19
ATOM     19  C   UNL     1      34.090 -12.701 -25.297  0.00  0.00    +0.111 C 
BRANCH  19  21
ATOM     20  O   UNL     1      35.026 -10.070 -24.635  0.00  0.00    -0.270 OA
ATOM     21  N   UNL     1      33.461 -11.766 -24.404  0.00  0.00    -0.299 N 
ATOM     22  C   UNL     1      33.990 -10.508 -24.143  0.00  0.00    +0.252 C 
ATOM     23  H   UNL     1      32.623 -12.028 -23.959  0.00  0.00    +0.150 HD
BRANCH  22  26
ATOM     24 CL   UNL     1      32.277  -6.283 -21.108  0.00  0.00    -0.075 Cl
ATOM     25  S   UNL     1      33.708  -8.062 -23.008  0.00  0.00    -0.071 S 
ATOM     26  C   UNL     1      33.235  -9.669 -23.176  0.00  0.00    +0.084 C 
ATOM     27  C   UNL     1      32.204 -10.057 -22.409  0.00  0.00    +0.012 C 
ATOM     28  C   UNL     1      31.749  -8.965 -21.613  0.00  0.00    +0.019 C 
ATOM     29  C   UNL     1      32.479  -7.819 -21.840  0.00  0.00    +0.087 C 
ENDBRANCH  22  26
ENDBRANCH  19  21
ENDBRANCH  18  19
ENDBRANCH   2  18
TORSDOF 6
ENDMDL
MODEL 7
REMARK VINA RESULT:     -10.0      4.389     10.111
REMARK  Name = 10250490
REMARK  6 active torsions:
REMARK  status: ('A' for Active; 'I' for Inactive)
REMARK    1  A    between atoms: N_2  and  C_18
REMARK    2  A    between atoms: C_3  and  C_6
REMARK    3  A    between atoms: C_5  and  N_12
REMARK    4  A    between atoms: C_18  and  C_19
REMARK    5  A    between atoms: C_19  and  N_21
REMARK    6  A    between atoms: C_22  and  C_26
REMARK                            x       y       z     vdW  Elec       q    Type
REMARK                         _______ _______ _______ _____ _____    ______ ____
ROOT
ATOM      1  O   UNL     1      32.755 -21.987 -19.808  0.00  0.00    -0.270 OA
ATOM      2  N   UNL     1      34.720 -20.812 -20.173  0.00  0.00    -0.299 N 
ATOM      3  C   UNL     1      33.923 -21.724 -19.473  0.00  0.00    +0.246 C 
ATOM      4  H   UNL     1      35.637 -20.651 -19.853  0.00  0.00    +0.150 HD
ENDROOT
BRANCH   3   6
ATOM      5  C   UNL     1      35.644 -23.557 -16.052  0.00  0.00    +0.058 C 
ATOM      6  C   UNL     1      34.513 -22.351 -18.300  0.00  0.00    +0.053 C 
ATOM      7  C   UNL     1      36.421 -22.735 -16.869  0.00  0.00    +0.015 C 
ATOM      8  C   UNL     1      34.301 -23.775 -16.360  0.00  0.00    +0.015 C 
ATOM      9  C   UNL     1      35.855 -22.132 -17.992  0.00  0.00    +0.006 C 
ATOM     10  C   UNL     1      33.736 -23.173 -17.484  0.00  0.00    +0.006 C 
BRANCH   5  12
ATOM     11  O   UNL     1      36.032 -26.401 -15.699  0.00  0.00    -0.269 OA
ATOM     12  N   UNL     1      36.232 -24.184 -14.885  0.00  0.00    -0.233 N 
ATOM     13  C   UNL     1      36.405 -25.592 -14.850  0.00  0.00    +0.257 C 
ATOM     14  C   UNL     1      36.611 -23.414 -13.783  0.00  0.00    +0.072 C 
ATOM     15  C   UNL     1      37.064 -26.151 -13.629  0.00  0.00    +0.059 C 
ATOM     16  C   UNL     1      37.168 -23.942 -12.687  0.00  0.00    +0.017 C 
ATOM     17  C   UNL     1      37.406 -25.353 -12.614  0.00  0.00    +0.006 C 
ENDBRANCH   5  12
ENDBRANCH   3   6
BRANCH   2  18
ATOM     18  C   UNL     1      34.269 -20.091 -21.342  0.00  0.00    +0.111 C 
BRANCH  18  19
ATOM     19  C   UNL     1      35.403 -19.351 -22.032  0.00  0.00    +0.111 C 
BRANCH  19  21
ATOM     20  O   UNL     1      34.645 -18.803 -24.746  0.00  0.00    -0.270 OA
ATOM     21  N   UNL     1      34.974 -18.085 -22.565  0.00  0.00    -0.299 N 
ATOM     22  C   UNL     1      34.625 -17.914 -23.899  0.00  0.00    +0.252 C 
ATOM     23  H   UNL     1      34.927 -17.310 -21.960  0.00  0.00    +0.150 HD
BRANCH  22  26
ATOM     24 CL   UNL     1      33.779 -12.503 -23.884  0.00  0.00    -0.075 Cl
ATOM     25  S   UNL     1      34.525 -15.296 -23.202  0.00  0.00    -0.071 S 
ATOM     26  C   UNL     1      34.229 -16.539 -24.299  0.00  0.00    +0.084 C 
ATOM     27  C   UNL     1      33.652 -16.172 -25.454  0.00  0.00    +0.012 C 
ATOM     28  C   UNL     1      33.425 -14.764 -25.462  0.00  0.00    +0.019 C 
ATOM     29  C   UNL     1      33.854 -14.164 -24.299  0.00  0.00    +0.087 C 
ENDBRANCH  22  26
ENDBRANCH  19  21
ENDBRANCH  18  19
ENDBRANCH   2  18
TORSDOF 6
ENDMDL
MODEL 8
REMARK VINA RESULT:     -10.0      6.883     11.015
REMARK  Name = 10250490
REMARK  6 active torsions:
REMARK  status: ('A' for Active; 'I' for Inactive)
REMARK    1  A    between atoms: N_2  and  C_18
REMARK    2  A    between atoms: C_3  and  C_6
REMARK    3  A    between atoms: C_5  and  N_12
REMARK    4  A    between atoms: C_18  and  C_19
REMARK    5  A    between atoms: C_19  and  N_21
REMARK    6  A    between atoms: C_22  and  C_26
REMARK                            x       y       z     vdW  Elec       q    Type
REMARK                         _______ _______ _______ _____ _____    ______ ____
ROOT
ATOM      1  O   UNL     1      33.756 -14.518 -22.227  0.00  0.00    -0.270 OA
ATOM      2  N   UNL     1      33.083 -14.316 -24.436  0.00  0.00    -0.299 N 
ATOM      3  C   UNL     1      33.301 -13.817 -23.147  0.00  0.00    +0.246 C 
ATOM      4  H   UNL     1      32.721 -13.705 -25.118  0.00  0.00    +0.150 HD
ENDROOT
BRANCH   3   6
ATOM      5  C   UNL     1      32.271  -9.758 -22.451  0.00  0.00    +0.058 C 
ATOM      6  C   UNL     1      32.948 -12.426 -22.910  0.00  0.00    +0.053 C 
ATOM      7  C   UNL     1      33.215 -10.082 -23.425  0.00  0.00    +0.015 C 
ATOM      8  C   UNL     1      31.664 -10.770 -21.706  0.00  0.00    +0.015 C 
ATOM      9  C   UNL     1      33.553 -11.415 -23.655  0.00  0.00    +0.006 C 
ATOM     10  C   UNL     1      32.003 -12.104 -21.935  0.00  0.00    +0.006 C 
BRANCH   5  12
ATOM     11  O   UNL     1      32.934  -8.252 -20.073  0.00  0.00    -0.269 OA
ATOM     12  N   UNL     1      31.920  -8.372 -22.212  0.00  0.00    -0.233 N 
ATOM     13  C   UNL     1      32.341  -7.732 -21.018  0.00  0.00    +0.257 C 
ATOM     14  C   UNL     1      31.152  -7.666 -23.140  0.00  0.00    +0.072 C 
ATOM     15  C   UNL     1      31.978  -6.288 -20.873  0.00  0.00    +0.059 C 
ATOM     16  C   UNL     1      30.811  -6.383 -22.972  0.00  0.00    +0.017 C 
ATOM     17  C   UNL     1      31.245  -5.674 -21.806  0.00  0.00    +0.006 C 
ENDBRANCH   5  12
ENDBRANCH   3   6
BRANCH   2  18
ATOM     18  C   UNL     1      33.361 -15.681 -24.822  0.00  0.00    +0.111 C 
BRANCH  18  19
ATOM     19  C   UNL     1      34.851 -15.949 -24.951  0.00  0.00    +0.111 C 
BRANCH  19  21
ATOM     20  O   UNL     1      34.138 -18.675 -24.404  0.00  0.00    -0.270 OA
ATOM     21  N   UNL     1      35.346 -16.767 -23.876  0.00  0.00    -0.299 N 
ATOM     22  C   UNL     1      34.942 -18.083 -23.689  0.00  0.00    +0.252 C 
ATOM     23  H   UNL     1      35.998 -16.378 -23.249  0.00  0.00    +0.150 HD
BRANCH  22  26
ATOM     24 CL   UNL     1      35.649 -21.456 -19.433  0.00  0.00    -0.075 Cl
ATOM     25  S   UNL     1      34.593 -19.980 -21.783  0.00  0.00    -0.071 S 
ATOM     26  C   UNL     1      35.526 -18.786 -22.518  0.00  0.00    +0.084 C 
ATOM     27  C   UNL     1      36.733 -18.571 -21.970  0.00  0.00    +0.012 C 
ATOM     28  C   UNL     1      36.929 -19.443 -20.860  0.00  0.00    +0.019 C 
ATOM     29  C   UNL     1      35.843 -20.263 -20.647  0.00  0.00    +0.087 C 
ENDBRANCH  22  26
ENDBRANCH  19  21
ENDBRANCH  18  19
ENDBRANCH   2  18
TORSDOF 6
ENDMDL
MODEL 9
REMARK VINA RESULT:      -9.8      7.743     12.897
REMARK  Name = 10250490
REMARK  6 active torsions:
REMARK  status: ('A' for Active; 'I' for Inactive)
REMARK    1  A    between atoms: N_2  and  C_18
REMARK    2  A    between atoms: C_3  and  C_6
REMARK    3  A    between atoms: C_5  and  N_12
REMARK    4  A    between atoms: C_18  and  C_19
REMARK    5  A    between atoms: C_19  and  N_21
REMARK    6  A    between atoms: C_22  and  C_26
REMARK                            x       y       z     vdW  Elec       q    Type
REMARK                         _______ _______ _______ _____ _____    ______ ____
ROOT
ATOM      1  O   UNL     1      33.938 -15.051 -25.427  0.00  0.00    -0.270 OA
ATOM      2  N   UNL     1      34.222 -13.683 -23.578  0.00  0.00    -0.299 N 
ATOM      3  C   UNL     1      34.226 -14.923 -24.225  0.00  0.00    +0.246 C 
ATOM      4  H   UNL     1      34.461 -13.653 -22.623  0.00  0.00    +0.150 HD
ENDROOT
BRANCH   3   6
ATOM      5  C   UNL     1      35.213 -18.319 -21.876  0.00  0.00    +0.058 C 
ATOM      6  C   UNL     1      34.564 -16.086 -23.419  0.00  0.00    +0.053 C 
ATOM      7  C   UNL     1      35.227 -17.046 -21.304  0.00  0.00    +0.015 C 
ATOM      8  C   UNL     1      34.873 -18.475 -23.220  0.00  0.00    +0.015 C 
ATOM      9  C   UNL     1      34.902 -15.931 -22.076  0.00  0.00    +0.006 C 
ATOM     10  C   UNL     1      34.549 -17.359 -23.992  0.00  0.00    +0.006 C 
BRANCH   5  12
ATOM     11  O   UNL     1      37.890 -19.087 -21.095  0.00  0.00    -0.269 OA
ATOM     12  N   UNL     1      35.552 -19.478 -21.074  0.00  0.00    -0.233 N 
ATOM     13  C   UNL     1      36.904 -19.725 -20.723  0.00  0.00    +0.257 C 
ATOM     14  C   UNL     1      34.558 -20.368 -20.660  0.00  0.00    +0.072 C 
ATOM     15  C   UNL     1      37.161 -20.915 -19.854  0.00  0.00    +0.059 C 
ATOM     16  C   UNL     1      34.817 -21.446 -19.911  0.00  0.00    +0.017 C 
ATOM     17  C   UNL     1      36.159 -21.720 -19.491  0.00  0.00    +0.006 C 
ENDBRANCH   5  12
ENDBRANCH   3   6
BRANCH   2  18
ATOM     18  C   UNL     1      33.886 -12.440 -24.235  0.00  0.00    +0.111 C 
BRANCH  18  19
ATOM     19  C   UNL     1      33.173 -11.473 -23.304  0.00  0.00    +0.111 C 
BRANCH  19  21
ATOM     20  O   UNL     1      32.270  -9.139 -21.898  0.00  0.00    -0.270 OA
ATOM     21  N   UNL     1      33.369 -10.103 -23.698  0.00  0.00    -0.299 N 
ATOM     22  C   UNL     1      32.894  -9.033 -22.951  0.00  0.00    +0.252 C 
ATOM     23  H   UNL     1      33.860  -9.918 -24.532  0.00  0.00    +0.150 HD
BRANCH  22  26
ATOM     24 CL   UNL     1      32.286  -3.833 -24.556  0.00  0.00    -0.075 Cl
ATOM     25  S   UNL     1      31.889  -6.570 -23.476  0.00  0.00    -0.071 S 
ATOM     26  C   UNL     1      33.155  -7.680 -23.506  0.00  0.00    +0.084 C 
ATOM     27  C   UNL     1      34.305  -7.238 -24.039  0.00  0.00    +0.012 C 
ATOM     28  C   UNL     1      34.159  -5.885 -24.462  0.00  0.00    +0.019 C 
ATOM     29  C   UNL     1      32.895  -5.398 -24.215  0.00  0.00    +0.087 C 
ENDBRANCH  22  26
ENDBRANCH  19  21
ENDBRANCH  18  19
ENDBRANCH   2  18
TORSDOF 6
ENDMDL
