MODEL 1
REMARK VINA RESULT:     -11.9      0.000      0.000
REMARK  Name = 107971
REMARK  9 active torsions:
REMARK  status: ('A' for Active; 'I' for Inactive)
REMARK    1  A    between atoms: C_3  and  O_20
REMARK    2  A    between atoms: C_10  and  C_12
REMARK    3  A    between atoms: C_17  and  O_18
REMARK    4  A    between atoms: O_20  and  C_26
REMARK    5  A    between atoms: C_22  and  O_27
REMARK    6  A    between atoms: C_23  and  O_29
REMARK    7  A    between atoms: C_24  and  O_31
REMARK    8  A    between atoms: C_25  and  C_33
REMARK    9  A    between atoms: C_33  and  O_34
REMARK                            x       y       z     vdW  Elec       q    Type
REMARK                         _______ _______ _______ _____ _____    ______ ____
ROOT
ATOM      1  O   UNL     1      36.258 -21.572 -19.157  0.00  0.00    -0.450 OA
ATOM      2  O   UNL     1      32.600 -20.609 -20.687  0.00  0.00    -0.286 OA
ATOM      3  C   UNL     1      34.155 -23.535 -16.921  0.00  0.00    +0.144 C 
ATOM      4  C   UNL     1      35.277 -22.968 -17.525  0.00  0.00    +0.075 C 
ATOM      5  C   UNL     1      32.878 -23.233 -17.395  0.00  0.00    +0.037 C 
ATOM      6  C   UNL     1      35.119 -22.098 -18.604  0.00  0.00    +0.151 C 
ATOM      7  C   UNL     1      33.842 -21.796 -19.077  0.00  0.00    +0.074 C 
ATOM      8  C   UNL     1      32.717 -22.363 -18.474  0.00  0.00    +0.009 C 
ATOM      9  C   UNL     1      33.700 -20.877 -20.221  0.00  0.00    +0.202 C 
ATOM     10  C   UNL     1      34.960 -20.313 -20.779  0.00  0.00    +0.077 C 
ATOM     11  C   UNL     1      36.111 -20.701 -20.210  0.00  0.00    +0.183 C 
ENDROOT
BRANCH  10  12
ATOM     12  C   UNL     1      34.957 -19.355 -21.897  0.00  0.00    +0.006 C 
ATOM     13  C   UNL     1      34.539 -19.759 -23.167  0.00  0.00    +0.003 C 
ATOM     14  C   UNL     1      35.373 -18.037 -21.690  0.00  0.00    +0.003 C 
ATOM     15  C   UNL     1      34.537 -18.850 -24.224  0.00  0.00    +0.037 C 
ATOM     16  C   UNL     1      35.371 -17.129 -22.749  0.00  0.00    +0.037 C 
ATOM     17  C   UNL     1      34.953 -17.535 -24.016  0.00  0.00    +0.134 C 
BRANCH  17  18
ATOM     18  O   UNL     1      34.951 -16.649 -25.049  0.00  0.00    -0.506 OA
ATOM     19  H   UNL     1      34.545 -16.878 -25.861  0.00  0.00    +0.292 HD
ENDBRANCH  17  18
ENDBRANCH  10  12
BRANCH   3  20
ATOM     20  O   UNL     1      34.306 -24.384 -15.866  0.00  0.00    -0.450 OA
BRANCH  20  26
ATOM     21  O   UNL     1      36.467 -24.748 -15.066  0.00  0.00    -0.316 OA
ATOM     22  C   UNL     1      35.681 -24.075 -12.387  0.00  0.00    +0.173 C 
ATOM     23  C   UNL     1      37.014 -24.754 -12.704  0.00  0.00    +0.169 C 
ATOM     24  C   UNL     1      34.663 -24.308 -13.502  0.00  0.00    +0.210 C 
ATOM     25  C   UNL     1      37.479 -24.401 -14.119  0.00  0.00    +0.177 C 
ATOM     26  C   UNL     1      35.263 -24.009 -14.875  0.00  0.00    +0.318 C 
BRANCH  22  27
ATOM     27  O   UNL     1      35.184 -24.626 -11.166  0.00  0.00    -0.379 OA
ATOM     28  H   UNL     1      34.296 -24.278 -10.992  0.00  0.00    +0.211 HD
ENDBRANCH  22  27
BRANCH  23  29
ATOM     29  O   UNL     1      37.997 -24.325 -11.765  0.00  0.00    -0.379 OA
ATOM     30  H   UNL     1      38.437 -23.528 -12.099  0.00  0.00    +0.211 HD
ENDBRANCH  23  29
BRANCH  24  31
ATOM     31  O   UNL     1      33.542 -23.445 -13.307  0.00  0.00    -0.377 OA
ATOM     32  H   UNL     1      32.792 -23.767 -13.832  0.00  0.00    +0.211 HD
ENDBRANCH  24  31
BRANCH  25  33
ATOM     33  C   UNL     1      38.747 -25.158 -14.502  0.00  0.00    +0.169 C 
BRANCH  33  34
ATOM     34  O   UNL     1      39.399 -24.450 -15.540  0.00  0.00    -0.379 OA
ATOM     35  H   UNL     1      39.113 -23.523 -15.527  0.00  0.00    +0.211 HD
ENDBRANCH  33  34
ENDBRANCH  25  33
ENDBRANCH  20  26
ENDBRANCH   3  20
TORSDOF 9
ENDMDL
MODEL 2
REMARK VINA RESULT:     -11.8      1.050      1.981
REMARK  Name = 107971
REMARK  9 active torsions:
REMARK  status: ('A' for Active; 'I' for Inactive)
REMARK    1  A    between atoms: C_3  and  O_20
REMARK    2  A    between atoms: C_10  and  C_12
REMARK    3  A    between atoms: C_17  and  O_18
REMARK    4  A    between atoms: O_20  and  C_26
REMARK    5  A    between atoms: C_22  and  O_27
REMARK    6  A    between atoms: C_23  and  O_29
REMARK    7  A    between atoms: C_24  and  O_31
REMARK    8  A    between atoms: C_25  and  C_33
REMARK    9  A    between atoms: C_33  and  O_34
REMARK                            x       y       z     vdW  Elec       q    Type
REMARK                         _______ _______ _______ _____ _____    ______ ____
ROOT
ATOM      1  O   UNL     1      33.031 -21.461 -19.962  0.00  0.00    -0.450 OA
ATOM      2  O   UNL     1      36.749 -19.920 -20.629  0.00  0.00    -0.286 OA
ATOM      3  C   UNL     1      34.861 -23.189 -17.328  0.00  0.00    +0.144 C 
ATOM      4  C   UNL     1      33.825 -22.761 -18.157  0.00  0.00    +0.075 C 
ATOM      5  C   UNL     1      36.156 -22.704 -17.516  0.00  0.00    +0.037 C 
ATOM      6  C   UNL     1      34.087 -21.846 -19.177  0.00  0.00    +0.151 C 
ATOM      7  C   UNL     1      35.381 -21.361 -19.366  0.00  0.00    +0.074 C 
ATOM      8  C   UNL     1      36.421 -21.789 -18.536  0.00  0.00    +0.009 C 
ATOM      9  C   UNL     1      35.634 -20.392 -20.449  0.00  0.00    +0.202 C 
ATOM     10  C   UNL     1      34.463 -20.017 -21.288  0.00  0.00    +0.077 C 
ATOM     11  C   UNL     1      33.282 -20.573 -20.979  0.00  0.00    +0.183 C 
ENDROOT
BRANCH  10  12
ATOM     12  C   UNL     1      34.585 -19.089 -22.425  0.00  0.00    +0.006 C 
ATOM     13  C   UNL     1      35.153 -17.825 -22.241  0.00  0.00    +0.003 C 
ATOM     14  C   UNL     1      34.133 -19.469 -23.691  0.00  0.00    +0.003 C 
ATOM     15  C   UNL     1      35.267 -16.947 -23.318  0.00  0.00    +0.037 C 
ATOM     16  C   UNL     1      34.247 -18.590 -24.767  0.00  0.00    +0.037 C 
ATOM     17  C   UNL     1      34.814 -17.329 -24.582  0.00  0.00    +0.134 C 
BRANCH  17  18
ATOM     18  O   UNL     1      34.926 -16.471 -25.633  0.00  0.00    -0.506 OA
ATOM     19  H   UNL     1      35.614 -16.586 -26.258  0.00  0.00    +0.292 HD
ENDBRANCH  17  18
ENDBRANCH  10  12
BRANCH   3  20
ATOM     20  O   UNL     1      34.609 -24.084 -16.331  0.00  0.00    -0.450 OA
BRANCH  20  26
ATOM     21  O   UNL     1      36.540 -25.047 -15.446  0.00  0.00    -0.316 OA
ATOM     22  C   UNL     1      35.641 -24.588 -12.757  0.00  0.00    +0.173 C 
ATOM     23  C   UNL     1      36.819 -25.507 -13.081  0.00  0.00    +0.169 C 
ATOM     24  C   UNL     1      34.720 -24.421 -13.965  0.00  0.00    +0.210 C 
ATOM     25  C   UNL     1      37.498 -25.079 -14.385  0.00  0.00    +0.177 C 
ATOM     26  C   UNL     1      35.514 -24.082 -15.227  0.00  0.00    +0.318 C 
BRANCH  22  27
ATOM     27  O   UNL     1      34.909 -25.173 -11.679  0.00  0.00    -0.379 OA
ATOM     28  H   UNL     1      34.647 -26.077 -11.917  0.00  0.00    +0.211 HD
ENDBRANCH  22  27
BRANCH  23  29
ATOM     29  O   UNL     1      37.766 -25.453 -12.018  0.00  0.00    -0.379 OA
ATOM     30  H   UNL     1      38.627 -25.766 -12.335  0.00  0.00    +0.211 HD
ENDBRANCH  23  29
BRANCH  24  31
ATOM     31  O   UNL     1      33.800 -23.358 -13.717  0.00  0.00    -0.377 OA
ATOM     32  H   UNL     1      33.231 -23.592 -12.967  0.00  0.00    +0.211 HD
ENDBRANCH  24  31
BRANCH  25  33
ATOM     33  C   UNL     1      38.603 -26.049 -14.791  0.00  0.00    +0.169 C 
BRANCH  33  34
ATOM     34  O   UNL     1      38.188 -27.364 -14.468  0.00  0.00    -0.379 OA
ATOM     35  H   UNL     1      37.346 -27.554 -14.909  0.00  0.00    +0.211 HD
ENDBRANCH  33  34
ENDBRANCH  25  33
ENDBRANCH  20  26
ENDBRANCH   3  20
TORSDOF 9
ENDMDL
MODEL 3
REMARK VINA RESULT:     -11.0      1.353      2.013
REMARK  Name = 107971
REMARK  9 active torsions:
REMARK  status: ('A' for Active; 'I' for Inactive)
REMARK    1  A    between atoms: C_3  and  O_20
REMARK    2  A    between atoms: C_10  and  C_12
REMARK    3  A    between atoms: C_17  and  O_18
REMARK    4  A    between atoms: O_20  and  C_26
REMARK    5  A    between atoms: C_22  and  O_27
REMARK    6  A    between atoms: C_23  and  O_29
REMARK    7  A    between atoms: C_24  and  O_31
REMARK    8  A    between atoms: C_25  and  C_33
REMARK    9  A    between atoms: C_33  and  O_34
REMARK                            x       y       z     vdW  Elec       q    Type
REMARK                         _______ _______ _______ _____ _____    ______ ____
ROOT
ATOM      1  O   UNL     1      36.672 -20.775 -19.987  0.00  0.00    -0.450 OA
ATOM      2  O   UNL     1      32.831 -20.181 -21.227  0.00  0.00    -0.286 OA
ATOM      3  C   UNL     1      34.972 -23.099 -17.754  0.00  0.00    +0.144 C 
ATOM      4  C   UNL     1      35.976 -22.368 -18.388  0.00  0.00    +0.075 C 
ATOM      5  C   UNL     1      33.638 -22.929 -18.129  0.00  0.00    +0.037 C 
ATOM      6  C   UNL     1      35.643 -21.466 -19.399  0.00  0.00    +0.151 C 
ATOM      7  C   UNL     1      34.311 -21.295 -19.774  0.00  0.00    +0.074 C 
ATOM      8  C   UNL     1      33.303 -22.027 -19.139  0.00  0.00    +0.009 C 
ATOM      9  C   UNL     1      33.984 -20.339 -20.847  0.00  0.00    +0.202 C 
ATOM     10  C   UNL     1      35.128 -19.596 -21.444  0.00  0.00    +0.077 C 
ATOM     11  C   UNL     1      36.353 -19.872 -20.972  0.00  0.00    +0.183 C 
ENDROOT
BRANCH  10  12
ATOM     12  C   UNL     1      34.936 -18.585 -22.497  0.00  0.00    +0.006 C 
ATOM     13  C   UNL     1      35.222 -17.242 -22.240  0.00  0.00    +0.003 C 
ATOM     14  C   UNL     1      34.468 -18.966 -23.757  0.00  0.00    +0.003 C 
ATOM     15  C   UNL     1      35.040 -16.285 -23.238  0.00  0.00    +0.037 C 
ATOM     16  C   UNL     1      34.286 -18.008 -24.754  0.00  0.00    +0.037 C 
ATOM     17  C   UNL     1      34.572 -16.668 -24.495  0.00  0.00    +0.134 C 
BRANCH  17  18
ATOM     18  O   UNL     1      34.394 -15.733 -25.469  0.00  0.00    -0.506 OA
ATOM     19  H   UNL     1      33.572 -15.292 -25.549  0.00  0.00    +0.292 HD
ENDBRANCH  17  18
ENDBRANCH  10  12
BRANCH   3  20
ATOM     20  O   UNL     1      35.293 -23.980 -16.765  0.00  0.00    -0.450 OA
BRANCH  20  26
ATOM     21  O   UNL     1      36.231 -23.691 -14.649  0.00  0.00    -0.316 OA
ATOM     22  C   UNL     1      33.700 -24.140 -13.369  0.00  0.00    +0.173 C 
ATOM     23  C   UNL     1      35.019 -24.138 -12.598  0.00  0.00    +0.169 C 
ATOM     24  C   UNL     1      33.927 -24.429 -14.853  0.00  0.00    +0.210 C 
ATOM     25  C   UNL     1      36.057 -23.257 -13.299  0.00  0.00    +0.177 C 
ATOM     26  C   UNL     1      35.043 -23.555 -15.425  0.00  0.00    +0.318 C 
BRANCH  22  27
ATOM     27  O   UNL     1      32.863 -25.154 -12.811  0.00  0.00    -0.379 OA
ATOM     28  H   UNL     1      32.825 -25.912 -13.415  0.00  0.00    +0.211 HD
ENDBRANCH  22  27
BRANCH  23  29
ATOM     29  O   UNL     1      34.793 -23.642 -11.280  0.00  0.00    -0.379 OA
ATOM     30  H   UNL     1      35.327 -24.149 -10.649  0.00  0.00    +0.211 HD
ENDBRANCH  23  29
BRANCH  24  31
ATOM     31  O   UNL     1      32.729 -24.155 -15.578  0.00  0.00    -0.377 OA
ATOM     32  H   UNL     1      32.584 -23.196 -15.613  0.00  0.00    +0.211 HD
ENDBRANCH  24  31
BRANCH  25  33
ATOM     33  C   UNL     1      37.416 -23.331 -12.611  0.00  0.00    +0.169 C 
BRANCH  33  34
ATOM     34  O   UNL     1      37.401 -22.467 -11.490  0.00  0.00    -0.379 OA
ATOM     35  H   UNL     1      37.525 -21.552 -11.786  0.00  0.00    +0.211 HD
ENDBRANCH  33  34
ENDBRANCH  25  33
ENDBRANCH  20  26
ENDBRANCH   3  20
TORSDOF 9
ENDMDL
MODEL 4
REMARK VINA RESULT:     -10.8      2.701      9.949
REMARK  Name = 107971
REMARK  9 active torsions:
REMARK  status: ('A' for Active; 'I' for Inactive)
REMARK    1  A    between atoms: C_3  and  O_20
REMARK    2  A    between atoms: C_10  and  C_12
REMARK    3  A    between atoms: C_17  and  O_18
REMARK    4  A    between atoms: O_20  and  C_26
REMARK    5  A    between atoms: C_22  and  O_27
REMARK    6  A    between atoms: C_23  and  O_29
REMARK    7  A    between atoms: C_24  and  O_31
REMARK    8  A    between atoms: C_25  and  C_33
REMARK    9  A    between atoms: C_33  and  O_34
REMARK                            x       y       z     vdW  Elec       q    Type
REMARK                         _______ _______ _______ _____ _____    ______ ____
ROOT
ATOM      1  O   UNL     1      32.459 -21.782 -19.104  0.00  0.00    -0.450 OA
ATOM      2  O   UNL     1      35.059 -23.446 -16.437  0.00  0.00    -0.286 OA
ATOM      3  C   UNL     1      35.600 -20.908 -20.728  0.00  0.00    +0.144 C 
ATOM      4  C   UNL     1      34.237 -21.030 -20.463  0.00  0.00    +0.075 C 
ATOM      5  C   UNL     1      36.537 -21.448 -19.845  0.00  0.00    +0.037 C 
ATOM      6  C   UNL     1      33.811 -21.693 -19.312  0.00  0.00    +0.151 C 
ATOM      7  C   UNL     1      34.746 -22.232 -18.430  0.00  0.00    +0.074 C 
ATOM      8  C   UNL     1      36.113 -22.111 -18.693  0.00  0.00    +0.009 C 
ATOM      9  C   UNL     1      34.272 -22.932 -17.221  0.00  0.00    +0.202 C 
ATOM     10  C   UNL     1      32.797 -22.989 -17.024  0.00  0.00    +0.077 C 
ATOM     11  C   UNL     1      32.030 -22.419 -17.965  0.00  0.00    +0.183 C 
ENDROOT
BRANCH  10  12
ATOM     12  C   UNL     1      32.193 -23.624 -15.841  0.00  0.00    +0.006 C 
ATOM     13  C   UNL     1      30.968 -24.286 -15.950  0.00  0.00    +0.003 C 
ATOM     14  C   UNL     1      32.844 -23.567 -14.606  0.00  0.00    +0.003 C 
ATOM     15  C   UNL     1      30.397 -24.888 -14.829  0.00  0.00    +0.037 C 
ATOM     16  C   UNL     1      32.271 -24.167 -13.485  0.00  0.00    +0.037 C 
ATOM     17  C   UNL     1      31.048 -24.828 -13.596  0.00  0.00    +0.134 C 
BRANCH  17  18
ATOM     18  O   UNL     1      30.490 -25.415 -12.502  0.00  0.00    -0.506 OA
ATOM     19  H   UNL     1      29.832 -24.961 -12.013  0.00  0.00    +0.292 HD
ENDBRANCH  17  18
ENDBRANCH  10  12
BRANCH   3  20
ATOM     20  O   UNL     1      36.021 -20.259 -21.851  0.00  0.00    -0.450 OA
BRANCH  20  26
ATOM     21  O   UNL     1      34.894 -19.586 -23.780  0.00  0.00    -0.316 OA
ATOM     22  C   UNL     1      34.939 -16.836 -22.950  0.00  0.00    +0.173 C 
ATOM     23  C   UNL     1      34.577 -17.257 -24.375  0.00  0.00    +0.169 C 
ATOM     24  C   UNL     1      35.765 -17.914 -22.249  0.00  0.00    +0.210 C 
ATOM     25  C   UNL     1      33.984 -18.668 -24.390  0.00  0.00    +0.177 C 
ATOM     26  C   UNL     1      35.125 -19.294 -22.404  0.00  0.00    +0.318 C 
BRANCH  22  27
ATOM     27  O   UNL     1      35.700 -15.629 -23.026  0.00  0.00    -0.379 OA
ATOM     28  H   UNL     1      35.734 -15.326 -23.947  0.00  0.00    +0.211 HD
ENDBRANCH  22  27
BRANCH  23  29
ATOM     29  O   UNL     1      33.624 -16.341 -24.908  0.00  0.00    -0.379 OA
ATOM     30  H   UNL     1      33.044 -16.026 -24.197  0.00  0.00    +0.211 HD
ENDBRANCH  23  29
BRANCH  24  31
ATOM     31  O   UNL     1      35.849 -17.615 -20.856  0.00  0.00    -0.377 OA
ATOM     32  H   UNL     1      36.203 -16.720 -20.738  0.00  0.00    +0.211 HD
ENDBRANCH  24  31
BRANCH  25  33
ATOM     33  C   UNL     1      33.722 -19.155 -25.811  0.00  0.00    +0.169 C 
BRANCH  33  34
ATOM     34  O   UNL     1      32.457 -18.672 -26.227  0.00  0.00    -0.379 OA
ATOM     35  H   UNL     1      32.535 -18.286 -27.113  0.00  0.00    +0.211 HD
ENDBRANCH  33  34
ENDBRANCH  25  33
ENDBRANCH  20  26
ENDBRANCH   3  20
TORSDOF 9
ENDMDL
MODEL 5
REMARK VINA RESULT:     -10.8      1.657      3.273
REMARK  Name = 107971
REMARK  9 active torsions:
REMARK  status: ('A' for Active; 'I' for Inactive)
REMARK    1  A    between atoms: C_3  and  O_20
REMARK    2  A    between atoms: C_10  and  C_12
REMARK    3  A    between atoms: C_17  and  O_18
REMARK    4  A    between atoms: O_20  and  C_26
REMARK    5  A    between atoms: C_22  and  O_27
REMARK    6  A    between atoms: C_23  and  O_29
REMARK    7  A    between atoms: C_24  and  O_31
REMARK    8  A    between atoms: C_25  and  C_33
REMARK    9  A    between atoms: C_33  and  O_34
REMARK                            x       y       z     vdW  Elec       q    Type
REMARK                         _______ _______ _______ _____ _____    ______ ____
ROOT
ATOM      1  O   UNL     1      36.810 -20.568 -20.059  0.00  0.00    -0.450 OA
ATOM      2  O   UNL     1      32.962 -20.484 -21.411  0.00  0.00    -0.286 OA
ATOM      3  C   UNL     1      35.282 -22.785 -17.606  0.00  0.00    +0.144 C 
ATOM      4  C   UNL     1      36.228 -22.036 -18.304  0.00  0.00    +0.075 C 
ATOM      5  C   UNL     1      33.948 -22.786 -18.016  0.00  0.00    +0.037 C 
ATOM      6  C   UNL     1      35.837 -21.285 -19.413  0.00  0.00    +0.151 C 
ATOM      7  C   UNL     1      34.504 -21.286 -19.823  0.00  0.00    +0.074 C 
ATOM      8  C   UNL     1      33.554 -22.036 -19.125  0.00  0.00    +0.009 C 
ATOM      9  C   UNL     1      34.115 -20.488 -21.001  0.00  0.00    +0.202 C 
ATOM     10  C   UNL     1      35.199 -19.709 -21.661  0.00  0.00    +0.077 C 
ATOM     11  C   UNL     1      36.432 -19.813 -21.143  0.00  0.00    +0.183 C 
ENDROOT
BRANCH  10  12
ATOM     12  C   UNL     1      34.939 -18.843 -22.822  0.00  0.00    +0.006 C 
ATOM     13  C   UNL     1      35.190 -17.471 -22.744  0.00  0.00    +0.003 C 
ATOM     14  C   UNL     1      34.441 -19.390 -24.007  0.00  0.00    +0.003 C 
ATOM     15  C   UNL     1      34.944 -16.651 -23.845  0.00  0.00    +0.037 C 
ATOM     16  C   UNL     1      34.194 -18.569 -25.107  0.00  0.00    +0.037 C 
ATOM     17  C   UNL     1      34.445 -17.200 -25.027  0.00  0.00    +0.134 C 
BRANCH  17  18
ATOM     18  O   UNL     1      34.205 -16.399 -26.100  0.00  0.00    -0.506 OA
ATOM     19  H   UNL     1      34.921 -16.037 -26.584  0.00  0.00    +0.292 HD
ENDBRANCH  17  18
ENDBRANCH  10  12
BRANCH   3  20
ATOM     20  O   UNL     1      35.659 -23.518 -16.520  0.00  0.00    -0.450 OA
BRANCH  20  26
ATOM     21  O   UNL     1      33.507 -23.240 -15.664  0.00  0.00    -0.316 OA
ATOM     22  C   UNL     1      34.062 -25.000 -13.463  0.00  0.00    +0.173 C 
ATOM     23  C   UNL     1      32.830 -24.095 -13.499  0.00  0.00    +0.169 C 
ATOM     24  C   UNL     1      35.162 -24.472 -14.384  0.00  0.00    +0.210 C 
ATOM     25  C   UNL     1      32.411 -23.806 -14.943  0.00  0.00    +0.177 C 
ATOM     26  C   UNL     1      34.612 -24.134 -15.770  0.00  0.00    +0.318 C 
BRANCH  22  27
ATOM     27  O   UNL     1      34.545 -25.035 -12.119  0.00  0.00    -0.379 OA
ATOM     28  H   UNL     1      35.162 -25.777 -12.016  0.00  0.00    +0.211 HD
ENDBRANCH  22  27
BRANCH  23  29
ATOM     29  O   UNL     1      31.755 -24.736 -12.816  0.00  0.00    -0.379 OA
ATOM     30  H   UNL     1      31.389 -25.438 -13.377  0.00  0.00    +0.211 HD
ENDBRANCH  23  29
BRANCH  24  31
ATOM     31  O   UNL     1      36.172 -25.470 -14.535  0.00  0.00    -0.377 OA
ATOM     32  H   UNL     1      36.695 -25.282 -15.330  0.00  0.00    +0.211 HD
ENDBRANCH  24  31
BRANCH  25  33
ATOM     33  C   UNL     1      31.255 -22.812 -15.007  0.00  0.00    +0.169 C 
BRANCH  33  34
ATOM     34  O   UNL     1      30.043 -23.520 -14.818  0.00  0.00    -0.379 OA
ATOM     35  H   UNL     1      30.223 -24.350 -14.350  0.00  0.00    +0.211 HD
ENDBRANCH  33  34
ENDBRANCH  25  33
ENDBRANCH  20  26
ENDBRANCH   3  20
TORSDOF 9
ENDMDL
MODEL 6
REMARK VINA RESULT:     -10.5      1.454      2.605
REMARK  Name = 107971
REMARK  9 active torsions:
REMARK  status: ('A' for Active; 'I' for Inactive)
REMARK    1  A    between atoms: C_3  and  O_20
REMARK    2  A    between atoms: C_10  and  C_12
REMARK    3  A    between atoms: C_17  and  O_18
REMARK    4  A    between atoms: O_20  and  C_26
REMARK    5  A    between atoms: C_22  and  O_27
REMARK    6  A    between atoms: C_23  and  O_29
REMARK    7  A    between atoms: C_24  and  O_31
REMARK    8  A    between atoms: C_25  and  C_33
REMARK    9  A    between atoms: C_33  and  O_34
REMARK                            x       y       z     vdW  Elec       q    Type
REMARK                         _______ _______ _______ _____ _____    ______ ____
ROOT
ATOM      1  O   UNL     1      32.715 -21.085 -20.593  0.00  0.00    -0.450 OA
ATOM      2  O   UNL     1      36.519 -19.728 -21.174  0.00  0.00    -0.286 OA
ATOM      3  C   UNL     1      34.429 -23.040 -18.040  0.00  0.00    +0.144 C 
ATOM      4  C   UNL     1      33.424 -22.513 -18.851  0.00  0.00    +0.075 C 
ATOM      5  C   UNL     1      35.750 -22.621 -18.201  0.00  0.00    +0.037 C 
ATOM      6  C   UNL     1      33.744 -21.567 -19.825  0.00  0.00    +0.151 C 
ATOM      7  C   UNL     1      35.065 -21.149 -19.986  0.00  0.00    +0.074 C 
ATOM      8  C   UNL     1      36.073 -21.675 -19.174  0.00  0.00    +0.009 C 
ATOM      9  C   UNL     1      35.378 -20.144 -21.019  0.00  0.00    +0.202 C 
ATOM     10  C   UNL     1      34.235 -19.663 -21.843  0.00  0.00    +0.077 C 
ATOM     11  C   UNL     1      33.023 -20.165 -21.566  0.00  0.00    +0.183 C 
ENDROOT
BRANCH  10  12
ATOM     12  C   UNL     1      34.416 -18.689 -22.933  0.00  0.00    +0.006 C 
ATOM     13  C   UNL     1      34.949 -17.426 -22.664  0.00  0.00    +0.003 C 
ATOM     14  C   UNL     1      34.055 -19.026 -24.240  0.00  0.00    +0.003 C 
ATOM     15  C   UNL     1      35.120 -16.505 -23.698  0.00  0.00    +0.037 C 
ATOM     16  C   UNL     1      34.225 -18.104 -25.272  0.00  0.00    +0.037 C 
ATOM     17  C   UNL     1      34.758 -16.844 -25.002  0.00  0.00    +0.134 C 
BRANCH  17  18
ATOM     18  O   UNL     1      34.925 -15.944 -26.010  0.00  0.00    -0.506 OA
ATOM     19  H   UNL     1      34.645 -16.158 -26.878  0.00  0.00    +0.292 HD
ENDBRANCH  17  18
ENDBRANCH  10  12
BRANCH   3  20
ATOM     20  O   UNL     1      34.121 -23.966 -17.088  0.00  0.00    -0.450 OA
BRANCH  20  26
ATOM     21  O   UNL     1      35.369 -24.332 -15.152  0.00  0.00    -0.316 OA
ATOM     22  C   UNL     1      33.162 -23.568 -13.481  0.00  0.00    +0.173 C 
ATOM     23  C   UNL     1      34.402 -24.273 -12.930  0.00  0.00    +0.169 C 
ATOM     24  C   UNL     1      33.001 -23.822 -14.979  0.00  0.00    +0.210 C 
ATOM     25  C   UNL     1      35.628 -23.968 -13.795  0.00  0.00    +0.177 C 
ATOM     26  C   UNL     1      34.310 -23.572 -15.729  0.00  0.00    +0.318 C 
BRANCH  22  27
ATOM     27  O   UNL     1      32.020 -24.076 -12.788  0.00  0.00    -0.379 OA
ATOM     28  H   UNL     1      31.409 -24.480 -13.424  0.00  0.00    +0.211 HD
ENDBRANCH  22  27
BRANCH  23  29
ATOM     29  O   UNL     1      34.643 -23.828 -11.597  0.00  0.00    -0.379 OA
ATOM     30  H   UNL     1      35.435 -24.266 -11.249  0.00  0.00    +0.211 HD
ENDBRANCH  23  29
BRANCH  24  31
ATOM     31  O   UNL     1      32.009 -22.941 -15.506  0.00  0.00    -0.377 OA
ATOM     32  H   UNL     1      31.490 -23.406 -16.181  0.00  0.00    +0.211 HD
ENDBRANCH  24  31
BRANCH  25  33
ATOM     33  C   UNL     1      36.852 -24.752 -13.333  0.00  0.00    +0.169 C 
BRANCH  33  34
ATOM     34  O   UNL     1      36.413 -25.916 -12.656  0.00  0.00    -0.379 OA
ATOM     35  H   UNL     1      36.924 -26.680 -12.963  0.00  0.00    +0.211 HD
ENDBRANCH  33  34
ENDBRANCH  25  33
ENDBRANCH  20  26
ENDBRANCH   3  20
TORSDOF 9
ENDMDL
MODEL 7
REMARK VINA RESULT:     -10.2      1.228      2.749
REMARK  Name = 107971
REMARK  9 active torsions:
REMARK  status: ('A' for Active; 'I' for Inactive)
REMARK    1  A    between atoms: C_3  and  O_20
REMARK    2  A    between atoms: C_10  and  C_12
REMARK    3  A    between atoms: C_17  and  O_18
REMARK    4  A    between atoms: O_20  and  C_26
REMARK    5  A    between atoms: C_22  and  O_27
REMARK    6  A    between atoms: C_23  and  O_29
REMARK    7  A    between atoms: C_24  and  O_31
REMARK    8  A    between atoms: C_25  and  C_33
REMARK    9  A    between atoms: C_33  and  O_34
REMARK                            x       y       z     vdW  Elec       q    Type
REMARK                         _______ _______ _______ _____ _____    ______ ____
ROOT
ATOM      1  O   UNL     1      33.056 -21.997 -19.244  0.00  0.00    -0.450 OA
ATOM      2  O   UNL     1      36.809 -20.446 -19.639  0.00  0.00    -0.286 OA
ATOM      3  C   UNL     1      34.700 -23.741 -16.501  0.00  0.00    +0.144 C 
ATOM      4  C   UNL     1      33.725 -23.308 -17.398  0.00  0.00    +0.075 C 
ATOM      5  C   UNL     1      36.004 -23.253 -16.595  0.00  0.00    +0.037 C 
ATOM      6  C   UNL     1      34.056 -22.386 -18.391  0.00  0.00    +0.151 C 
ATOM      7  C   UNL     1      35.359 -21.898 -18.485  0.00  0.00    +0.074 C 
ATOM      8  C   UNL     1      36.338 -22.330 -17.587  0.00  0.00    +0.009 C 
ATOM      9  C   UNL     1      35.685 -20.921 -19.540  0.00  0.00    +0.202 C 
ATOM     10  C   UNL     1      34.575 -20.541 -20.457  0.00  0.00    +0.077 C 
ATOM     11  C   UNL     1      33.377 -21.101 -20.236  0.00  0.00    +0.183 C 
ENDROOT
BRANCH  10  12
ATOM     12  C   UNL     1      34.774 -19.605 -21.576  0.00  0.00    +0.006 C 
ATOM     13  C   UNL     1      35.333 -18.346 -21.346  0.00  0.00    +0.003 C 
ATOM     14  C   UNL     1      34.405 -19.974 -22.872  0.00  0.00    +0.003 C 
ATOM     15  C   UNL     1      35.521 -17.460 -22.406  0.00  0.00    +0.037 C 
ATOM     16  C   UNL     1      34.593 -19.087 -23.932  0.00  0.00    +0.037 C 
ATOM     17  C   UNL     1      35.151 -17.830 -23.700  0.00  0.00    +0.134 C 
BRANCH  17  18
ATOM     18  O   UNL     1      35.335 -16.965 -24.734  0.00  0.00    -0.506 OA
ATOM     19  H   UNL     1      36.139 -16.490 -24.810  0.00  0.00    +0.292 HD
ENDBRANCH  17  18
ENDBRANCH  10  12
BRANCH   3  20
ATOM     20  O   UNL     1      34.381 -24.643 -15.530  0.00  0.00    -0.450 OA
BRANCH  20  26
ATOM     21  O   UNL     1      35.918 -23.826 -13.977  0.00  0.00    -0.316 OA
ATOM     22  C   UNL     1      37.754 -25.961 -14.543  0.00  0.00    +0.173 C 
ATOM     23  C   UNL     1      38.160 -24.720 -13.747  0.00  0.00    +0.169 C 
ATOM     24  C   UNL     1      36.532 -25.682 -15.417  0.00  0.00    +0.210 C 
ATOM     25  C   UNL     1      36.950 -24.115 -13.031  0.00  0.00    +0.177 C 
ATOM     26  C   UNL     1      35.422 -24.998 -14.620  0.00  0.00    +0.318 C 
BRANCH  22  27
ATOM     27  O   UNL     1      38.856 -26.334 -15.372  0.00  0.00    -0.379 OA
ATOM     28  H   UNL     1      39.317 -25.537 -15.676  0.00  0.00    +0.211 HD
ENDBRANCH  22  27
BRANCH  23  29
ATOM     29  O   UNL     1      39.146 -25.080 -12.783  0.00  0.00    -0.379 OA
ATOM     30  H   UNL     1      38.953 -24.637 -11.942  0.00  0.00    +0.211 HD
ENDBRANCH  23  29
BRANCH  24  31
ATOM     31  O   UNL     1      36.022 -26.915 -15.926  0.00  0.00    -0.377 OA
ATOM     32  H   UNL     1      36.623 -27.637 -15.685  0.00  0.00    +0.211 HD
ENDBRANCH  24  31
BRANCH  25  33
ATOM     33  C   UNL     1      37.306 -22.810 -12.326  0.00  0.00    +0.169 C 
BRANCH  33  34
ATOM     34  O   UNL     1      37.675 -23.107 -10.991  0.00  0.00    -0.379 OA
ATOM     35  H   UNL     1      38.641 -23.166 -10.929  0.00  0.00    +0.211 HD
ENDBRANCH  33  34
ENDBRANCH  25  33
ENDBRANCH  20  26
ENDBRANCH   3  20
TORSDOF 9
ENDMDL
MODEL 8
REMARK VINA RESULT:     -10.2      1.729     10.010
REMARK  Name = 107971
REMARK  9 active torsions:
REMARK  status: ('A' for Active; 'I' for Inactive)
REMARK    1  A    between atoms: C_3  and  O_20
REMARK    2  A    between atoms: C_10  and  C_12
REMARK    3  A    between atoms: C_17  and  O_18
REMARK    4  A    between atoms: O_20  and  C_26
REMARK    5  A    between atoms: C_22  and  O_27
REMARK    6  A    between atoms: C_23  and  O_29
REMARK    7  A    between atoms: C_24  and  O_31
REMARK    8  A    between atoms: C_25  and  C_33
REMARK    9  A    between atoms: C_33  and  O_34
REMARK                            x       y       z     vdW  Elec       q    Type
REMARK                         _______ _______ _______ _____ _____    ______ ____
ROOT
ATOM      1  O   UNL     1      33.528 -22.977 -17.671  0.00  0.00    -0.450 OA
ATOM      2  O   UNL     1      37.477 -22.754 -16.671  0.00  0.00    -0.286 OA
ATOM      3  C   UNL     1      34.727 -20.976 -20.470  0.00  0.00    +0.144 C 
ATOM      4  C   UNL     1      33.885 -21.692 -19.620  0.00  0.00    +0.075 C 
ATOM      5  C   UNL     1      36.085 -20.857 -20.172  0.00  0.00    +0.037 C 
ATOM      6  C   UNL     1      34.403 -22.287 -18.470  0.00  0.00    +0.151 C 
ATOM      7  C   UNL     1      35.761 -22.168 -18.172  0.00  0.00    +0.074 C 
ATOM      8  C   UNL     1      36.607 -21.452 -19.023  0.00  0.00    +0.009 C 
ATOM      9  C   UNL     1      36.287 -22.809 -16.953  0.00  0.00    +0.202 C 
ATOM     10  C   UNL     1      35.300 -23.532 -16.105  0.00  0.00    +0.077 C 
ATOM     11  C   UNL     1      34.027 -23.554 -16.528  0.00  0.00    +0.183 C 
ENDROOT
BRANCH  10  12
ATOM     12  C   UNL     1      35.686 -24.183 -14.843  0.00  0.00    +0.006 C 
ATOM     13  C   UNL     1      36.528 -25.298 -14.858  0.00  0.00    +0.003 C 
ATOM     14  C   UNL     1      35.211 -23.689 -13.626  0.00  0.00    +0.003 C 
ATOM     15  C   UNL     1      36.893 -25.914 -13.661  0.00  0.00    +0.037 C 
ATOM     16  C   UNL     1      35.575 -24.307 -12.429  0.00  0.00    +0.037 C 
ATOM     17  C   UNL     1      36.417 -25.419 -12.447  0.00  0.00    +0.134 C 
BRANCH  17  18
ATOM     18  O   UNL     1      36.773 -26.022 -11.279  0.00  0.00    -0.506 OA
ATOM     19  H   UNL     1      37.482 -26.634 -11.267  0.00  0.00    +0.292 HD
ENDBRANCH  17  18
ENDBRANCH  10  12
BRANCH   3  20
ATOM     20  O   UNL     1      34.223 -20.392 -21.593  0.00  0.00    -0.450 OA
BRANCH  20  26
ATOM     21  O   UNL     1      34.596 -18.110 -21.280  0.00  0.00    -0.316 OA
ATOM     22  C   UNL     1      35.070 -17.714 -24.085  0.00  0.00    +0.173 C 
ATOM     23  C   UNL     1      34.844 -16.551 -23.119  0.00  0.00    +0.169 C 
ATOM     24  C   UNL     1      34.487 -19.014 -23.531  0.00  0.00    +0.210 C 
ATOM     25  C   UNL     1      35.280 -16.929 -21.701  0.00  0.00    +0.177 C 
ATOM     26  C   UNL     1      34.918 -19.243 -22.082  0.00  0.00    +0.318 C 
BRANCH  22  27
ATOM     27  O   UNL     1      34.429 -17.394 -25.320  0.00  0.00    -0.379 OA
ATOM     28  H   UNL     1      33.911 -16.581 -25.215  0.00  0.00    +0.211 HD
ENDBRANCH  22  27
BRANCH  23  29
ATOM     29  O   UNL     1      35.595 -15.421 -23.558  0.00  0.00    -0.379 OA
ATOM     30  H   UNL     1      35.253 -14.620 -23.131  0.00  0.00    +0.211 HD
ENDBRANCH  23  29
BRANCH  24  31
ATOM     31  O   UNL     1      34.951 -20.113 -24.315  0.00  0.00    -0.377 OA
ATOM     32  H   UNL     1      35.895 -19.998 -24.506  0.00  0.00    +0.211 HD
ENDBRANCH  24  31
BRANCH  25  33
ATOM     33  C   UNL     1      34.956 -15.826 -20.698  0.00  0.00    +0.169 C 
BRANCH  33  34
ATOM     34  O   UNL     1      34.159 -14.850 -21.344  0.00  0.00    -0.379 OA
ATOM     35  H   UNL     1      34.718 -14.108 -21.620  0.00  0.00    +0.211 HD
ENDBRANCH  33  34
ENDBRANCH  25  33
ENDBRANCH  20  26
ENDBRANCH   3  20
TORSDOF 9
ENDMDL
MODEL 9
REMARK VINA RESULT:     -10.1      1.434      2.389
REMARK  Name = 107971
REMARK  9 active torsions:
REMARK  status: ('A' for Active; 'I' for Inactive)
REMARK    1  A    between atoms: C_3  and  O_20
REMARK    2  A    between atoms: C_10  and  C_12
REMARK    3  A    between atoms: C_17  and  O_18
REMARK    4  A    between atoms: O_20  and  C_26
REMARK    5  A    between atoms: C_22  and  O_27
REMARK    6  A    between atoms: C_23  and  O_29
REMARK    7  A    between atoms: C_24  and  O_31
REMARK    8  A    between atoms: C_25  and  C_33
REMARK    9  A    between atoms: C_33  and  O_34
REMARK                            x       y       z     vdW  Elec       q    Type
REMARK                         _______ _______ _______ _____ _____    ______ ____
ROOT
ATOM      1  O   UNL     1      36.397 -22.423 -17.800  0.00  0.00    -0.450 OA
ATOM      2  O   UNL     1      32.887 -21.457 -19.643  0.00  0.00    -0.286 OA
ATOM      3  C   UNL     1      34.088 -24.247 -15.652  0.00  0.00    +0.144 C 
ATOM      4  C   UNL     1      35.264 -23.729 -16.191  0.00  0.00    +0.075 C 
ATOM      5  C   UNL     1      32.856 -23.941 -16.234  0.00  0.00    +0.037 C 
ATOM      6  C   UNL     1      35.208 -22.903 -17.314  0.00  0.00    +0.151 C 
ATOM      7  C   UNL     1      33.978 -22.597 -17.896  0.00  0.00    +0.074 C 
ATOM      8  C   UNL     1      32.797 -23.115 -17.357  0.00  0.00    +0.009 C 
ATOM      9  C   UNL     1      33.943 -21.726 -19.085  0.00  0.00    +0.202 C 
ATOM     10  C   UNL     1      35.254 -21.211 -19.567  0.00  0.00    +0.077 C 
ATOM     11  C   UNL     1      36.350 -21.596 -18.896  0.00  0.00    +0.183 C 
ENDROOT
BRANCH  10  12
ATOM     12  C   UNL     1      35.357 -20.301 -20.721  0.00  0.00    +0.006 C 
ATOM     13  C   UNL     1      34.309 -20.212 -21.640  0.00  0.00    +0.003 C 
ATOM     14  C   UNL     1      36.505 -19.524 -20.899  0.00  0.00    +0.003 C 
ATOM     15  C   UNL     1      34.408 -19.350 -22.732  0.00  0.00    +0.037 C 
ATOM     16  C   UNL     1      36.603 -18.663 -21.992  0.00  0.00    +0.037 C 
ATOM     17  C   UNL     1      35.555 -18.576 -22.908  0.00  0.00    +0.134 C 
BRANCH  17  18
ATOM     18  O   UNL     1      35.651 -17.735 -23.974  0.00  0.00    -0.506 OA
ATOM     19  H   UNL     1      36.415 -17.755 -24.518  0.00  0.00    +0.292 HD
ENDBRANCH  17  18
ENDBRANCH  10  12
BRANCH   3  20
ATOM     20  O   UNL     1      34.139 -25.053 -14.554  0.00  0.00    -0.450 OA
BRANCH  20  26
ATOM     21  O   UNL     1      35.935 -23.987 -13.515  0.00  0.00    -0.316 OA
ATOM     22  C   UNL     1      37.784 -25.950 -14.503  0.00  0.00    +0.173 C 
ATOM     23  C   UNL     1      38.243 -24.627 -13.890  0.00  0.00    +0.169 C 
ATOM     24  C   UNL     1      36.345 -25.854 -15.012  0.00  0.00    +0.210 C 
ATOM     25  C   UNL     1      37.212 -24.108 -12.885  0.00  0.00    +0.177 C 
ATOM     26  C   UNL     1      35.423 -25.241 -13.958  0.00  0.00    +0.318 C 
BRANCH  22  27
ATOM     27  O   UNL     1      38.654 -26.257 -15.594  0.00  0.00    -0.379 OA
ATOM     28  H   UNL     1      38.401 -27.111 -15.979  0.00  0.00    +0.211 HD
ENDBRANCH  22  27
BRANCH  23  29
ATOM     29  O   UNL     1      39.490 -24.823 -13.227  0.00  0.00    -0.379 OA
ATOM     30  H   UNL     1      40.136 -25.181 -13.855  0.00  0.00    +0.211 HD
ENDBRANCH  23  29
BRANCH  24  31
ATOM     31  O   UNL     1      35.864 -27.162 -15.321  0.00  0.00    -0.377 OA
ATOM     32  H   UNL     1      36.205 -27.436 -16.187  0.00  0.00    +0.211 HD
ENDBRANCH  24  31
BRANCH  25  33
ATOM     33  C   UNL     1      37.592 -22.732 -12.346  0.00  0.00    +0.169 C 
BRANCH  33  34
ATOM     34  O   UNL     1      38.724 -22.875 -11.507  0.00  0.00    -0.379 OA
ATOM     35  H   UNL     1      38.472 -23.360 -10.706  0.00  0.00    +0.211 HD
ENDBRANCH  33  34
ENDBRANCH  25  33
ENDBRANCH  20  26
ENDBRANCH   3  20
TORSDOF 9
ENDMDL
