MODEL 1
REMARK VINA RESULT:     -12.0      0.000      0.000
REMARK  Name = 10389239
REMARK  2 active torsions:
REMARK  status: ('A' for Active; 'I' for Inactive)
REMARK    1  A    between atoms: C_2  and  C_14
REMARK    2  A    between atoms: C_4  and  C_20
REMARK                            x       y       z     vdW  Elec       q    Type
REMARK                         _______ _______ _______ _____ _____    ______ ____
ROOT
ATOM      1  N   UNL     1      34.918 -18.024 -24.438  0.00  0.00    -0.244 NA
ATOM      2  C   UNL     1      34.126 -15.417 -23.817  0.00  0.00    +0.016 C 
ATOM      3  C   UNL     1      34.541 -16.278 -22.807  0.00  0.00    +0.020 C 
ATOM      4  C   UNL     1      34.924 -17.560 -23.167  0.00  0.00    +0.083 C 
ATOM      5  C   UNL     1      34.104 -15.856 -25.136  0.00  0.00    +0.022 C 
ATOM      6  C   UNL     1      34.508 -17.158 -25.391  0.00  0.00    +0.099 C 
ENDROOT
BRANCH   2  14
ATOM      7  O   UNL     1      34.172  -9.831 -24.318  0.00  0.00    -0.270 OA
ATOM      8  N   UNL     1      32.843 -13.799 -22.473  0.00  0.00    -0.316 N 
ATOM      9  N   UNL     1      32.451  -9.737 -22.778  0.00  0.00    -0.300 N 
ATOM     10  C   UNL     1      32.646 -12.450 -22.405  0.00  0.00    +0.031 C 
ATOM     11  C   UNL     1      31.797 -11.738 -21.421  0.00  0.00    +0.063 C 
ATOM     12  C   UNL     1      33.391 -11.844 -23.395  0.00  0.00    +0.064 C 
ATOM     13  C   UNL     1      31.367 -10.407 -22.048  0.00  0.00    +0.096 C 
ATOM     14  C   UNL     1      33.716 -14.070 -23.497  0.00  0.00    +0.048 C 
ATOM     15  C   UNL     1      34.078 -12.873 -24.083  0.00  0.00    +0.020 C 
ATOM     16  C   UNL     1      33.392 -10.403 -23.562  0.00  0.00    +0.247 C 
ATOM     17  H   UNL     1      32.426 -14.469 -21.884  0.00  0.00    +0.152 HD
ATOM     18  H   UNL     1      32.516  -8.758 -22.710  0.00  0.00    +0.150 HD
ENDBRANCH   2  14
BRANCH   4  20
ATOM     19  N   UNL     1      37.154 -19.391 -20.810  0.00  0.00    -0.244 NA
ATOM     20  C   UNL     1      35.367 -18.509 -22.175  0.00  0.00    +0.037 C 
ATOM     21  C   UNL     1      34.494 -19.437 -21.626  0.00  0.00    +0.005 C 
ATOM     22  C   UNL     1      34.948 -20.349 -20.664  0.00  0.00    +0.018 C 
ATOM     23  C   UNL     1      36.305 -20.290 -20.280  0.00  0.00    +0.081 C 
ATOM     24  C   UNL     1      36.677 -18.528 -21.736  0.00  0.00    +0.100 C 
ATOM     25  C   UNL     1      34.089 -21.301 -20.088  0.00  0.00    +0.001 C 
ATOM     26  C   UNL     1      36.754 -21.196 -19.323  0.00  0.00    +0.019 C 
ATOM     27  C   UNL     1      34.566 -22.196 -19.134  0.00  0.00    +0.000 C 
ATOM     28  C   UNL     1      35.901 -22.143 -18.751  0.00  0.00    +0.002 C 
ENDBRANCH   4  20
TORSDOF 2
ENDMDL
MODEL 2
REMARK VINA RESULT:     -11.9      6.426     11.884
REMARK  Name = 10389239
REMARK  2 active torsions:
REMARK  status: ('A' for Active; 'I' for Inactive)
REMARK    1  A    between atoms: C_2  and  C_14
REMARK    2  A    between atoms: C_4  and  C_20
REMARK                            x       y       z     vdW  Elec       q    Type
REMARK                         _______ _______ _______ _____ _____    ______ ____
ROOT
ATOM      1  N   UNL     1      32.374 -22.683 -18.038  0.00  0.00    -0.244 NA
ATOM      2  C   UNL     1      34.316 -23.670 -16.288  0.00  0.00    +0.016 C 
ATOM      3  C   UNL     1      34.686 -22.855 -17.352  0.00  0.00    +0.020 C 
ATOM      4  C   UNL     1      33.685 -22.392 -18.191  0.00  0.00    +0.083 C 
ATOM      5  C   UNL     1      32.978 -23.993 -16.098  0.00  0.00    +0.022 C 
ATOM      6  C   UNL     1      32.053 -23.477 -16.993  0.00  0.00    +0.099 C 
ENDROOT
BRANCH   2  14
ATOM      7  O   UNL     1      36.208 -25.723 -11.424  0.00  0.00    -0.270 OA
ATOM      8  N   UNL     1      36.649 -24.227 -15.724  0.00  0.00    -0.316 N 
ATOM      9  N   UNL     1      38.283 -25.982 -12.408  0.00  0.00    -0.300 N 
ATOM     10  C   UNL     1      37.353 -24.749 -14.678  0.00  0.00    +0.031 C 
ATOM     11  C   UNL     1      38.821 -24.945 -14.623  0.00  0.00    +0.063 C 
ATOM     12  C   UNL     1      36.475 -25.047 -13.657  0.00  0.00    +0.064 C 
ATOM     13  C   UNL     1      39.108 -26.067 -13.619  0.00  0.00    +0.096 C 
ATOM     14  C   UNL     1      35.319 -24.180 -15.384  0.00  0.00    +0.048 C 
ATOM     15  C   UNL     1      35.183 -24.678 -14.103  0.00  0.00    +0.020 C 
ATOM     16  C   UNL     1      36.940 -25.609 -12.403  0.00  0.00    +0.247 C 
ATOM     17  H   UNL     1      37.031 -23.933 -16.582  0.00  0.00    +0.152 HD
ATOM     18  H   UNL     1      38.705 -26.202 -11.546  0.00  0.00    +0.150 HD
ENDBRANCH   2  14
BRANCH   4  20
ATOM     19  N   UNL     1      33.235 -20.348 -21.273  0.00  0.00    -0.244 NA
ATOM     20  C   UNL     1      33.993 -21.542 -19.316  0.00  0.00    +0.037 C 
ATOM     21  C   UNL     1      35.286 -21.096 -19.548  0.00  0.00    +0.005 C 
ATOM     22  C   UNL     1      35.561 -20.271 -20.648  0.00  0.00    +0.018 C 
ATOM     23  C   UNL     1      34.491 -19.917 -21.497  0.00  0.00    +0.081 C 
ATOM     24  C   UNL     1      33.012 -21.142 -20.202  0.00  0.00    +0.100 C 
ATOM     25  C   UNL     1      36.860 -19.802 -20.910  0.00  0.00    +0.001 C 
ATOM     26  C   UNL     1      34.764 -19.098 -22.588  0.00  0.00    +0.019 C 
ATOM     27  C   UNL     1      37.104 -18.984 -22.010  0.00  0.00    +0.000 C 
ATOM     28  C   UNL     1      36.055 -18.632 -22.849  0.00  0.00    +0.002 C 
ENDBRANCH   4  20
TORSDOF 2
ENDMDL
MODEL 3
REMARK VINA RESULT:     -11.7      3.716     10.565
REMARK  Name = 10389239
REMARK  2 active torsions:
REMARK  status: ('A' for Active; 'I' for Inactive)
REMARK    1  A    between atoms: C_2  and  C_14
REMARK    2  A    between atoms: C_4  and  C_20
REMARK                            x       y       z     vdW  Elec       q    Type
REMARK                         _______ _______ _______ _____ _____    ______ ____
ROOT
ATOM      1  N   UNL     1      31.546  -9.901 -21.270  0.00  0.00    -0.244 NA
ATOM      2  C   UNL     1      32.600 -12.214 -22.430  0.00  0.00    +0.016 C 
ATOM      3  C   UNL     1      32.685 -10.999 -23.099  0.00  0.00    +0.020 C 
ATOM      4  C   UNL     1      32.148  -9.881 -22.481  0.00  0.00    +0.083 C 
ATOM      5  C   UNL     1      31.988 -12.276 -21.183  0.00  0.00    +0.022 C 
ATOM      6  C   UNL     1      31.483 -11.100 -20.651  0.00  0.00    +0.099 C 
ENDROOT
BRANCH   2  14
ATOM      7  O   UNL     1      35.880 -16.759 -22.640  0.00  0.00    -0.270 OA
ATOM      8  N   UNL     1      32.813 -13.801 -24.303  0.00  0.00    -0.316 N 
ATOM      9  N   UNL     1      34.877 -17.318 -24.646  0.00  0.00    -0.300 N 
ATOM     10  C   UNL     1      33.478 -14.956 -24.597  0.00  0.00    +0.031 C 
ATOM     11  C   UNL     1      33.422 -15.696 -25.880  0.00  0.00    +0.063 C 
ATOM     12  C   UNL     1      34.239 -15.319 -23.505  0.00  0.00    +0.064 C 
ATOM     13  C   UNL     1      33.767 -17.161 -25.592  0.00  0.00    +0.096 C 
ATOM     14  C   UNL     1      33.144 -13.410 -23.028  0.00  0.00    +0.048 C 
ATOM     15  C   UNL     1      34.033 -14.332 -22.512  0.00  0.00    +0.020 C 
ATOM     16  C   UNL     1      35.069 -16.508 -23.527  0.00  0.00    +0.247 C 
ATOM     17  H   UNL     1      32.197 -13.326 -24.905  0.00  0.00    +0.152 HD
ATOM     18  H   UNL     1      35.527 -18.039 -24.811  0.00  0.00    +0.150 HD
ENDBRANCH   2  14
BRANCH   4  20
ATOM     19  N   UNL     1      31.065  -6.552 -23.759  0.00  0.00    -0.244 NA
ATOM     20  C   UNL     1      32.199  -8.585 -23.115  0.00  0.00    +0.037 C 
ATOM     21  C   UNL     1      33.372  -8.107 -23.681  0.00  0.00    +0.005 C 
ATOM     22  C   UNL     1      33.397  -6.845 -24.290  0.00  0.00    +0.018 C 
ATOM     23  C   UNL     1      32.205  -6.091 -24.308  0.00  0.00    +0.081 C 
ATOM     24  C   UNL     1      31.082  -7.775 -23.181  0.00  0.00    +0.100 C 
ATOM     25  C   UNL     1      34.570  -6.332 -24.872  0.00  0.00    +0.001 C 
ATOM     26  C   UNL     1      32.231  -4.839 -24.913  0.00  0.00    +0.019 C 
ATOM     27  C   UNL     1      34.567  -5.076 -25.472  0.00  0.00    +0.000 C 
ATOM     28  C   UNL     1      33.396  -4.328 -25.492  0.00  0.00    +0.002 C 
ENDBRANCH   4  20
TORSDOF 2
ENDMDL
MODEL 4
REMARK VINA RESULT:     -11.7      3.695      6.800
REMARK  Name = 10389239
REMARK  2 active torsions:
REMARK  status: ('A' for Active; 'I' for Inactive)
REMARK    1  A    between atoms: C_2  and  C_14
REMARK    2  A    between atoms: C_4  and  C_20
REMARK                            x       y       z     vdW  Elec       q    Type
REMARK                         _______ _______ _______ _____ _____    ______ ____
ROOT
ATOM      1  N   UNL     1      35.985 -22.322 -18.580  0.00  0.00    -0.244 NA
ATOM      2  C   UNL     1      35.462 -20.539 -20.667  0.00  0.00    +0.016 C 
ATOM      3  C   UNL     1      34.419 -21.025 -19.888  0.00  0.00    +0.020 C 
ATOM      4  C   UNL     1      34.731 -21.907 -18.866  0.00  0.00    +0.083 C 
ATOM      5  C   UNL     1      36.767 -20.943 -20.406  0.00  0.00    +0.022 C 
ATOM      6  C   UNL     1      36.973 -21.828 -19.359  0.00  0.00    +0.099 C 
ENDROOT
BRANCH   2  14
ATOM      7  O   UNL     1      33.947 -19.099 -25.871  0.00  0.00    -0.270 OA
ATOM      8  N   UNL     1      35.426 -18.269 -21.624  0.00  0.00    -0.316 N 
ATOM      9  N   UNL     1      34.119 -16.881 -25.245  0.00  0.00    -0.300 N 
ATOM     10  C   UNL     1      35.085 -17.656 -22.794  0.00  0.00    +0.031 C 
ATOM     11  C   UNL     1      35.208 -16.209 -23.092  0.00  0.00    +0.063 C 
ATOM     12  C   UNL     1      34.624 -18.611 -23.677  0.00  0.00    +0.064 C 
ATOM     13  C   UNL     1      34.191 -15.867 -24.186  0.00  0.00    +0.096 C 
ATOM     14  C   UNL     1      35.194 -19.618 -21.745  0.00  0.00    +0.048 C 
ATOM     15  C   UNL     1      34.701 -19.858 -23.013  0.00  0.00    +0.020 C 
ATOM     16  C   UNL     1      34.197 -18.255 -25.016  0.00  0.00    +0.247 C 
ATOM     17  H   UNL     1      35.779 -17.819 -20.823  0.00  0.00    +0.152 HD
ATOM     18  H   UNL     1      34.010 -16.572 -26.173  0.00  0.00    +0.150 HD
ENDBRANCH   2  14
BRANCH   4  20
ATOM     19  N   UNL     1      31.350 -22.783 -17.566  0.00  0.00    -0.244 NA
ATOM     20  C   UNL     1      33.700 -22.454 -18.016  0.00  0.00    +0.037 C 
ATOM     21  C   UNL     1      34.017 -23.154 -16.861  0.00  0.00    +0.005 C 
ATOM     22  C   UNL     1      32.998 -23.675 -16.051  0.00  0.00    +0.018 C 
ATOM     23  C   UNL     1      31.660 -23.463 -16.446  0.00  0.00    +0.081 C 
ATOM     24  C   UNL     1      32.362 -22.297 -18.320  0.00  0.00    +0.100 C 
ATOM     25  C   UNL     1      33.286 -24.391 -14.876  0.00  0.00    +0.001 C 
ATOM     26  C   UNL     1      30.650 -23.981 -15.642  0.00  0.00    +0.019 C 
ATOM     27  C   UNL     1      32.254 -24.897 -14.089  0.00  0.00    +0.000 C 
ATOM     28  C   UNL     1      30.935 -24.692 -14.473  0.00  0.00    +0.002 C 
ENDBRANCH   4  20
TORSDOF 2
ENDMDL
MODEL 5
REMARK VINA RESULT:     -11.1      6.350     11.645
REMARK  Name = 10389239
REMARK  2 active torsions:
REMARK  status: ('A' for Active; 'I' for Inactive)
REMARK    1  A    between atoms: C_2  and  C_14
REMARK    2  A    between atoms: C_4  and  C_20
REMARK                            x       y       z     vdW  Elec       q    Type
REMARK                         _______ _______ _______ _____ _____    ______ ____
ROOT
ATOM      1  N   UNL     1      33.166 -22.528 -18.603  0.00  0.00    -0.244 NA
ATOM      2  C   UNL     1      34.684 -23.450 -16.446  0.00  0.00    +0.016 C 
ATOM      3  C   UNL     1      35.259 -22.613 -17.395  0.00  0.00    +0.020 C 
ATOM      4  C   UNL     1      34.464 -22.183 -18.445  0.00  0.00    +0.083 C 
ATOM      5  C   UNL     1      33.352 -23.828 -16.573  0.00  0.00    +0.022 C 
ATOM      6  C   UNL     1      32.643 -23.342 -17.660  0.00  0.00    +0.099 C 
ENDROOT
BRANCH   2  14
ATOM      7  O   UNL     1      37.402 -27.309 -13.417  0.00  0.00    -0.270 OA
ATOM      8  N   UNL     1      35.804 -23.111 -14.278  0.00  0.00    -0.316 N 
ATOM      9  N   UNL     1      38.082 -25.624 -11.989  0.00  0.00    -0.300 N 
ATOM     10  C   UNL     1      36.536 -23.831 -13.379  0.00  0.00    +0.031 C 
ATOM     11  C   UNL     1      37.074 -23.334 -12.090  0.00  0.00    +0.063 C 
ATOM     12  C   UNL     1      36.679 -25.118 -13.854  0.00  0.00    +0.064 C 
ATOM     13  C   UNL     1      38.288 -24.195 -11.725  0.00  0.00    +0.096 C 
ATOM     14  C   UNL     1      35.466 -23.926 -15.330  0.00  0.00    +0.048 C 
ATOM     15  C   UNL     1      35.992 -25.180 -15.090  0.00  0.00    +0.020 C 
ATOM     16  C   UNL     1      37.406 -26.123 -13.101  0.00  0.00    +0.247 C 
ATOM     17  H   UNL     1      35.559 -22.162 -14.187  0.00  0.00    +0.152 HD
ATOM     18  H   UNL     1      38.444 -26.270 -11.340  0.00  0.00    +0.150 HD
ENDBRANCH   2  14
BRANCH   4  20
ATOM     19  N   UNL     1      36.873 -20.115 -20.396  0.00  0.00    -0.244 NA
ATOM     20  C   UNL     1      34.992 -21.313 -19.469  0.00  0.00    +0.037 C 
ATOM     21  C   UNL     1      34.186 -20.832 -20.490  0.00  0.00    +0.005 C 
ATOM     22  C   UNL     1      34.721 -19.988 -21.472  0.00  0.00    +0.018 C 
ATOM     23  C   UNL     1      36.088 -19.650 -21.385  0.00  0.00    +0.081 C 
ATOM     24  C   UNL     1      36.318 -20.926 -19.467  0.00  0.00    +0.100 C 
ATOM     25  C   UNL     1      33.931 -19.484 -22.521  0.00  0.00    +0.001 C 
ATOM     26  C   UNL     1      36.619 -18.811 -22.361  0.00  0.00    +0.019 C 
ATOM     27  C   UNL     1      34.489 -18.647 -23.483  0.00  0.00    +0.000 C 
ATOM     28  C   UNL     1      35.834 -18.311 -23.403  0.00  0.00    +0.002 C 
ENDBRANCH   4  20
TORSDOF 2
ENDMDL
MODEL 6
REMARK VINA RESULT:     -11.0      2.600      4.832
REMARK  Name = 10389239
REMARK  2 active torsions:
REMARK  status: ('A' for Active; 'I' for Inactive)
REMARK    1  A    between atoms: C_2  and  C_14
REMARK    2  A    between atoms: C_4  and  C_20
REMARK                            x       y       z     vdW  Elec       q    Type
REMARK                         _______ _______ _______ _____ _____    ______ ____
ROOT
ATOM      1  N   UNL     1      33.968 -13.111 -25.114  0.00  0.00    -0.244 NA
ATOM      2  C   UNL     1      33.167 -10.768 -23.818  0.00  0.00    +0.016 C 
ATOM      3  C   UNL     1      33.527 -11.887 -23.075  0.00  0.00    +0.020 C 
ATOM      4  C   UNL     1      33.916 -13.024 -23.765  0.00  0.00    +0.083 C 
ATOM      5  C   UNL     1      33.206 -10.818 -25.207  0.00  0.00    +0.022 C 
ATOM      6  C   UNL     1      33.612 -12.003 -25.801  0.00  0.00    +0.099 C 
ENDROOT
BRANCH   2  14
ATOM      7  O   UNL     1      32.710  -7.259 -19.467  0.00  0.00    -0.270 OA
ATOM      8  N   UNL     1      31.974  -8.614 -23.773  0.00  0.00    -0.316 N 
ATOM      9  N   UNL     1      31.701  -5.733 -20.879  0.00  0.00    -0.300 N 
ATOM     10  C   UNL     1      31.741  -7.589 -22.901  0.00  0.00    +0.031 C 
ATOM     11  C   UNL     1      30.921  -6.384 -23.168  0.00  0.00    +0.063 C 
ATOM     12  C   UNL     1      32.378  -7.867 -21.710  0.00  0.00    +0.064 C 
ATOM     13  C   UNL     1      31.412  -5.267 -22.241  0.00  0.00    +0.096 C 
ATOM     14  C   UNL     1      32.754  -9.557 -23.150  0.00  0.00    +0.048 C 
ATOM     15  C   UNL     1      33.014  -9.122 -21.865  0.00  0.00    +0.020 C 
ATOM     16  C   UNL     1      32.299  -6.957 -20.583  0.00  0.00    +0.247 C 
ATOM     17  H   UNL     1      31.639  -8.668 -24.697  0.00  0.00    +0.152 HD
ATOM     18  H   UNL     1      31.456  -5.145 -20.128  0.00  0.00    +0.150 HD
ENDBRANCH   2  14
BRANCH   4  20
ATOM     19  N   UNL     1      34.796 -15.327 -20.971  0.00  0.00    -0.244 NA
ATOM     20  C   UNL     1      34.304 -14.224 -23.062  0.00  0.00    +0.037 C 
ATOM     21  C   UNL     1      34.558 -15.405 -23.742  0.00  0.00    +0.005 C 
ATOM     22  C   UNL     1      34.932 -16.558 -23.038  0.00  0.00    +0.018 C 
ATOM     23  C   UNL     1      35.041 -16.472 -21.633  0.00  0.00    +0.081 C 
ATOM     24  C   UNL     1      34.437 -14.237 -21.688  0.00  0.00    +0.100 C 
ATOM     25  C   UNL     1      35.196 -17.771 -23.697  0.00  0.00    +0.001 C 
ATOM     26  C   UNL     1      35.413 -17.617 -20.934  0.00  0.00    +0.019 C 
ATOM     27  C   UNL     1      35.567 -18.900 -22.972  0.00  0.00    +0.000 C 
ATOM     28  C   UNL     1      35.676 -18.823 -21.589  0.00  0.00    +0.002 C 
ENDBRANCH   4  20
TORSDOF 2
ENDMDL
MODEL 7
REMARK VINA RESULT:     -11.0      4.683      9.726
REMARK  Name = 10389239
REMARK  2 active torsions:
REMARK  status: ('A' for Active; 'I' for Inactive)
REMARK    1  A    between atoms: C_2  and  C_14
REMARK    2  A    between atoms: C_4  and  C_20
REMARK                            x       y       z     vdW  Elec       q    Type
REMARK                         _______ _______ _______ _____ _____    ______ ____
ROOT
ATOM      1  N   UNL     1      36.643 -21.018 -20.072  0.00  0.00    -0.244 NA
ATOM      2  C   UNL     1      34.498 -22.017 -18.585  0.00  0.00    +0.016 C 
ATOM      3  C   UNL     1      34.275 -21.073 -19.581  0.00  0.00    +0.020 C 
ATOM      4  C   UNL     1      35.372 -20.609 -20.289  0.00  0.00    +0.083 C 
ATOM      5  C   UNL     1      35.790 -22.462 -18.330  0.00  0.00    +0.022 C 
ATOM      6  C   UNL     1      36.819 -21.936 -19.095  0.00  0.00    +0.099 C 
ENDROOT
BRANCH   2  14
ATOM      7  O   UNL     1      29.088 -22.650 -17.245  0.00  0.00    -0.270 OA
ATOM      8  N   UNL     1      33.581 -23.310 -16.699  0.00  0.00    -0.316 N 
ATOM      9  N   UNL     1      29.727 -24.184 -15.639  0.00  0.00    -0.300 N 
ATOM     10  C   UNL     1      32.363 -23.646 -16.183  0.00  0.00    +0.031 C 
ATOM     11  C   UNL     1      32.123 -24.452 -14.962  0.00  0.00    +0.063 C 
ATOM     12  C   UNL     1      31.379 -23.091 -16.973  0.00  0.00    +0.064 C 
ATOM     13  C   UNL     1      30.738 -25.095 -15.090  0.00  0.00    +0.096 C 
ATOM     14  C   UNL     1      33.391 -22.534 -17.817  0.00  0.00    +0.048 C 
ATOM     15  C   UNL     1      32.032 -22.378 -18.006  0.00  0.00    +0.020 C 
ATOM     16  C   UNL     1      29.973 -23.270 -16.663  0.00  0.00    +0.247 C 
ATOM     17  H   UNL     1      34.454 -23.579 -16.331  0.00  0.00    +0.152 HD
ATOM     18  H   UNL     1      28.819 -24.220 -15.260  0.00  0.00    +0.150 HD
ENDBRANCH   2  14
BRANCH   4  20
ATOM     19  N   UNL     1      35.545 -17.366 -22.117  0.00  0.00    -0.244 NA
ATOM     20  C   UNL     1      35.219 -19.629 -21.338  0.00  0.00    +0.037 C 
ATOM     21  C   UNL     1      34.623 -19.957 -22.547  0.00  0.00    +0.005 C 
ATOM     22  C   UNL     1      34.486 -18.988 -23.550  0.00  0.00    +0.018 C 
ATOM     23  C   UNL     1      34.967 -17.687 -23.289  0.00  0.00    +0.081 C 
ATOM     24  C   UNL     1      35.658 -18.330 -21.174  0.00  0.00    +0.100 C 
ATOM     25  C   UNL     1      33.888 -19.288 -24.787  0.00  0.00    +0.001 C 
ATOM     26  C   UNL     1      34.830 -16.726 -24.286  0.00  0.00    +0.019 C 
ATOM     27  C   UNL     1      33.764 -18.306 -25.766  0.00  0.00    +0.000 C 
ATOM     28  C   UNL     1      34.235 -17.023 -25.515  0.00  0.00    +0.002 C 
ENDBRANCH   4  20
TORSDOF 2
ENDMDL
MODEL 8
REMARK VINA RESULT:     -11.0      3.479     10.582
REMARK  Name = 10389239
REMARK  2 active torsions:
REMARK  status: ('A' for Active; 'I' for Inactive)
REMARK    1  A    between atoms: C_2  and  C_14
REMARK    2  A    between atoms: C_4  and  C_20
REMARK                            x       y       z     vdW  Elec       q    Type
REMARK                         _______ _______ _______ _____ _____    ______ ____
ROOT
ATOM      1  N   UNL     1      31.562  -9.705 -21.105  0.00  0.00    -0.244 NA
ATOM      2  C   UNL     1      32.573 -12.051 -22.237  0.00  0.00    +0.016 C 
ATOM      3  C   UNL     1      32.656 -10.851 -22.932  0.00  0.00    +0.020 C 
ATOM      4  C   UNL     1      32.140  -9.716 -22.328  0.00  0.00    +0.083 C 
ATOM      5  C   UNL     1      31.985 -12.082 -20.977  0.00  0.00    +0.022 C 
ATOM      6  C   UNL     1      31.500 -10.891 -20.460  0.00  0.00    +0.099 C 
ENDROOT
BRANCH   2  14
ATOM      7  O   UNL     1      33.212 -15.893 -26.273  0.00  0.00    -0.270 OA
ATOM      8  N   UNL     1      33.880 -14.135 -22.104  0.00  0.00    -0.316 N 
ATOM      9  N   UNL     1      34.759 -16.962 -24.929  0.00  0.00    -0.300 N 
ATOM     10  C   UNL     1      34.220 -15.186 -22.907  0.00  0.00    +0.031 C 
ATOM     11  C   UNL     1      35.035 -16.359 -22.514  0.00  0.00    +0.063 C 
ATOM     12  C   UNL     1      33.657 -14.991 -24.151  0.00  0.00    +0.064 C 
ATOM     13  C   UNL     1      35.676 -16.931 -23.783  0.00  0.00    +0.096 C 
ATOM     14  C   UNL     1      33.096 -13.264 -22.819  0.00  0.00    +0.048 C 
ATOM     15  C   UNL     1      32.936 -13.774 -24.093  0.00  0.00    +0.020 C 
ATOM     16  C   UNL     1      33.837 -15.956 -25.219  0.00  0.00    +0.247 C 
ATOM     17  H   UNL     1      34.154 -14.020 -21.165  0.00  0.00    +0.152 HD
ATOM     18  H   UNL     1      34.797 -17.741 -25.530  0.00  0.00    +0.150 HD
ENDBRANCH   2  14
BRANCH   4  20
ATOM     19  N   UNL     1      31.085  -6.371 -23.586  0.00  0.00    -0.244 NA
ATOM     20  C   UNL     1      32.190  -8.434 -22.989  0.00  0.00    +0.037 C 
ATOM     21  C   UNL     1      33.332  -8.011 -23.652  0.00  0.00    +0.005 C 
ATOM     22  C   UNL     1      33.357  -6.761 -24.287  0.00  0.00    +0.018 C 
ATOM     23  C   UNL     1      32.195  -5.963 -24.229  0.00  0.00    +0.081 C 
ATOM     24  C   UNL     1      31.101  -7.584 -22.987  0.00  0.00    +0.100 C 
ATOM     25  C   UNL     1      34.499  -6.303 -24.966  0.00  0.00    +0.001 C 
ATOM     26  C   UNL     1      32.220  -4.723 -24.859  0.00  0.00    +0.019 C 
ATOM     27  C   UNL     1      34.496  -5.058 -25.588  0.00  0.00    +0.000 C 
ATOM     28  C   UNL     1      33.355  -4.267 -25.535  0.00  0.00    +0.002 C 
ENDBRANCH   4  20
TORSDOF 2
ENDMDL
MODEL 9
REMARK VINA RESULT:     -10.9      5.357      9.004
REMARK  Name = 10389239
REMARK  2 active torsions:
REMARK  status: ('A' for Active; 'I' for Inactive)
REMARK    1  A    between atoms: C_2  and  C_14
REMARK    2  A    between atoms: C_4  and  C_20
REMARK                            x       y       z     vdW  Elec       q    Type
REMARK                         _______ _______ _______ _____ _____    ______ ____
ROOT
ATOM      1  N   UNL     1      35.993 -23.627 -15.668  0.00  0.00    -0.244 NA
ATOM      2  C   UNL     1      36.040 -22.037 -17.965  0.00  0.00    +0.016 C 
ATOM      3  C   UNL     1      34.831 -22.512 -17.471  0.00  0.00    +0.020 C 
ATOM      4  C   UNL     1      34.861 -23.296 -16.330  0.00  0.00    +0.083 C 
ATOM      5  C   UNL     1      37.227 -22.357 -17.314  0.00  0.00    +0.022 C 
ATOM      6  C   UNL     1      37.149 -23.148 -16.178  0.00  0.00    +0.099 C 
ENDROOT
BRANCH   2  14
ATOM      7  O   UNL     1      38.415 -18.676 -21.776  0.00  0.00    -0.270 OA
ATOM      8  N   UNL     1      34.932 -20.957 -19.882  0.00  0.00    -0.316 N 
ATOM      9  N   UNL     1      36.429 -18.711 -22.958  0.00  0.00    -0.300 N 
ATOM     10  C   UNL     1      35.260 -20.156 -20.937  0.00  0.00    +0.031 C 
ATOM     11  C   UNL     1      34.323 -19.622 -21.954  0.00  0.00    +0.063 C 
ATOM     12  C   UNL     1      36.614 -19.898 -20.893  0.00  0.00    +0.064 C 
ATOM     13  C   UNL     1      35.127 -19.333 -23.227  0.00  0.00    +0.096 C 
ATOM     14  C   UNL     1      36.066 -21.216 -19.152  0.00  0.00    +0.048 C 
ATOM     15  C   UNL     1      37.125 -20.565 -19.754  0.00  0.00    +0.020 C 
ATOM     16  C   UNL     1      37.254 -19.058 -21.888  0.00  0.00    +0.247 C 
ATOM     17  H   UNL     1      34.031 -21.296 -19.678  0.00  0.00    +0.152 HD
ATOM     18  H   UNL     1      36.739 -18.006 -23.571  0.00  0.00    +0.150 HD
ENDBRANCH   2  14
BRANCH   4  20
ATOM     19  N   UNL     1      32.570 -25.160 -14.058  0.00  0.00    -0.244 NA
ATOM     20  C   UNL     1      33.645 -23.825 -15.758  0.00  0.00    +0.037 C 
ATOM     21  C   UNL     1      32.406 -23.538 -16.313  0.00  0.00    +0.005 C 
ATOM     22  C   UNL     1      31.240 -24.063 -15.741  0.00  0.00    +0.018 C 
ATOM     23  C   UNL     1      31.369 -24.881 -14.598  0.00  0.00    +0.081 C 
ATOM     24  C   UNL     1      33.672 -24.635 -14.640  0.00  0.00    +0.100 C 
ATOM     25  C   UNL     1      29.969 -23.791 -16.278  0.00  0.00    +0.001 C 
ATOM     26  C   UNL     1      30.210 -25.401 -14.030  0.00  0.00    +0.019 C 
ATOM     27  C   UNL     1      28.826 -24.326 -15.689  0.00  0.00    +0.000 C 
ATOM     28  C   UNL     1      28.947 -25.131 -14.564  0.00  0.00    +0.002 C 
ENDBRANCH   4  20
TORSDOF 2
ENDMDL
