MODEL 1
REMARK VINA RESULT:     -12.0      0.000      0.000
REMARK  Name = 60149
REMARK  5 active torsions:
REMARK  status: ('A' for Active; 'I' for Inactive)
REMARK    1  A    between atoms: N_2  and  C_12
REMARK    2  A    between atoms: C_3  and  C_19
REMARK    3  A    between atoms: N_18  and  C_25
REMARK    4  A    between atoms: C_25  and  C_26
REMARK    5  A    between atoms: C_26  and  N_28
REMARK                            x       y       z     vdW  Elec       q    Type
REMARK                         _______ _______ _______ _____ _____    ______ ____
ROOT
ATOM      1 CL   UNL     1      29.231 -23.359 -16.264  0.00  0.00    -0.082 Cl
ATOM      2  N   UNL     1      35.019 -23.858 -15.638  0.00  0.00    -0.265 N 
ATOM      3  C   UNL     1      34.362 -22.995 -17.568  0.00  0.00    -0.006 C 
ATOM      4  C   UNL     1      33.203 -23.283 -16.800  0.00  0.00    +0.012 C 
ATOM      5  C   UNL     1      35.462 -23.357 -16.832  0.00  0.00    +0.065 C 
ATOM      6  C   UNL     1      33.643 -23.824 -15.590  0.00  0.00    +0.055 C 
ATOM      7  C   UNL     1      31.817 -23.136 -17.013  0.00  0.00    +0.012 C 
ATOM      8  C   UNL     1      32.763 -24.227 -14.579  0.00  0.00    +0.016 C 
ATOM      9  C   UNL     1      30.927 -23.536 -16.011  0.00  0.00    +0.058 C 
ATOM     10  C   UNL     1      31.395 -24.073 -14.813  0.00  0.00    +0.013 C 
ENDROOT
BRANCH   2  12
ATOM     11  F   UNL     1      38.336 -25.708 -11.645  0.00  0.00    -0.204 F 
ATOM     12  C   UNL     1      35.860 -24.327 -14.625  0.00  0.00    +0.056 C 
ATOM     13  C   UNL     1      36.366 -25.616 -14.702  0.00  0.00    +0.017 C 
ATOM     14  C   UNL     1      36.175 -23.495 -13.560  0.00  0.00    +0.017 C 
ATOM     15  C   UNL     1      37.205 -26.085 -13.690  0.00  0.00    +0.031 C 
ATOM     16  C   UNL     1      37.014 -23.964 -12.549  0.00  0.00    +0.031 C 
ATOM     17  C   UNL     1      37.530 -25.259 -12.614  0.00  0.00    +0.140 C 
ENDBRANCH   2  12
BRANCH   3  19
ATOM     18  N   UNL     1      34.527 -20.143 -20.831  0.00  0.00    +0.388 N 
ATOM     19  C   UNL     1      34.389 -22.395 -18.956  0.00  0.00    +0.019 C 
ATOM     20  C   UNL     1      33.190 -21.473 -19.229  0.00  0.00    -0.018 C 
ATOM     21  C   UNL     1      35.698 -21.648 -19.255  0.00  0.00    -0.018 C 
ATOM     22  C   UNL     1      33.263 -20.866 -20.632  0.00  0.00    -0.077 C 
ATOM     23  C   UNL     1      35.681 -21.033 -20.657  0.00  0.00    -0.077 C 
ATOM     24  H   UNL     1      34.584 -19.410 -20.124  0.00  0.00    -0.080 HD
BRANCH  18  25
ATOM     25  C   UNL     1      34.556 -19.521 -22.155  0.00  0.00    -0.055 C 
BRANCH  25  26
ATOM     26  C   UNL     1      35.745 -18.579 -22.270  0.00  0.00    +0.077 C 
BRANCH  26  28
ATOM     27  O   UNL     1      35.034 -16.980 -24.714  0.00  0.00    -0.252 OA
ATOM     28  N   UNL     1      35.316 -17.211 -22.382  0.00  0.00    -0.243 N 
ATOM     29  N   UNL     1      34.597 -15.236 -23.215  0.00  0.00    -0.266 N 
ATOM     30  C   UNL     1      35.080 -16.372 -21.220  0.00  0.00    +0.085 C 
ATOM     31  C   UNL     1      34.710 -15.014 -21.796  0.00  0.00    +0.082 C 
ATOM     32  C   UNL     1      34.990 -16.535 -23.574  0.00  0.00    +0.311 C 
ATOM     33  H   UNL     1      34.281 -14.557 -23.856  0.00  0.00    +0.157 HD
ENDBRANCH  26  28
ENDBRANCH  25  26
ENDBRANCH  18  25
ENDBRANCH   3  19
TORSDOF 5
ENDMDL
MODEL 2
REMARK VINA RESULT:     -10.8      2.985      4.491
REMARK  Name = 60149
REMARK  5 active torsions:
REMARK  status: ('A' for Active; 'I' for Inactive)
REMARK    1  A    between atoms: N_2  and  C_12
REMARK    2  A    between atoms: C_3  and  C_19
REMARK    3  A    between atoms: N_18  and  C_25
REMARK    4  A    between atoms: C_25  and  C_26
REMARK    5  A    between atoms: C_26  and  N_28
REMARK                            x       y       z     vdW  Elec       q    Type
REMARK                         _______ _______ _______ _____ _____    ______ ____
ROOT
ATOM      1 CL   UNL     1      38.479 -23.477 -15.317  0.00  0.00    -0.082 Cl
ATOM      2  N   UNL     1      32.786 -23.557 -16.628  0.00  0.00    -0.265 N 
ATOM      3  C   UNL     1      34.082 -22.626 -18.163  0.00  0.00    -0.006 C 
ATOM      4  C   UNL     1      34.910 -23.053 -17.090  0.00  0.00    +0.012 C 
ATOM      5  C   UNL     1      32.785 -22.948 -17.853  0.00  0.00    +0.065 C 
ATOM      6  C   UNL     1      34.071 -23.636 -16.138  0.00  0.00    +0.055 C 
ATOM      7  C   UNL     1      36.295 -23.002 -16.834  0.00  0.00    +0.012 C 
ATOM      8  C   UNL     1      34.550 -24.173 -14.938  0.00  0.00    +0.016 C 
ATOM      9  C   UNL     1      36.787 -23.534 -15.637  0.00  0.00    +0.058 C 
ATOM     10  C   UNL     1      35.926 -24.110 -14.705  0.00  0.00    +0.013 C 
ENDROOT
BRANCH   2  12
ATOM     11  F   UNL     1      28.256 -25.414 -14.097  0.00  0.00    -0.204 F 
ATOM     12  C   UNL     1      31.637 -24.028 -15.986  0.00  0.00    +0.056 C 
ATOM     13  C   UNL     1      30.396 -23.538 -16.363  0.00  0.00    +0.017 C 
ATOM     14  C   UNL     1      31.758 -24.978 -14.982  0.00  0.00    +0.017 C 
ATOM     15  C   UNL     1      29.249 -24.007 -15.721  0.00  0.00    +0.031 C 
ATOM     16  C   UNL     1      30.611 -25.447 -14.340  0.00  0.00    +0.031 C 
ATOM     17  C   UNL     1      29.356 -24.962 -14.711  0.00  0.00    +0.140 C 
ENDBRANCH   2  12
BRANCH   3  19
ATOM     18  N   UNL     1      35.341 -19.577 -20.977  0.00  0.00    +0.388 N 
ATOM     19  C   UNL     1      34.541 -21.936 -19.427  0.00  0.00    +0.019 C 
ATOM     20  C   UNL     1      33.526 -20.902 -19.941  0.00  0.00    -0.018 C 
ATOM     21  C   UNL     1      35.922 -21.279 -19.278  0.00  0.00    -0.018 C 
ATOM     22  C   UNL     1      34.033 -20.207 -21.207  0.00  0.00    -0.077 C 
ATOM     23  C   UNL     1      36.343 -20.569 -20.567  0.00  0.00    -0.077 C 
ATOM     24  H   UNL     1      35.237 -18.903 -20.220  0.00  0.00    -0.080 HD
BRANCH  18  25
ATOM     25  C   UNL     1      35.785 -18.869 -22.179  0.00  0.00    -0.055 C 
BRANCH  25  26
ATOM     26  C   UNL     1      34.973 -19.316 -23.385  0.00  0.00    +0.077 C 
BRANCH  26  28
ATOM     27  O   UNL     1      33.333 -19.238 -25.903  0.00  0.00    -0.252 OA
ATOM     28  N   UNL     1      34.537 -18.190 -24.166  0.00  0.00    -0.243 N 
ATOM     29  N   UNL     1      33.545 -16.912 -25.746  0.00  0.00    -0.266 N 
ATOM     30  C   UNL     1      34.795 -16.818 -23.763  0.00  0.00    +0.085 C 
ATOM     31  C   UNL     1      34.225 -15.973 -24.891  0.00  0.00    +0.082 C 
ATOM     32  C   UNL     1      33.757 -18.238 -25.337  0.00  0.00    +0.311 C 
ATOM     33  H   UNL     1      32.998 -16.655 -26.524  0.00  0.00    +0.157 HD
ENDBRANCH  26  28
ENDBRANCH  25  26
ENDBRANCH  18  25
ENDBRANCH   3  19
TORSDOF 5
ENDMDL
MODEL 3
REMARK VINA RESULT:     -10.3      2.939      4.387
REMARK  Name = 60149
REMARK  5 active torsions:
REMARK  status: ('A' for Active; 'I' for Inactive)
REMARK    1  A    between atoms: N_2  and  C_12
REMARK    2  A    between atoms: C_3  and  C_19
REMARK    3  A    between atoms: N_18  and  C_25
REMARK    4  A    between atoms: C_25  and  C_26
REMARK    5  A    between atoms: C_26  and  N_28
REMARK                            x       y       z     vdW  Elec       q    Type
REMARK                         _______ _______ _______ _____ _____    ______ ____
ROOT
ATOM      1 CL   UNL     1      38.404 -23.060 -15.766  0.00  0.00    -0.082 Cl
ATOM      2  N   UNL     1      32.647 -23.485 -16.667  0.00  0.00    -0.265 N 
ATOM      3  C   UNL     1      33.784 -22.557 -18.325  0.00  0.00    -0.006 C 
ATOM      4  C   UNL     1      34.704 -22.895 -17.298  0.00  0.00    +0.012 C 
ATOM      5  C   UNL     1      32.530 -22.930 -17.912  0.00  0.00    +0.065 C 
ATOM      6  C   UNL     1      33.965 -23.478 -16.267  0.00  0.00    +0.055 C 
ATOM      7  C   UNL     1      36.099 -22.763 -17.142  0.00  0.00    +0.012 C 
ATOM      8  C   UNL     1      34.553 -23.937 -15.083  0.00  0.00    +0.016 C 
ATOM      9  C   UNL     1      36.699 -23.217 -15.963  0.00  0.00    +0.058 C 
ATOM     10  C   UNL     1      35.937 -23.795 -14.950  0.00  0.00    +0.013 C 
ENDROOT
BRANCH   2  12
ATOM     11  F   UNL     1      28.407 -25.457 -13.750  0.00  0.00    -0.204 F 
ATOM     12  C   UNL     1      31.572 -23.985 -15.927  0.00  0.00    +0.056 C 
ATOM     13  C   UNL     1      31.807 -24.919 -14.928  0.00  0.00    +0.017 C 
ATOM     14  C   UNL     1      30.288 -23.540 -16.204  0.00  0.00    +0.017 C 
ATOM     15  C   UNL     1      30.733 -25.419 -14.190  0.00  0.00    +0.031 C 
ATOM     16  C   UNL     1      29.214 -24.040 -15.467  0.00  0.00    +0.031 C 
ATOM     17  C   UNL     1      29.437 -24.979 -14.459  0.00  0.00    +0.140 C 
ENDBRANCH   2  12
BRANCH   3  19
ATOM     18  N   UNL     1      34.749 -19.581 -21.327  0.00  0.00    +0.388 N 
ATOM     19  C   UNL     1      34.117 -21.900 -19.646  0.00  0.00    +0.019 C 
ATOM     20  C   UNL     1      33.050 -20.887 -20.091  0.00  0.00    -0.018 C 
ATOM     21  C   UNL     1      35.501 -21.230 -19.643  0.00  0.00    -0.018 C 
ATOM     22  C   UNL     1      33.432 -20.225 -21.417  0.00  0.00    -0.077 C 
ATOM     23  C   UNL     1      35.794 -20.554 -20.985  0.00  0.00    -0.077 C 
ATOM     24  H   UNL     1      34.709 -18.886 -20.582  0.00  0.00    -0.080 HD
BRANCH  18  25
ATOM     25  C   UNL     1      35.073 -18.904 -22.584  0.00  0.00    -0.055 C 
BRANCH  25  26
ATOM     26  C   UNL     1      36.017 -17.738 -22.327  0.00  0.00    +0.077 C 
BRANCH  26  28
ATOM     27  O   UNL     1      35.046 -16.287 -19.881  0.00  0.00    -0.252 OA
ATOM     28  N   UNL     1      35.296 -16.499 -22.218  0.00  0.00    -0.243 N 
ATOM     29  N   UNL     1      34.244 -14.680 -21.383  0.00  0.00    -0.266 N 
ATOM     30  C   UNL     1      34.979 -15.679 -23.374  0.00  0.00    +0.085 C 
ATOM     31  C   UNL     1      34.172 -14.519 -22.813  0.00  0.00    +0.082 C 
ATOM     32  C   UNL     1      34.883 -15.877 -21.024  0.00  0.00    +0.311 C 
ATOM     33  H   UNL     1      33.887 -14.029 -20.736  0.00  0.00    +0.157 HD
ENDBRANCH  26  28
ENDBRANCH  25  26
ENDBRANCH  18  25
ENDBRANCH   3  19
TORSDOF 5
ENDMDL
MODEL 4
REMARK VINA RESULT:      -9.8      1.197      1.766
REMARK  Name = 60149
REMARK  5 active torsions:
REMARK  status: ('A' for Active; 'I' for Inactive)
REMARK    1  A    between atoms: N_2  and  C_12
REMARK    2  A    between atoms: C_3  and  C_19
REMARK    3  A    between atoms: N_18  and  C_25
REMARK    4  A    between atoms: C_25  and  C_26
REMARK    5  A    between atoms: C_26  and  N_28
REMARK                            x       y       z     vdW  Elec       q    Type
REMARK                         _______ _______ _______ _____ _____    ______ ____
ROOT
ATOM      1 CL   UNL     1      29.564 -23.572 -16.359  0.00  0.00    -0.082 Cl
ATOM      2  N   UNL     1      35.262 -24.184 -15.219  0.00  0.00    -0.265 N 
ATOM      3  C   UNL     1      34.789 -22.831 -16.907  0.00  0.00    -0.006 C 
ATOM      4  C   UNL     1      33.565 -23.326 -16.386  0.00  0.00    +0.012 C 
ATOM      5  C   UNL     1      35.814 -23.373 -16.173  0.00  0.00    +0.065 C 
ATOM      6  C   UNL     1      33.889 -24.174 -15.325  0.00  0.00    +0.055 C 
ATOM      7  C   UNL     1      32.207 -23.136 -16.712  0.00  0.00    +0.012 C 
ATOM      8  C   UNL     1      32.919 -24.844 -14.571  0.00  0.00    +0.016 C 
ATOM      9  C   UNL     1      31.227 -23.801 -15.967  0.00  0.00    +0.058 C 
ATOM     10  C   UNL     1      31.579 -24.641 -14.913  0.00  0.00    +0.013 C 
ENDROOT
BRANCH   2  12
ATOM     11  F   UNL     1      38.186 -27.032 -11.516  0.00  0.00    -0.204 F 
ATOM     12  C   UNL     1      36.003 -24.906 -14.280  0.00  0.00    +0.056 C 
ATOM     13  C   UNL     1      36.657 -26.065 -14.672  0.00  0.00    +0.017 C 
ATOM     14  C   UNL     1      36.073 -24.452 -12.971  0.00  0.00    +0.017 C 
ATOM     15  C   UNL     1      37.396 -26.787 -13.734  0.00  0.00    +0.031 C 
ATOM     16  C   UNL     1      36.813 -25.173 -12.033  0.00  0.00    +0.031 C 
ATOM     17  C   UNL     1      37.475 -26.340 -12.415  0.00  0.00    +0.140 C 
ENDBRANCH   2  12
BRANCH   3  19
ATOM     18  N   UNL     1      35.443 -21.246 -20.890  0.00  0.00    +0.388 N 
ATOM     19  C   UNL     1      34.947 -21.875 -18.068  0.00  0.00    +0.019 C 
ATOM     20  C   UNL     1      36.352 -21.923 -18.690  0.00  0.00    -0.018 C 
ATOM     21  C   UNL     1      33.887 -22.087 -19.160  0.00  0.00    -0.018 C 
ATOM     22  C   UNL     1      36.468 -20.962 -19.876  0.00  0.00    -0.077 C 
ATOM     23  C   UNL     1      34.092 -21.120 -20.329  0.00  0.00    -0.077 C 
ATOM     24  H   UNL     1      35.567 -22.209 -21.201  0.00  0.00    -0.080 HD
BRANCH  18  25
ATOM     25  C   UNL     1      35.604 -20.357 -22.041  0.00  0.00    -0.055 C 
BRANCH  25  26
ATOM     26  C   UNL     1      34.344 -19.529 -22.249  0.00  0.00    +0.077 C 
BRANCH  26  28
ATOM     27  O   UNL     1      35.565 -16.800 -21.937  0.00  0.00    -0.252 OA
ATOM     28  N   UNL     1      34.555 -18.498 -23.228  0.00  0.00    -0.243 N 
ATOM     29  N   UNL     1      35.178 -16.571 -24.234  0.00  0.00    -0.266 N 
ATOM     30  C   UNL     1      34.245 -18.686 -24.635  0.00  0.00    +0.085 C 
ATOM     31  C   UNL     1      34.559 -17.345 -25.279  0.00  0.00    +0.082 C 
ATOM     32  C   UNL     1      35.148 -17.240 -23.000  0.00  0.00    +0.311 C 
ATOM     33  H   UNL     1      35.575 -15.679 -24.369  0.00  0.00    +0.157 HD
ENDBRANCH  26  28
ENDBRANCH  25  26
ENDBRANCH  18  25
ENDBRANCH   3  19
TORSDOF 5
ENDMDL
MODEL 5
REMARK VINA RESULT:      -9.5      7.949     14.179
REMARK  Name = 60149
REMARK  5 active torsions:
REMARK  status: ('A' for Active; 'I' for Inactive)
REMARK    1  A    between atoms: N_2  and  C_12
REMARK    2  A    between atoms: C_3  and  C_19
REMARK    3  A    between atoms: N_18  and  C_25
REMARK    4  A    between atoms: C_25  and  C_26
REMARK    5  A    between atoms: C_26  and  N_28
REMARK                            x       y       z     vdW  Elec       q    Type
REMARK                         _______ _______ _______ _____ _____    ______ ____
ROOT
ATOM      1 CL   UNL     1      31.532 -10.732 -17.722  0.00  0.00    -0.082 Cl
ATOM      2  N   UNL     1      32.879  -8.942 -23.118  0.00  0.00    -0.265 N 
ATOM      3  C   UNL     1      32.847 -11.140 -22.846  0.00  0.00    -0.006 C 
ATOM      4  C   UNL     1      32.520 -10.539 -21.602  0.00  0.00    +0.012 C 
ATOM      5  C   UNL     1      33.063 -10.138 -23.759  0.00  0.00    +0.065 C 
ATOM      6  C   UNL     1      32.546  -9.157 -21.800  0.00  0.00    +0.055 C 
ATOM      7  C   UNL     1      32.202 -11.035 -20.321  0.00  0.00    +0.012 C 
ATOM      8  C   UNL     1      32.269  -8.242 -20.777  0.00  0.00    +0.016 C 
ATOM      9  C   UNL     1      31.924 -10.132 -19.290  0.00  0.00    +0.058 C 
ATOM     10  C   UNL     1      31.957  -8.757 -19.516  0.00  0.00    +0.013 C 
ENDROOT
BRANCH   2  12
ATOM     11  F   UNL     1      33.405  -4.024 -25.549  0.00  0.00    -0.204 F 
ATOM     12  C   UNL     1      33.013  -7.695 -23.735  0.00  0.00    +0.056 C 
ATOM     13  C   UNL     1      34.280  -7.191 -23.987  0.00  0.00    +0.017 C 
ATOM     14  C   UNL     1      31.875  -6.982 -24.083  0.00  0.00    +0.017 C 
ATOM     15  C   UNL     1      34.413  -5.945 -24.602  0.00  0.00    +0.031 C 
ATOM     16  C   UNL     1      32.008  -5.736 -24.698  0.00  0.00    +0.031 C 
ATOM     17  C   UNL     1      33.277  -5.218 -24.958  0.00  0.00    +0.140 C 
ENDBRANCH   2  12
BRANCH   3  19
ATOM     18  N   UNL     1      34.378 -15.032 -23.990  0.00  0.00    +0.388 N 
ATOM     19  C   UNL     1      32.945 -12.623 -23.126  0.00  0.00    +0.019 C 
ATOM     20  C   UNL     1      33.228 -12.930 -24.606  0.00  0.00    -0.018 C 
ATOM     21  C   UNL     1      33.986 -13.327 -22.241  0.00  0.00    -0.018 C 
ATOM     22  C   UNL     1      33.344 -14.437 -24.847  0.00  0.00    -0.077 C 
ATOM     23  C   UNL     1      34.076 -14.819 -22.569  0.00  0.00    -0.077 C 
ATOM     24  H   UNL     1      35.263 -14.570 -24.196  0.00  0.00    -0.080 HD
BRANCH  18  25
ATOM     25  C   UNL     1      34.517 -16.461 -24.274  0.00  0.00    -0.055 C 
BRANCH  25  26
ATOM     26  C   UNL     1      35.708 -17.036 -23.522  0.00  0.00    +0.077 C 
BRANCH  26  28
ATOM     27  O   UNL     1      35.596 -17.192 -20.522  0.00  0.00    -0.252 OA
ATOM     28  N   UNL     1      35.310 -18.125 -22.671  0.00  0.00    -0.243 N 
ATOM     29  N   UNL     1      34.799 -19.368 -20.853  0.00  0.00    -0.266 N 
ATOM     30  C   UNL     1      34.795 -19.376 -23.199  0.00  0.00    +0.085 C 
ATOM     31  C   UNL     1      34.566 -20.245 -21.972  0.00  0.00    +0.082 C 
ATOM     32  C   UNL     1      35.276 -18.113 -21.263  0.00  0.00    +0.311 C 
ATOM     33  H   UNL     1      34.644 -19.620 -19.913  0.00  0.00    +0.157 HD
ENDBRANCH  26  28
ENDBRANCH  25  26
ENDBRANCH  18  25
ENDBRANCH   3  19
TORSDOF 5
ENDMDL
MODEL 6
REMARK VINA RESULT:      -9.5      8.822     15.014
REMARK  Name = 60149
REMARK  5 active torsions:
REMARK  status: ('A' for Active; 'I' for Inactive)
REMARK    1  A    between atoms: N_2  and  C_12
REMARK    2  A    between atoms: C_3  and  C_19
REMARK    3  A    between atoms: N_18  and  C_25
REMARK    4  A    between atoms: C_25  and  C_26
REMARK    5  A    between atoms: C_26  and  N_28
REMARK                            x       y       z     vdW  Elec       q    Type
REMARK                         _______ _______ _______ _____ _____    ______ ____
ROOT
ATOM      1 CL   UNL     1      31.590 -10.419 -18.634  0.00  0.00    -0.082 Cl
ATOM      2  N   UNL     1      33.103  -7.986 -23.726  0.00  0.00    -0.265 N 
ATOM      3  C   UNL     1      33.361 -10.184 -23.630  0.00  0.00    -0.006 C 
ATOM      4  C   UNL     1      32.852  -9.747 -22.378  0.00  0.00    +0.012 C 
ATOM      5  C   UNL     1      33.506  -9.084 -24.438  0.00  0.00    +0.065 C 
ATOM      6  C   UNL     1      32.698  -8.362 -22.465  0.00  0.00    +0.055 C 
ATOM      7  C   UNL     1      32.505 -10.395 -21.175  0.00  0.00    +0.012 C 
ATOM      8  C   UNL     1      32.211  -7.589 -21.404  0.00  0.00    +0.016 C 
ATOM      9  C   UNL     1      32.018  -9.634 -20.107  0.00  0.00    +0.058 C 
ATOM     10  C   UNL     1      31.874  -8.252 -20.221  0.00  0.00    +0.013 C 
ENDROOT
BRANCH   2  12
ATOM     11  F   UNL     1      33.120  -2.843 -25.705  0.00  0.00    -0.204 F 
ATOM     12  C   UNL     1      33.107  -6.682 -24.228  0.00  0.00    +0.056 C 
ATOM     13  C   UNL     1      32.002  -5.869 -24.024  0.00  0.00    +0.017 C 
ATOM     14  C   UNL     1      34.217  -6.223 -24.922  0.00  0.00    +0.017 C 
ATOM     15  C   UNL     1      32.006  -4.567 -24.526  0.00  0.00    +0.031 C 
ATOM     16  C   UNL     1      34.221  -4.921 -25.424  0.00  0.00    +0.031 C 
ATOM     17  C   UNL     1      33.116  -4.093 -25.225  0.00  0.00    +0.140 C 
ENDBRANCH   2  12
BRANCH   3  19
ATOM     18  N   UNL     1      32.980 -14.302 -24.932  0.00  0.00    +0.388 N 
ATOM     19  C   UNL     1      33.692 -11.608 -24.014  0.00  0.00    +0.019 C 
ATOM     20  C   UNL     1      33.018 -12.642 -23.097  0.00  0.00    -0.018 C 
ATOM     21  C   UNL     1      33.360 -11.920 -25.482  0.00  0.00    -0.018 C 
ATOM     22  C   UNL     1      33.354 -14.071 -23.530  0.00  0.00    -0.077 C 
ATOM     23  C   UNL     1      33.683 -13.375 -25.828  0.00  0.00    -0.077 C 
ATOM     24  H   UNL     1      31.979 -14.130 -25.023  0.00  0.00    -0.080 HD
BRANCH  18  25
ATOM     25  C   UNL     1      33.255 -15.688 -25.313  0.00  0.00    -0.055 C 
BRANCH  25  26
ATOM     26  C   UNL     1      34.678 -16.068 -24.931  0.00  0.00    +0.077 C 
BRANCH  26  28
ATOM     27  O   UNL     1      33.810 -18.777 -25.903  0.00  0.00    -0.252 OA
ATOM     28  N   UNL     1      34.716 -17.341 -24.264  0.00  0.00    -0.243 N 
ATOM     29  N   UNL     1      34.540 -19.550 -23.817  0.00  0.00    -0.266 N 
ATOM     30  C   UNL     1      35.298 -17.509 -22.943  0.00  0.00    +0.085 C 
ATOM     31  C   UNL     1      35.068 -18.974 -22.607  0.00  0.00    +0.082 C 
ATOM     32  C   UNL     1      34.296 -18.575 -24.797  0.00  0.00    +0.311 C 
ATOM     33  H   UNL     1      34.370 -20.513 -23.941  0.00  0.00    +0.157 HD
ENDBRANCH  26  28
ENDBRANCH  25  26
ENDBRANCH  18  25
ENDBRANCH   3  19
TORSDOF 5
ENDMDL
MODEL 7
REMARK VINA RESULT:      -9.4     10.090     14.007
REMARK  Name = 60149
REMARK  5 active torsions:
REMARK  status: ('A' for Active; 'I' for Inactive)
REMARK    1  A    between atoms: N_2  and  C_12
REMARK    2  A    between atoms: C_3  and  C_19
REMARK    3  A    between atoms: N_18  and  C_25
REMARK    4  A    between atoms: C_25  and  C_26
REMARK    5  A    between atoms: C_26  and  N_28
REMARK                            x       y       z     vdW  Elec       q    Type
REMARK                         _______ _______ _______ _____ _____    ______ ____
ROOT
ATOM      1 CL   UNL     1      31.190 -10.572 -18.967  0.00  0.00    -0.082 Cl
ATOM      2  N   UNL     1      33.439 -12.974 -23.795  0.00  0.00    -0.265 N 
ATOM      3  C   UNL     1      33.283 -10.766 -23.839  0.00  0.00    -0.006 C 
ATOM      4  C   UNL     1      32.785 -11.216 -22.588  0.00  0.00    +0.012 C 
ATOM      5  C   UNL     1      33.678 -11.864 -24.560  0.00  0.00    +0.065 C 
ATOM      6  C   UNL     1      32.894 -12.608 -22.585  0.00  0.00    +0.055 C 
ATOM      7  C   UNL     1      32.249 -10.575 -21.452  0.00  0.00    +0.012 C 
ATOM      8  C   UNL     1      32.493 -13.394 -21.499  0.00  0.00    +0.016 C 
ATOM      9  C   UNL     1      31.844 -11.349 -20.360  0.00  0.00    +0.058 C 
ATOM     10  C   UNL     1      31.965 -12.737 -20.385  0.00  0.00    +0.013 C 
ENDROOT
BRANCH   2  12
ATOM     11  F   UNL     1      34.543 -18.129 -25.403  0.00  0.00    -0.204 F 
ATOM     12  C   UNL     1      33.719 -14.281 -24.203  0.00  0.00    +0.056 C 
ATOM     13  C   UNL     1      33.154 -14.767 -25.373  0.00  0.00    +0.017 C 
ATOM     14  C   UNL     1      34.557 -15.072 -23.430  0.00  0.00    +0.017 C 
ATOM     15  C   UNL     1      33.432 -16.072 -25.779  0.00  0.00    +0.031 C 
ATOM     16  C   UNL     1      34.835 -16.377 -23.837  0.00  0.00    +0.031 C 
ATOM     17  C   UNL     1      34.274 -16.877 -25.012  0.00  0.00    +0.140 C 
ENDBRANCH   2  12
BRANCH   3  19
ATOM     18  N   UNL     1      33.301  -6.430 -23.869  0.00  0.00    +0.388 N 
ATOM     19  C   UNL     1      33.367  -9.330 -24.305  0.00  0.00    +0.019 C 
ATOM     20  C   UNL     1      32.056  -8.557 -24.088  0.00  0.00    -0.018 C 
ATOM     21  C   UNL     1      34.535  -8.564 -23.663  0.00  0.00    -0.018 C 
ATOM     22  C   UNL     1      32.186  -7.103 -24.549  0.00  0.00    -0.077 C 
ATOM     23  C   UNL     1      34.574  -7.109 -24.138  0.00  0.00    -0.077 C 
ATOM     24  H   UNL     1      33.128  -6.470 -22.865  0.00  0.00    -0.080 HD
BRANCH  18  25
ATOM     25  C   UNL     1      33.375  -5.026 -24.277  0.00  0.00    -0.055 C 
BRANCH  25  26
ATOM     26  C   UNL     1      32.038  -4.569 -24.842  0.00  0.00    +0.077 C 
BRANCH  26  28
ATOM     27  O   UNL     1      30.743  -5.221 -22.209  0.00  0.00    -0.252 OA
ATOM     28  N   UNL     1      31.348  -3.710 -23.918  0.00  0.00    -0.243 N 
ATOM     29  N   UNL     1      30.237  -2.938 -22.107  0.00  0.00    -0.266 N 
ATOM     30  C   UNL     1      31.243  -2.276 -24.121  0.00  0.00    +0.085 C 
ATOM     31  C   UNL     1      30.394  -1.786 -22.958  0.00  0.00    +0.082 C 
ATOM     32  C   UNL     1      30.774  -4.096 -22.691  0.00  0.00    +0.311 C 
ATOM     33  H   UNL     1      29.804  -2.915 -21.223  0.00  0.00    +0.157 HD
ENDBRANCH  26  28
ENDBRANCH  25  26
ENDBRANCH  18  25
ENDBRANCH   3  19
TORSDOF 5
ENDMDL
MODEL 8
REMARK VINA RESULT:      -9.2      1.176      1.289
REMARK  Name = 60149
REMARK  5 active torsions:
REMARK  status: ('A' for Active; 'I' for Inactive)
REMARK    1  A    between atoms: N_2  and  C_12
REMARK    2  A    between atoms: C_3  and  C_19
REMARK    3  A    between atoms: N_18  and  C_25
REMARK    4  A    between atoms: C_25  and  C_26
REMARK    5  A    between atoms: C_26  and  N_28
REMARK                            x       y       z     vdW  Elec       q    Type
REMARK                         _______ _______ _______ _____ _____    ______ ____
ROOT
ATOM      1 CL   UNL     1      29.751 -22.772 -17.050  0.00  0.00    -0.082 Cl
ATOM      2  N   UNL     1      35.273 -23.826 -15.460  0.00  0.00    -0.265 N 
ATOM      3  C   UNL     1      35.038 -22.919 -17.466  0.00  0.00    -0.006 C 
ATOM      4  C   UNL     1      33.743 -23.087 -16.907  0.00  0.00    +0.012 C 
ATOM      5  C   UNL     1      35.957 -23.380 -16.558  0.00  0.00    +0.065 C 
ATOM      6  C   UNL     1      33.919 -23.659 -15.645  0.00  0.00    +0.055 C 
ATOM      7  C   UNL     1      32.435 -22.808 -17.350  0.00  0.00    +0.012 C 
ATOM      8  C   UNL     1      32.846 -23.967 -14.800  0.00  0.00    +0.016 C 
ATOM      9  C   UNL     1      31.353 -23.112 -16.516  0.00  0.00    +0.058 C 
ATOM     10  C   UNL     1      31.558 -23.682 -15.261  0.00  0.00    +0.013 C 
ENDROOT
BRANCH   2  12
ATOM     11  F   UNL     1      37.673 -25.959 -10.980  0.00  0.00    -0.204 F 
ATOM     12  C   UNL     1      35.881 -24.367 -14.324  0.00  0.00    +0.056 C 
ATOM     13  C   UNL     1      36.322 -25.682 -14.347  0.00  0.00    +0.017 C 
ATOM     14  C   UNL     1      36.034 -23.579 -13.192  0.00  0.00    +0.017 C 
ATOM     15  C   UNL     1      36.929 -26.222 -13.212  0.00  0.00    +0.031 C 
ATOM     16  C   UNL     1      36.640 -24.120 -12.058  0.00  0.00    +0.031 C 
ATOM     17  C   UNL     1      37.089 -25.441 -12.068  0.00  0.00    +0.140 C 
ENDBRANCH   2  12
BRANCH   3  19
ATOM     18  N   UNL     1      35.529 -20.129 -20.749  0.00  0.00    +0.388 N 
ATOM     19  C   UNL     1      35.358 -22.336 -18.824  0.00  0.00    +0.019 C 
ATOM     20  C   UNL     1      34.120 -21.756 -19.528  0.00  0.00    -0.018 C 
ATOM     21  C   UNL     1      36.470 -21.276 -18.769  0.00  0.00    -0.018 C 
ATOM     22  C   UNL     1      34.485 -21.154 -20.887  0.00  0.00    -0.077 C 
ATOM     23  C   UNL     1      36.749 -20.691 -20.156  0.00  0.00    -0.077 C 
ATOM     24  H   UNL     1      35.178 -19.405 -20.123  0.00  0.00    -0.080 HD
BRANCH  18  25
ATOM     25  C   UNL     1      35.825 -19.524 -22.049  0.00  0.00    -0.055 C 
BRANCH  25  26
ATOM     26  C   UNL     1      34.562 -19.444 -22.894  0.00  0.00    +0.077 C 
BRANCH  26  28
ATOM     27  O   UNL     1      32.953 -18.722 -25.328  0.00  0.00    -0.252 OA
ATOM     28  N   UNL     1      34.501 -18.206 -23.622  0.00  0.00    -0.243 N 
ATOM     29  N   UNL     1      33.937 -16.608 -25.119  0.00  0.00    -0.266 N 
ATOM     30  C   UNL     1      35.216 -17.017 -23.195  0.00  0.00    +0.085 C 
ATOM     31  C   UNL     1      34.922 -15.985 -24.273  0.00  0.00    +0.082 C 
ATOM     32  C   UNL     1      33.707 -17.944 -24.756  0.00  0.00    +0.311 C 
ATOM     33  H   UNL     1      33.480 -16.151 -25.862  0.00  0.00    +0.157 HD
ENDBRANCH  26  28
ENDBRANCH  25  26
ENDBRANCH  18  25
ENDBRANCH   3  19
TORSDOF 5
ENDMDL
MODEL 9
REMARK VINA RESULT:      -9.1      6.284     10.250
REMARK  Name = 60149
REMARK  5 active torsions:
REMARK  status: ('A' for Active; 'I' for Inactive)
REMARK    1  A    between atoms: N_2  and  C_12
REMARK    2  A    between atoms: C_3  and  C_19
REMARK    3  A    between atoms: N_18  and  C_25
REMARK    4  A    between atoms: C_25  and  C_26
REMARK    5  A    between atoms: C_26  and  N_28
REMARK                            x       y       z     vdW  Elec       q    Type
REMARK                         _______ _______ _______ _____ _____    ______ ____
ROOT
ATOM      1 CL   UNL     1      33.658 -15.294 -27.398  0.00  0.00    -0.082 Cl
ATOM      2  N   UNL     1      34.962 -17.125 -22.005  0.00  0.00    -0.265 N 
ATOM      3  C   UNL     1      34.227 -15.040 -22.129  0.00  0.00    -0.006 C 
ATOM      4  C   UNL     1      34.248 -15.576 -23.443  0.00  0.00    +0.012 C 
ATOM      5  C   UNL     1      34.669 -16.011 -21.266  0.00  0.00    +0.065 C 
ATOM      6  C   UNL     1      34.714 -16.888 -23.338  0.00  0.00    +0.055 C 
ATOM      7  C   UNL     1      33.917 -15.073 -24.718  0.00  0.00    +0.012 C 
ATOM      8  C   UNL     1      34.864 -17.727 -24.449  0.00  0.00    +0.016 C 
ATOM      9  C   UNL     1      34.063 -15.901 -25.836  0.00  0.00    +0.058 C 
ATOM     10  C   UNL     1      34.530 -17.207 -25.702  0.00  0.00    +0.013 C 
ENDROOT
BRANCH   2  12
ATOM     11  F   UNL     1      36.845 -21.843 -19.867  0.00  0.00    -0.204 F 
ATOM     12  C   UNL     1      35.439 -18.321 -21.463  0.00  0.00    +0.056 C 
ATOM     13  C   UNL     1      36.804 -18.490 -21.277  0.00  0.00    +0.017 C 
ATOM     14  C   UNL     1      34.541 -19.321 -21.119  0.00  0.00    +0.017 C 
ATOM     15  C   UNL     1      37.280 -19.685 -20.737  0.00  0.00    +0.031 C 
ATOM     16  C   UNL     1      35.018 -20.516 -20.579  0.00  0.00    +0.031 C 
ATOM     17  C   UNL     1      36.387 -20.697 -20.387  0.00  0.00    +0.140 C 
ENDBRANCH   2  12
BRANCH   3  19
ATOM     18  N   UNL     1      31.924 -11.386 -21.747  0.00  0.00    +0.388 N 
ATOM     19  C   UNL     1      33.796 -13.644 -21.738  0.00  0.00    +0.019 C 
ATOM     20  C   UNL     1      33.632 -12.712 -22.949  0.00  0.00    -0.018 C 
ATOM     21  C   UNL     1      32.510 -13.634 -20.896  0.00  0.00    -0.018 C 
ATOM     22  C   UNL     1      33.172 -11.317 -22.518  0.00  0.00    -0.077 C 
ATOM     23  C   UNL     1      32.090 -12.205 -20.540  0.00  0.00    -0.077 C 
ATOM     24  H   UNL     1      31.216 -11.828 -22.333  0.00  0.00    -0.080 HD
BRANCH  18  25
ATOM     25  C   UNL     1      31.468 -10.041 -21.392  0.00  0.00    -0.055 C 
BRANCH  25  26
ATOM     26  C   UNL     1      32.479  -9.002 -21.853  0.00  0.00    +0.077 C 
BRANCH  26  28
ATOM     27  O   UNL     1      32.828  -7.036 -19.606  0.00  0.00    -0.252 OA
ATOM     28  N   UNL     1      31.959  -7.669 -21.707  0.00  0.00    -0.243 N 
ATOM     29  N   UNL     1      31.513  -5.602 -20.908  0.00  0.00    -0.266 N 
ATOM     30  C   UNL     1      31.191  -7.016 -22.752  0.00  0.00    +0.085 C 
ATOM     31  C   UNL     1      30.798  -5.673 -22.157  0.00  0.00    +0.082 C 
ATOM     32  C   UNL     1      32.179  -6.803 -20.619  0.00  0.00    +0.311 C 
ATOM     33  H   UNL     1      31.531  -4.806 -20.327  0.00  0.00    +0.157 HD
ENDBRANCH  26  28
ENDBRANCH  25  26
ENDBRANCH  18  25
ENDBRANCH   3  19
TORSDOF 5
ENDMDL
