MODEL 1
REMARK VINA RESULT:     -11.9      0.000      0.000
REMARK  Name = 657077
REMARK  7 active torsions:
REMARK  status: ('A' for Active; 'I' for Inactive)
REMARK    1  A    between atoms: C_3  and  C_23
REMARK    2  A    between atoms: C_8  and  C_10
REMARK    3  A    between atoms: C_12  and  C_15
REMARK    4  A    between atoms: C_15  and  C_16
REMARK    5  A    between atoms: C_16  and  C_17
REMARK    6  A    between atoms: C_26  and  C_29
REMARK    7  A    between atoms: C_29  and  N_30
REMARK                            x       y       z     vdW  Elec       q    Type
REMARK                         _______ _______ _______ _____ _____    ______ ____
ROOT
ATOM      1  O   UNL     1      32.711 -15.422 -25.772  0.00  0.00    -0.270 OA
ATOM      2  N   UNL     1      34.462 -16.053 -24.357  0.00  0.00    -0.276 N 
ATOM      3  C   UNL     1      35.493 -18.241 -22.768  0.00  0.00    +0.026 C 
ATOM      4  C   UNL     1      35.290 -16.833 -22.175  0.00  0.00    +0.026 C 
ATOM      5  C   UNL     1      34.528 -18.475 -23.947  0.00  0.00    +0.026 C 
ATOM      6  C   UNL     1      35.394 -15.762 -23.261  0.00  0.00    +0.094 C 
ATOM      7  C   UNL     1      34.647 -17.361 -24.986  0.00  0.00    +0.094 C 
ATOM      8  C   UNL     1      33.475 -15.189 -24.837  0.00  0.00    +0.251 C 
ENDROOT
BRANCH   8  10
ATOM      9  N   UNL     1      32.423 -12.624 -22.320  0.00  0.00    -0.242 NA
ATOM     10  C   UNL     1      33.309 -13.891 -24.173  0.00  0.00    +0.072 C 
ATOM     11  C   UNL     1      33.848 -12.737 -24.723  0.00  0.00    +0.003 C 
ATOM     12  C   UNL     1      33.675 -11.520 -24.070  0.00  0.00    -0.003 C 
ATOM     13  C   UNL     1      32.613 -13.787 -22.984  0.00  0.00    +0.103 C 
ATOM     14  C   UNL     1      32.962 -11.519 -22.882  0.00  0.00    +0.095 C 
BRANCH  12  15
ATOM     15  C   UNL     1      34.239 -10.263 -24.629  0.00  0.00    +0.033 C 
BRANCH  15  16
ATOM     16  C   UNL     1      34.484  -9.160 -23.577  0.00  0.00    +0.031 C 
BRANCH  16  17
ATOM     17  C   UNL     1      33.676  -7.910 -23.830  0.00  0.00    -0.022 C 
ATOM     18  C   UNL     1      34.326  -6.742 -24.197  0.00  0.00    -0.004 C 
ATOM     19  C   UNL     1      32.298  -7.953 -23.690  0.00  0.00    -0.004 C 
ATOM     20  C   UNL     1      33.579  -5.588 -24.430  0.00  0.00    -0.000 C 
ATOM     21  C   UNL     1      31.551  -6.799 -23.924  0.00  0.00    -0.000 C 
ATOM     22  C   UNL     1      32.192  -5.616 -24.293  0.00  0.00    -0.000 C 
ENDBRANCH  16  17
ENDBRANCH  15  16
ENDBRANCH  12  15
ENDBRANCH   8  10
BRANCH   3  23
ATOM     23  C   UNL     1      35.376 -19.325 -21.713  0.00  0.00    -0.023 C 
ATOM     24  C   UNL     1      34.125 -19.841 -21.383  0.00  0.00    -0.011 C 
ATOM     25  C   UNL     1      36.522 -19.803 -21.079  0.00  0.00    -0.004 C 
ATOM     26  C   UNL     1      34.017 -20.837 -20.414  0.00  0.00    -0.045 C 
ATOM     27  C   UNL     1      36.414 -20.800 -20.109  0.00  0.00    -0.001 C 
ATOM     28  C   UNL     1      35.162 -21.317 -19.777  0.00  0.00    -0.006 C 
BRANCH  26  29
ATOM     29  C   UNL     1      32.679 -21.393 -20.058  0.00  0.00    -0.059 C 
BRANCH  29  30
ATOM     30  N   UNL     1      32.711 -22.171 -18.818  0.00  0.00    +0.383 N 
ATOM     31  H   UNL     1      33.653 -22.152 -18.429  0.00  0.00    -0.089 HD
ATOM     32  H   UNL     1      32.443 -23.135 -19.015  0.00  0.00    -0.089 HD
ATOM     33  H   UNL     1      32.058 -21.767 -18.147  0.00  0.00    -0.089 HD
ENDBRANCH  29  30
ENDBRANCH  26  29
ENDBRANCH   3  23
TORSDOF 7
ENDMDL
MODEL 2
REMARK VINA RESULT:     -10.4      5.112     12.991
REMARK  Name = 657077
REMARK  7 active torsions:
REMARK  status: ('A' for Active; 'I' for Inactive)
REMARK    1  A    between atoms: C_3  and  C_23
REMARK    2  A    between atoms: C_8  and  C_10
REMARK    3  A    between atoms: C_12  and  C_15
REMARK    4  A    between atoms: C_15  and  C_16
REMARK    5  A    between atoms: C_16  and  C_17
REMARK    6  A    between atoms: C_26  and  C_29
REMARK    7  A    between atoms: C_29  and  N_30
REMARK                            x       y       z     vdW  Elec       q    Type
REMARK                         _______ _______ _______ _____ _____    ______ ____
ROOT
ATOM      1  O   UNL     1      37.070 -21.833 -17.668  0.00  0.00    -0.270 OA
ATOM      2  N   UNL     1      36.004 -21.421 -19.709  0.00  0.00    -0.276 N 
ATOM      3  C   UNL     1      35.637 -19.432 -21.779  0.00  0.00    +0.026 C 
ATOM      4  C   UNL     1      34.440 -20.122 -21.096  0.00  0.00    +0.026 C 
ATOM      5  C   UNL     1      36.859 -19.413 -20.840  0.00  0.00    +0.026 C 
ATOM      6  C   UNL     1      34.829 -21.509 -20.584  0.00  0.00    +0.094 C 
ATOM      7  C   UNL     1      37.184 -20.817 -20.330  0.00  0.00    +0.094 C 
ATOM      8  C   UNL     1      36.077 -21.883 -18.393  0.00  0.00    +0.251 C 
ENDROOT
BRANCH   8  10
ATOM      9  N   UNL     1      32.498 -22.885 -17.941  0.00  0.00    -0.242 NA
ATOM     10  C   UNL     1      34.870 -22.472 -17.799  0.00  0.00    +0.072 C 
ATOM     11  C   UNL     1      34.931 -23.147 -16.588  0.00  0.00    +0.003 C 
ATOM     12  C   UNL     1      33.770 -23.694 -16.050  0.00  0.00    -0.003 C 
ATOM     13  C   UNL     1      33.647 -22.367 -18.432  0.00  0.00    +0.103 C 
ATOM     14  C   UNL     1      32.590 -23.537 -16.760  0.00  0.00    +0.095 C 
BRANCH  12  15
ATOM     15  C   UNL     1      33.796 -24.425 -14.755  0.00  0.00    +0.033 C 
BRANCH  15  16
ATOM     16  C   UNL     1      34.984 -24.053 -13.843  0.00  0.00    +0.031 C 
BRANCH  16  17
ATOM     17  C   UNL     1      36.203 -24.912 -14.078  0.00  0.00    -0.022 C 
ATOM     18  C   UNL     1      36.099 -26.033 -14.887  0.00  0.00    -0.004 C 
ATOM     19  C   UNL     1      37.404 -24.564 -13.480  0.00  0.00    -0.004 C 
ATOM     20  C   UNL     1      37.226 -26.826 -15.103  0.00  0.00    -0.000 C 
ATOM     21  C   UNL     1      38.530 -25.358 -13.697  0.00  0.00    -0.000 C 
ATOM     22  C   UNL     1      38.441 -26.490 -14.508  0.00  0.00    -0.000 C 
ENDBRANCH  16  17
ENDBRANCH  15  16
ENDBRANCH  12  15
ENDBRANCH   8  10
BRANCH   3  23
ATOM     23  C   UNL     1      35.283 -18.045 -22.281  0.00  0.00    -0.023 C 
ATOM     24  C   UNL     1      34.926 -17.860 -23.615  0.00  0.00    -0.011 C 
ATOM     25  C   UNL     1      35.314 -16.961 -21.406  0.00  0.00    -0.004 C 
ATOM     26  C   UNL     1      34.599 -16.586 -24.077  0.00  0.00    -0.045 C 
ATOM     27  C   UNL     1      34.987 -15.686 -21.868  0.00  0.00    -0.001 C 
ATOM     28  C   UNL     1      34.630 -15.498 -23.203  0.00  0.00    -0.006 C 
BRANCH  26  29
ATOM     29  C   UNL     1      34.216 -16.384 -25.504  0.00  0.00    -0.059 C 
BRANCH  29  30
ATOM     30  N   UNL     1      33.093 -15.455 -25.653  0.00  0.00    +0.383 N 
ATOM     31  H   UNL     1      33.444 -14.539 -25.932  0.00  0.00    -0.089 HD
ATOM     32  H   UNL     1      32.599 -15.375 -24.765  0.00  0.00    -0.089 HD
ATOM     33  H   UNL     1      32.454 -15.806 -26.367  0.00  0.00    -0.089 HD
ENDBRANCH  29  30
ENDBRANCH  26  29
ENDBRANCH   3  23
TORSDOF 7
ENDMDL
MODEL 3
REMARK VINA RESULT:     -10.3      3.030     11.993
REMARK  Name = 657077
REMARK  7 active torsions:
REMARK  status: ('A' for Active; 'I' for Inactive)
REMARK    1  A    between atoms: C_3  and  C_23
REMARK    2  A    between atoms: C_8  and  C_10
REMARK    3  A    between atoms: C_12  and  C_15
REMARK    4  A    between atoms: C_15  and  C_16
REMARK    5  A    between atoms: C_16  and  C_17
REMARK    6  A    between atoms: C_26  and  C_29
REMARK    7  A    between atoms: C_29  and  N_30
REMARK                            x       y       z     vdW  Elec       q    Type
REMARK                         _______ _______ _______ _____ _____    ______ ____
ROOT
ATOM      1  O   UNL     1      31.031 -10.522 -21.828  0.00  0.00    -0.270 OA
ATOM      2  N   UNL     1      32.649  -8.921 -22.364  0.00  0.00    -0.276 N 
ATOM      3  C   UNL     1      33.011  -6.195 -23.265  0.00  0.00    +0.026 C 
ATOM      4  C   UNL     1      33.702  -7.380 -23.967  0.00  0.00    +0.026 C 
ATOM      5  C   UNL     1      31.714  -6.658 -22.573  0.00  0.00    +0.026 C 
ATOM      6  C   UNL     1      33.918  -8.541 -22.996  0.00  0.00    +0.094 C 
ATOM      7  C   UNL     1      31.978  -7.840 -21.641  0.00  0.00    +0.094 C 
ATOM      8  C   UNL     1      32.081 -10.198 -22.380  0.00  0.00    +0.251 C 
ENDROOT
BRANCH   8  10
ATOM      9  N   UNL     1      33.731 -12.018 -25.205  0.00  0.00    -0.242 NA
ATOM     10  C   UNL     1      32.775 -11.254 -23.125  0.00  0.00    +0.072 C 
ATOM     11  C   UNL     1      33.128 -12.445 -22.508  0.00  0.00    +0.003 C 
ATOM     12  C   UNL     1      33.786 -13.428 -23.241  0.00  0.00    -0.003 C 
ATOM     13  C   UNL     1      33.093 -11.087 -24.460  0.00  0.00    +0.103 C 
ATOM     14  C   UNL     1      34.062 -13.167 -24.574  0.00  0.00    +0.095 C 
BRANCH  12  15
ATOM     15  C   UNL     1      34.181 -14.717 -22.614  0.00  0.00    +0.033 C 
BRANCH  15  16
ATOM     16  C   UNL     1      34.954 -15.666 -23.554  0.00  0.00    +0.031 C 
BRANCH  16  17
ATOM     17  C   UNL     1      35.045 -17.078 -23.027  0.00  0.00    -0.022 C 
ATOM     18  C   UNL     1      34.708 -18.136 -23.857  0.00  0.00    -0.004 C 
ATOM     19  C   UNL     1      35.465 -17.290 -21.724  0.00  0.00    -0.004 C 
ATOM     20  C   UNL     1      34.791 -19.440 -23.370  0.00  0.00    -0.000 C 
ATOM     21  C   UNL     1      35.550 -18.596 -21.238  0.00  0.00    -0.000 C 
ATOM     22  C   UNL     1      35.212 -19.670 -22.061  0.00  0.00    -0.000 C 
ENDBRANCH  16  17
ENDBRANCH  15  16
ENDBRANCH  12  15
ENDBRANCH   8  10
BRANCH   3  23
ATOM     23  C   UNL     1      32.769  -5.035 -24.212  0.00  0.00    -0.023 C 
ATOM     24  C   UNL     1      31.906  -4.006 -23.843  0.00  0.00    -0.011 C 
ATOM     25  C   UNL     1      33.413  -5.002 -25.448  0.00  0.00    -0.004 C 
ATOM     26  C   UNL     1      31.684  -2.939 -24.713  0.00  0.00    -0.045 C 
ATOM     27  C   UNL     1      33.191  -3.934 -26.318  0.00  0.00    -0.001 C 
ATOM     28  C   UNL     1      32.327  -2.903 -25.951  0.00  0.00    -0.006 C 
BRANCH  26  29
ATOM     29  C   UNL     1      30.760  -1.835 -24.320  0.00  0.00    -0.059 C 
BRANCH  29  30
ATOM     30  N   UNL     1      30.271  -1.979 -22.948  0.00  0.00    +0.383 N 
ATOM     31  H   UNL     1      30.799  -2.712 -22.474  0.00  0.00    -0.089 HD
ATOM     32  H   UNL     1      29.283  -2.228 -22.963  0.00  0.00    -0.089 HD
ATOM     33  H   UNL     1      30.393  -1.097 -22.450  0.00  0.00    -0.089 HD
ENDBRANCH  29  30
ENDBRANCH  26  29
ENDBRANCH   3  23
TORSDOF 7
ENDMDL
MODEL 4
REMARK VINA RESULT:     -10.3      1.899     10.625
REMARK  Name = 657077
REMARK  7 active torsions:
REMARK  status: ('A' for Active; 'I' for Inactive)
REMARK    1  A    between atoms: C_3  and  C_23
REMARK    2  A    between atoms: C_8  and  C_10
REMARK    3  A    between atoms: C_12  and  C_15
REMARK    4  A    between atoms: C_15  and  C_16
REMARK    5  A    between atoms: C_16  and  C_17
REMARK    6  A    between atoms: C_26  and  C_29
REMARK    7  A    between atoms: C_29  and  N_30
REMARK                            x       y       z     vdW  Elec       q    Type
REMARK                         _______ _______ _______ _____ _____    ______ ____
ROOT
ATOM      1  O   UNL     1      34.881 -15.784 -25.449  0.00  0.00    -0.270 OA
ATOM      2  N   UNL     1      33.583 -14.299 -24.194  0.00  0.00    -0.276 N 
ATOM      3  C   UNL     1      33.032 -11.491 -23.757  0.00  0.00    +0.026 C 
ATOM      4  C   UNL     1      33.381 -12.440 -22.593  0.00  0.00    +0.026 C 
ATOM      5  C   UNL     1      33.642 -12.005 -25.075  0.00  0.00    +0.026 C 
ATOM      6  C   UNL     1      32.981 -13.878 -22.923  0.00  0.00    +0.094 C 
ATOM      7  C   UNL     1      33.240 -13.455 -25.340  0.00  0.00    +0.094 C 
ATOM      8  C   UNL     1      34.398 -15.418 -24.379  0.00  0.00    +0.251 C 
ENDROOT
BRANCH   8  10
ATOM      9  N   UNL     1      35.229 -16.337 -20.846  0.00  0.00    -0.242 NA
ATOM     10  C   UNL     1      34.731 -16.232 -23.204  0.00  0.00    +0.072 C 
ATOM     11  C   UNL     1      34.862 -17.609 -23.308  0.00  0.00    +0.003 C 
ATOM     12  C   UNL     1      35.178 -18.355 -22.178  0.00  0.00    -0.003 C 
ATOM     13  C   UNL     1      34.921 -15.646 -21.967  0.00  0.00    +0.103 C 
ATOM     14  C   UNL     1      35.349 -17.677 -20.981  0.00  0.00    +0.095 C 
BRANCH  12  15
ATOM     15  C   UNL     1      35.326 -19.833 -22.250  0.00  0.00    +0.033 C 
BRANCH  15  16
ATOM     16  C   UNL     1      35.993 -20.462 -21.008  0.00  0.00    +0.031 C 
BRANCH  16  17
ATOM     17  C   UNL     1      35.013 -21.178 -20.109  0.00  0.00    -0.022 C 
ATOM     18  C   UNL     1      33.655 -20.948 -20.263  0.00  0.00    -0.004 C 
ATOM     19  C   UNL     1      35.491 -22.052 -19.146  0.00  0.00    -0.004 C 
ATOM     20  C   UNL     1      32.751 -21.609 -19.432  0.00  0.00    -0.000 C 
ATOM     21  C   UNL     1      34.586 -22.715 -18.315  0.00  0.00    -0.000 C 
ATOM     22  C   UNL     1      33.216 -22.492 -18.458  0.00  0.00    -0.000 C 
ENDBRANCH  16  17
ENDBRANCH  15  16
ENDBRANCH  12  15
ENDBRANCH   8  10
BRANCH   3  23
ATOM     23  C   UNL     1      33.436 -10.059 -23.463  0.00  0.00    -0.023 C 
ATOM     24  C   UNL     1      32.791  -9.349 -22.452  0.00  0.00    -0.011 C 
ATOM     25  C   UNL     1      34.453  -9.458 -24.203  0.00  0.00    -0.004 C 
ATOM     26  C   UNL     1      33.163  -8.033 -22.180  0.00  0.00    -0.045 C 
ATOM     27  C   UNL     1      34.824  -8.141 -23.931  0.00  0.00    -0.001 C 
ATOM     28  C   UNL     1      34.180  -7.429 -22.920  0.00  0.00    -0.006 C 
BRANCH  26  29
ATOM     29  C   UNL     1      32.475  -7.271 -21.098  0.00  0.00    -0.059 C 
BRANCH  29  30
ATOM     30  N   UNL     1      33.040  -7.548 -19.775  0.00  0.00    +0.383 N 
ATOM     31  H   UNL     1      32.295  -7.840 -19.142  0.00  0.00    -0.089 HD
ATOM     32  H   UNL     1      33.485  -6.706 -19.412  0.00  0.00    -0.089 HD
ATOM     33  H   UNL     1      33.731  -8.294 -19.852  0.00  0.00    -0.089 HD
ENDBRANCH  29  30
ENDBRANCH  26  29
ENDBRANCH   3  23
TORSDOF 7
ENDMDL
MODEL 5
REMARK VINA RESULT:     -10.1      3.573      6.660
REMARK  Name = 657077
REMARK  7 active torsions:
REMARK  status: ('A' for Active; 'I' for Inactive)
REMARK    1  A    between atoms: C_3  and  C_23
REMARK    2  A    between atoms: C_8  and  C_10
REMARK    3  A    between atoms: C_12  and  C_15
REMARK    4  A    between atoms: C_15  and  C_16
REMARK    5  A    between atoms: C_16  and  C_17
REMARK    6  A    between atoms: C_26  and  C_29
REMARK    7  A    between atoms: C_29  and  N_30
REMARK                            x       y       z     vdW  Elec       q    Type
REMARK                         _______ _______ _______ _____ _____    ______ ____
ROOT
ATOM      1  O   UNL     1      32.231  -7.801 -19.423  0.00  0.00    -0.270 OA
ATOM      2  N   UNL     1      31.634  -9.427 -20.994  0.00  0.00    -0.276 N 
ATOM      3  C   UNL     1      32.095 -12.171 -21.789  0.00  0.00    +0.026 C 
ATOM      4  C   UNL     1      32.223 -11.005 -22.788  0.00  0.00    +0.026 C 
ATOM      5  C   UNL     1      32.364 -11.684 -20.352  0.00  0.00    +0.026 C 
ATOM      6  C   UNL     1      31.337  -9.830 -22.374  0.00  0.00    +0.094 C 
ATOM      7  C   UNL     1      31.478 -10.490 -20.000  0.00  0.00    +0.094 C 
ATOM      8  C   UNL     1      32.008  -8.145 -20.582  0.00  0.00    +0.251 C 
ENDROOT
BRANCH   8  10
ATOM      9  N   UNL     1      31.342  -5.091 -22.642  0.00  0.00    -0.242 NA
ATOM     10  C   UNL     1      32.167  -7.109 -21.608  0.00  0.00    +0.072 C 
ATOM     11  C   UNL     1      33.238  -7.140 -22.490  0.00  0.00    +0.003 C 
ATOM     12  C   UNL     1      33.363  -6.143 -23.453  0.00  0.00    -0.003 C 
ATOM     13  C   UNL     1      31.255  -6.077 -21.721  0.00  0.00    +0.103 C 
ATOM     14  C   UNL     1      32.397  -5.150 -23.485  0.00  0.00    +0.095 C 
BRANCH  12  15
ATOM     15  C   UNL     1      34.497  -6.142 -24.414  0.00  0.00    +0.033 C 
BRANCH  15  16
ATOM     16  C   UNL     1      34.082  -5.896 -25.880  0.00  0.00    +0.031 C 
BRANCH  16  17
ATOM     17  C   UNL     1      34.723  -4.667 -26.479  0.00  0.00    -0.022 C 
ATOM     18  C   UNL     1      36.025  -4.740 -26.948  0.00  0.00    -0.004 C 
ATOM     19  C   UNL     1      33.998  -3.489 -26.548  0.00  0.00    -0.004 C 
ATOM     20  C   UNL     1      36.617  -3.604 -27.501  0.00  0.00    -0.000 C 
ATOM     21  C   UNL     1      34.590  -2.353 -27.102  0.00  0.00    -0.000 C 
ATOM     22  C   UNL     1      35.900  -2.411 -27.578  0.00  0.00    -0.000 C 
ENDBRANCH  16  17
ENDBRANCH  15  16
ENDBRANCH  12  15
ENDBRANCH   8  10
BRANCH   3  23
ATOM     23  C   UNL     1      32.979 -13.344 -22.167  0.00  0.00    -0.023 C 
ATOM     24  C   UNL     1      33.558 -14.127 -21.171  0.00  0.00    -0.011 C 
ATOM     25  C   UNL     1      33.208 -13.636 -23.511  0.00  0.00    -0.004 C 
ATOM     26  C   UNL     1      34.370 -15.206 -21.519  0.00  0.00    -0.045 C 
ATOM     27  C   UNL     1      34.021 -14.715 -23.858  0.00  0.00    -0.001 C 
ATOM     28  C   UNL     1      34.601 -15.500 -22.863  0.00  0.00    -0.006 C 
BRANCH  26  29
ATOM     29  C   UNL     1      34.991 -16.048 -20.454  0.00  0.00    -0.059 C 
BRANCH  29  30
ATOM     30  N   UNL     1      35.371 -17.374 -20.944  0.00  0.00    +0.383 N 
ATOM     31  H   UNL     1      35.791 -17.909 -20.184  0.00  0.00    -0.089 HD
ATOM     32  H   UNL     1      36.044 -17.275 -21.704  0.00  0.00    -0.089 HD
ATOM     33  H   UNL     1      34.542 -17.861 -21.285  0.00  0.00    -0.089 HD
ENDBRANCH  29  30
ENDBRANCH  26  29
ENDBRANCH   3  23
TORSDOF 7
ENDMDL
MODEL 6
REMARK VINA RESULT:     -10.1      4.138      6.937
REMARK  Name = 657077
REMARK  7 active torsions:
REMARK  status: ('A' for Active; 'I' for Inactive)
REMARK    1  A    between atoms: C_3  and  C_23
REMARK    2  A    between atoms: C_8  and  C_10
REMARK    3  A    between atoms: C_12  and  C_15
REMARK    4  A    between atoms: C_15  and  C_16
REMARK    5  A    between atoms: C_16  and  C_17
REMARK    6  A    between atoms: C_26  and  C_29
REMARK    7  A    between atoms: C_29  and  N_30
REMARK                            x       y       z     vdW  Elec       q    Type
REMARK                         _______ _______ _______ _____ _____    ______ ____
ROOT
ATOM      1  O   UNL     1      32.234  -7.726 -19.425  0.00  0.00    -0.270 OA
ATOM      2  N   UNL     1      31.632  -9.371 -20.974  0.00  0.00    -0.276 N 
ATOM      3  C   UNL     1      32.083 -12.128 -21.730  0.00  0.00    +0.026 C 
ATOM      4  C   UNL     1      32.218 -10.976 -22.745  0.00  0.00    +0.026 C 
ATOM      5  C   UNL     1      32.351 -11.623 -20.299  0.00  0.00    +0.026 C 
ATOM      6  C   UNL     1      31.336  -9.793 -22.349  0.00  0.00    +0.094 C 
ATOM      7  C   UNL     1      31.469 -10.419 -19.966  0.00  0.00    +0.094 C 
ATOM      8  C   UNL     1      32.011  -8.086 -20.580  0.00  0.00    +0.251 C 
ENDROOT
BRANCH   8  10
ATOM      9  N   UNL     1      31.363  -5.057 -22.684  0.00  0.00    -0.242 NA
ATOM     10  C   UNL     1      32.177  -7.064 -21.620  0.00  0.00    +0.072 C 
ATOM     11  C   UNL     1      33.249  -7.112 -22.499  0.00  0.00    +0.003 C 
ATOM     12  C   UNL     1      33.380  -6.130 -23.475  0.00  0.00    -0.003 C 
ATOM     13  C   UNL     1      31.269  -6.030 -21.749  0.00  0.00    +0.103 C 
ATOM     14  C   UNL     1      32.419  -5.133 -23.524  0.00  0.00    +0.095 C 
BRANCH  12  15
ATOM     15  C   UNL     1      34.517  -6.148 -24.434  0.00  0.00    +0.033 C 
BRANCH  15  16
ATOM     16  C   UNL     1      34.107  -5.909 -25.903  0.00  0.00    +0.031 C 
BRANCH  16  17
ATOM     17  C   UNL     1      34.733  -4.671 -26.500  0.00  0.00    -0.022 C 
ATOM     18  C   UNL     1      33.997  -3.498 -26.558  0.00  0.00    -0.004 C 
ATOM     19  C   UNL     1      36.032  -4.731 -26.978  0.00  0.00    -0.004 C 
ATOM     20  C   UNL     1      34.575  -2.355 -27.109  0.00  0.00    -0.000 C 
ATOM     21  C   UNL     1      36.611  -3.587 -27.528  0.00  0.00    -0.000 C 
ATOM     22  C   UNL     1      35.882  -2.399 -27.595  0.00  0.00    -0.000 C 
ENDBRANCH  16  17
ENDBRANCH  15  16
ENDBRANCH  12  15
ENDBRANCH   8  10
BRANCH   3  23
ATOM     23  C   UNL     1      32.962 -13.310 -22.090  0.00  0.00    -0.023 C 
ATOM     24  C   UNL     1      32.982 -13.787 -23.399  0.00  0.00    -0.011 C 
ATOM     25  C   UNL     1      33.750 -13.914 -21.111  0.00  0.00    -0.004 C 
ATOM     26  C   UNL     1      33.792 -14.873 -23.731  0.00  0.00    -0.045 C 
ATOM     27  C   UNL     1      34.559 -15.001 -21.443  0.00  0.00    -0.001 C 
ATOM     28  C   UNL     1      34.580 -15.480 -22.753  0.00  0.00    -0.006 C 
BRANCH  26  29
ATOM     29  C   UNL     1      33.816 -15.386 -25.132  0.00  0.00    -0.059 C 
BRANCH  29  30
ATOM     30  N   UNL     1      32.752 -14.808 -25.955  0.00  0.00    +0.383 N 
ATOM     31  H   UNL     1      32.024 -15.507 -26.109  0.00  0.00    -0.089 HD
ATOM     32  H   UNL     1      33.137 -14.515 -26.852  0.00  0.00    -0.089 HD
ATOM     33  H   UNL     1      32.352 -14.002 -25.476  0.00  0.00    -0.089 HD
ENDBRANCH  29  30
ENDBRANCH  26  29
ENDBRANCH   3  23
TORSDOF 7
ENDMDL
MODEL 7
REMARK VINA RESULT:     -10.1      5.023     12.776
REMARK  Name = 657077
REMARK  7 active torsions:
REMARK  status: ('A' for Active; 'I' for Inactive)
REMARK    1  A    between atoms: C_3  and  C_23
REMARK    2  A    between atoms: C_8  and  C_10
REMARK    3  A    between atoms: C_12  and  C_15
REMARK    4  A    between atoms: C_15  and  C_16
REMARK    5  A    between atoms: C_16  and  C_17
REMARK    6  A    between atoms: C_26  and  C_29
REMARK    7  A    between atoms: C_29  and  N_30
REMARK                            x       y       z     vdW  Elec       q    Type
REMARK                         _______ _______ _______ _____ _____    ______ ____
ROOT
ATOM      1  O   UNL     1      36.977 -21.966 -17.680  0.00  0.00    -0.270 OA
ATOM      2  N   UNL     1      35.904 -21.523 -19.710  0.00  0.00    -0.276 N 
ATOM      3  C   UNL     1      35.596 -19.535 -21.790  0.00  0.00    +0.026 C 
ATOM      4  C   UNL     1      34.380 -20.168 -21.087  0.00  0.00    +0.026 C 
ATOM      5  C   UNL     1      36.829 -19.561 -20.867  0.00  0.00    +0.026 C 
ATOM      6  C   UNL     1      34.715 -21.567 -20.569  0.00  0.00    +0.094 C 
ATOM      7  C   UNL     1      37.100 -20.974 -20.350  0.00  0.00    +0.094 C 
ATOM      8  C   UNL     1      35.974 -21.979 -18.391  0.00  0.00    +0.251 C 
ENDROOT
BRANCH   8  10
ATOM      9  N   UNL     1      32.370 -22.875 -17.915  0.00  0.00    -0.242 NA
ATOM     10  C   UNL     1      34.751 -22.510 -17.778  0.00  0.00    +0.072 C 
ATOM     11  C   UNL     1      34.789 -23.129 -16.537  0.00  0.00    +0.003 C 
ATOM     12  C   UNL     1      33.614 -23.623 -15.980  0.00  0.00    -0.003 C 
ATOM     13  C   UNL     1      33.533 -22.407 -18.422  0.00  0.00    +0.103 C 
ATOM     14  C   UNL     1      32.442 -23.473 -16.704  0.00  0.00    +0.095 C 
BRANCH  12  15
ATOM     15  C   UNL     1      33.616 -24.293 -14.653  0.00  0.00    +0.033 C 
BRANCH  15  16
ATOM     16  C   UNL     1      34.915 -25.064 -14.337  0.00  0.00    +0.031 C 
BRANCH  16  17
ATOM     17  C   UNL     1      35.683 -24.480 -13.175  0.00  0.00    -0.022 C 
ATOM     18  C   UNL     1      36.740 -23.619 -13.423  0.00  0.00    -0.004 C 
ATOM     19  C   UNL     1      35.317 -24.817 -11.882  0.00  0.00    -0.004 C 
ATOM     20  C   UNL     1      37.449 -23.081 -12.350  0.00  0.00    -0.000 C 
ATOM     21  C   UNL     1      36.026 -24.277 -10.808  0.00  0.00    -0.000 C 
ATOM     22  C   UNL     1      37.093 -23.410 -11.043  0.00  0.00    -0.000 C 
ENDBRANCH  16  17
ENDBRANCH  15  16
ENDBRANCH  12  15
ENDBRANCH   8  10
BRANCH   3  23
ATOM     23  C   UNL     1      35.295 -18.138 -22.298  0.00  0.00    -0.023 C 
ATOM     24  C   UNL     1      35.111 -17.094 -21.394  0.00  0.00    -0.011 C 
ATOM     25  C   UNL     1      35.206 -17.901 -23.669  0.00  0.00    -0.004 C 
ATOM     26  C   UNL     1      34.836 -15.810 -21.860  0.00  0.00    -0.045 C 
ATOM     27  C   UNL     1      34.931 -16.616 -24.136  0.00  0.00    -0.001 C 
ATOM     28  C   UNL     1      34.746 -15.571 -23.232  0.00  0.00    -0.006 C 
BRANCH  26  29
ATOM     29  C   UNL     1      34.639 -14.690 -20.894  0.00  0.00    -0.059 C 
BRANCH  29  30
ATOM     30  N   UNL     1      33.405 -13.943 -21.151  0.00  0.00    +0.383 N 
ATOM     31  H   UNL     1      32.644 -14.347 -20.605  0.00  0.00    -0.089 HD
ATOM     32  H   UNL     1      33.178 -13.995 -22.144  0.00  0.00    -0.089 HD
ATOM     33  H   UNL     1      33.536 -12.968 -20.882  0.00  0.00    -0.089 HD
ENDBRANCH  29  30
ENDBRANCH  26  29
ENDBRANCH   3  23
TORSDOF 7
ENDMDL
MODEL 8
REMARK VINA RESULT:     -10.0      3.068     12.037
REMARK  Name = 657077
REMARK  7 active torsions:
REMARK  status: ('A' for Active; 'I' for Inactive)
REMARK    1  A    between atoms: C_3  and  C_23
REMARK    2  A    between atoms: C_8  and  C_10
REMARK    3  A    between atoms: C_12  and  C_15
REMARK    4  A    between atoms: C_15  and  C_16
REMARK    5  A    between atoms: C_16  and  C_17
REMARK    6  A    between atoms: C_26  and  C_29
REMARK    7  A    between atoms: C_29  and  N_30
REMARK                            x       y       z     vdW  Elec       q    Type
REMARK                         _______ _______ _______ _____ _____    ______ ____
ROOT
ATOM      1  O   UNL     1      30.986 -10.463 -21.962  0.00  0.00    -0.270 OA
ATOM      2  N   UNL     1      32.585  -8.821 -22.426  0.00  0.00    -0.276 N 
ATOM      3  C   UNL     1      32.917  -6.079 -23.291  0.00  0.00    +0.026 C 
ATOM      4  C   UNL     1      33.660  -7.242 -23.979  0.00  0.00    +0.026 C 
ATOM      5  C   UNL     1      31.607  -6.577 -22.650  0.00  0.00    +0.026 C 
ATOM      6  C   UNL     1      33.867  -8.406 -23.010  0.00  0.00    +0.094 C 
ATOM      7  C   UNL     1      31.865  -7.762 -21.719  0.00  0.00    +0.094 C 
ATOM      8  C   UNL     1      32.048 -10.110 -22.473  0.00  0.00    +0.251 C 
ENDROOT
BRANCH   8  10
ATOM      9  N   UNL     1      33.859 -11.856 -25.245  0.00  0.00    -0.242 NA
ATOM     10  C   UNL     1      32.791 -11.143 -23.203  0.00  0.00    +0.072 C 
ATOM     11  C   UNL     1      33.129 -12.341 -22.591  0.00  0.00    +0.003 C 
ATOM     12  C   UNL     1      33.835 -13.303 -23.307  0.00  0.00    -0.003 C 
ATOM     13  C   UNL     1      33.173 -10.947 -24.516  0.00  0.00    +0.103 C 
ATOM     14  C   UNL     1      34.173 -13.013 -24.620  0.00  0.00    +0.095 C 
BRANCH  12  15
ATOM     15  C   UNL     1      34.215 -14.598 -22.685  0.00  0.00    +0.033 C 
BRANCH  15  16
ATOM     16  C   UNL     1      34.822 -15.618 -23.671  0.00  0.00    +0.031 C 
BRANCH  16  17
ATOM     17  C   UNL     1      35.004 -16.991 -23.067  0.00  0.00    -0.022 C 
ATOM     18  C   UNL     1      35.415 -17.103 -21.748  0.00  0.00    -0.004 C 
ATOM     19  C   UNL     1      34.757 -18.111 -23.843  0.00  0.00    -0.004 C 
ATOM     20  C   UNL     1      35.584 -18.370 -21.191  0.00  0.00    -0.000 C 
ATOM     21  C   UNL     1      34.925 -19.379 -23.285  0.00  0.00    -0.000 C 
ATOM     22  C   UNL     1      35.339 -19.508 -21.958  0.00  0.00    -0.000 C 
ENDBRANCH  16  17
ENDBRANCH  15  16
ENDBRANCH  12  15
ENDBRANCH   8  10
BRANCH   3  23
ATOM     23  C   UNL     1      32.683  -4.917 -24.236  0.00  0.00    -0.023 C 
ATOM     24  C   UNL     1      33.328  -4.885 -25.471  0.00  0.00    -0.011 C 
ATOM     25  C   UNL     1      31.821  -3.885 -23.868  0.00  0.00    -0.004 C 
ATOM     26  C   UNL     1      33.111  -3.817 -26.341  0.00  0.00    -0.045 C 
ATOM     27  C   UNL     1      31.605  -2.816 -24.738  0.00  0.00    -0.001 C 
ATOM     28  C   UNL     1      32.250  -2.782 -25.974  0.00  0.00    -0.006 C 
BRANCH  26  29
ATOM     29  C   UNL     1      33.800  -3.779 -27.664  0.00  0.00    -0.059 C 
BRANCH  29  30
ATOM     30  N   UNL     1      33.082  -2.958 -28.642  0.00  0.00    +0.383 N 
ATOM     31  H   UNL     1      33.619  -2.916 -29.509  0.00  0.00    -0.089 HD
ATOM     32  H   UNL     1      32.961  -2.017 -28.271  0.00  0.00    -0.089 HD
ATOM     33  H   UNL     1      32.169  -3.372 -28.828  0.00  0.00    -0.089 HD
ENDBRANCH  29  30
ENDBRANCH  26  29
ENDBRANCH   3  23
TORSDOF 7
ENDMDL
MODEL 9
REMARK VINA RESULT:     -10.0      4.881     12.296
REMARK  Name = 657077
REMARK  7 active torsions:
REMARK  status: ('A' for Active; 'I' for Inactive)
REMARK    1  A    between atoms: C_3  and  C_23
REMARK    2  A    between atoms: C_8  and  C_10
REMARK    3  A    between atoms: C_12  and  C_15
REMARK    4  A    between atoms: C_15  and  C_16
REMARK    5  A    between atoms: C_16  and  C_17
REMARK    6  A    between atoms: C_26  and  C_29
REMARK    7  A    between atoms: C_29  and  N_30
REMARK                            x       y       z     vdW  Elec       q    Type
REMARK                         _______ _______ _______ _____ _____    ______ ____
ROOT
ATOM      1  O   UNL     1      37.153 -21.505 -17.989  0.00  0.00    -0.270 OA
ATOM      2  N   UNL     1      36.096 -21.096 -20.034  0.00  0.00    -0.276 N 
ATOM      3  C   UNL     1      35.646 -19.073 -22.054  0.00  0.00    +0.026 C 
ATOM      4  C   UNL     1      34.480 -19.850 -21.410  0.00  0.00    +0.026 C 
ATOM      5  C   UNL     1      36.850 -19.011 -21.095  0.00  0.00    +0.026 C 
ATOM      6  C   UNL     1      34.940 -21.226 -20.931  0.00  0.00    +0.094 C 
ATOM      7  C   UNL     1      37.248 -20.408 -20.619  0.00  0.00    +0.094 C 
ATOM      8  C   UNL     1      36.175 -21.592 -18.731  0.00  0.00    +0.251 C 
ENDROOT
BRANCH   8  10
ATOM      9  N   UNL     1      32.695 -22.941 -18.437  0.00  0.00    -0.242 NA
ATOM     10  C   UNL     1      34.996 -22.264 -18.174  0.00  0.00    +0.072 C 
ATOM     11  C   UNL     1      35.037 -22.844 -16.914  0.00  0.00    +0.003 C 
ATOM     12  C   UNL     1      33.904 -23.475 -16.412  0.00  0.00    -0.003 C 
ATOM     13  C   UNL     1      33.817 -22.336 -18.891  0.00  0.00    +0.103 C 
ATOM     14  C   UNL     1      32.769 -23.496 -17.207  0.00  0.00    +0.095 C 
BRANCH  12  15
ATOM     15  C   UNL     1      33.910 -24.108 -15.067  0.00  0.00    +0.033 C 
BRANCH  15  16
ATOM     16  C   UNL     1      32.823 -23.573 -14.111  0.00  0.00    +0.031 C 
BRANCH  16  17
ATOM     17  C   UNL     1      31.427 -23.991 -14.509  0.00  0.00    -0.022 C 
ATOM     18  C   UNL     1      30.514 -23.025 -14.901  0.00  0.00    -0.004 C 
ATOM     19  C   UNL     1      31.085 -25.333 -14.473  0.00  0.00    -0.004 C 
ATOM     20  C   UNL     1      29.225 -23.412 -15.267  0.00  0.00    -0.000 C 
ATOM     21  C   UNL     1      29.796 -25.720 -14.841  0.00  0.00    -0.000 C 
ATOM     22  C   UNL     1      28.866 -24.759 -15.237  0.00  0.00    -0.000 C 
ENDBRANCH  16  17
ENDBRANCH  15  16
ENDBRANCH  12  15
ENDBRANCH   8  10
BRANCH   3  23
ATOM     23  C   UNL     1      35.220 -17.695 -22.523  0.00  0.00    -0.023 C 
ATOM     24  C   UNL     1      34.753 -17.517 -23.824  0.00  0.00    -0.011 C 
ATOM     25  C   UNL     1      35.295 -16.610 -21.650  0.00  0.00    -0.004 C 
ATOM     26  C   UNL     1      34.360 -16.251 -24.255  0.00  0.00    -0.045 C 
ATOM     27  C   UNL     1      34.902 -15.343 -22.082  0.00  0.00    -0.001 C 
ATOM     28  C   UNL     1      34.435 -15.163 -23.383  0.00  0.00    -0.006 C 
BRANCH  26  29
ATOM     29  C   UNL     1      33.859 -16.057 -25.647  0.00  0.00    -0.059 C 
BRANCH  29  30
ATOM     30  N   UNL     1      33.091 -14.819 -25.795  0.00  0.00    +0.383 N 
ATOM     31  H   UNL     1      33.521 -14.236 -26.513  0.00  0.00    -0.089 HD
ATOM     32  H   UNL     1      33.083 -14.316 -24.908  0.00  0.00    -0.089 HD
ATOM     33  H   UNL     1      32.134 -15.044 -26.067  0.00  0.00    -0.089 HD
ENDBRANCH  29  30
ENDBRANCH  26  29
ENDBRANCH   3  23
TORSDOF 7
ENDMDL
