MODEL 1
REMARK VINA RESULT:     -11.3      0.000      0.000
REMARK  Name = 9823820
REMARK  6 active torsions:
REMARK  status: ('A' for Active; 'I' for Inactive)
REMARK    1  A    between atoms: O_1  and  C_4
REMARK    2  A    between atoms: O_1  and  C_23
REMARK    3  A    between atoms: C_7  and  C_14
REMARK    4  A    between atoms: C_8  and  O_17
REMARK    5  A    between atoms: C_20  and  N_28
REMARK    6  A    between atoms: N_27  and  C_32
REMARK                            x       y       z     vdW  Elec       q    Type
REMARK                         _______ _______ _______ _____ _____    ______ ____
ROOT
ATOM      1  O   UNL     1      34.200 -23.748 -18.301  0.00  0.00    -0.454 OA
ENDROOT
BRANCH   1   4
ATOM      2  N   UNL     1      32.380 -23.379 -14.593  0.00  0.00    -0.248 NA
ATOM      3  C   UNL     1      34.356 -23.842 -15.892  0.00  0.00    +0.031 C 
ATOM      4  C   UNL     1      33.623 -23.632 -17.069  0.00  0.00    +0.144 C 
ATOM      5  C   UNL     1      33.685 -23.704 -14.660  0.00  0.00    +0.066 C 
ATOM      6  C   UNL     1      35.718 -24.182 -15.925  0.00  0.00    +0.064 C 
ATOM      7  C   UNL     1      36.422 -24.385 -14.741  0.00  0.00    +0.065 C 
ATOM      8  C   UNL     1      35.769 -24.250 -13.523  0.00  0.00    +0.123 C 
ATOM      9  C   UNL     1      34.413 -23.912 -13.491  0.00  0.00    +0.109 C 
ATOM     10  C   UNL     1      32.279 -23.298 -17.004  0.00  0.00    +0.058 C 
ATOM     11  C   UNL     1      31.709 -23.185 -15.751  0.00  0.00    +0.102 C 
BRANCH   7  14
ATOM     12  O   UNL     1      38.684 -23.928 -15.214  0.00  0.00    -0.271 OA
ATOM     13  N   UNL     1      38.205 -26.002 -14.361  0.00  0.00    -0.325 N 
ATOM     14  C   UNL     1      37.834 -24.736 -14.801  0.00  0.00    +0.242 C 
ATOM     15  H   UNL     1      39.151 -26.274 -14.385  0.00  0.00    +0.145 HD
ATOM     16  H   UNL     1      37.522 -26.626 -14.024  0.00  0.00    +0.145 HD
ENDBRANCH   7  14
BRANCH   8  17
ATOM     17  O   UNL     1      36.431 -24.441 -12.347  0.00  0.00    -0.475 OA
ATOM     18  C   UNL     1      36.885 -23.275 -11.662  0.00  0.00    +0.252 C 
ENDBRANCH   8  17
ENDBRANCH   1   4
BRANCH   1  23
ATOM     19 CL   UNL     1      37.224 -20.257 -20.400  0.00  0.00    -0.081 Cl
ATOM     20  C   UNL     1      34.503 -20.311 -20.607  0.00  0.00    +0.062 C 
ATOM     21  C   UNL     1      35.654 -20.910 -20.096  0.00  0.00    +0.074 C 
ATOM     22  C   UNL     1      33.251 -20.866 -20.344  0.00  0.00    +0.019 C 
ATOM     23  C   UNL     1      34.302 -22.603 -19.070  0.00  0.00    +0.146 C 
ATOM     24  C   UNL     1      35.552 -22.066 -19.321  0.00  0.00    +0.050 C 
ATOM     25  C   UNL     1      33.149 -22.022 -19.569  0.00  0.00    +0.039 C 
BRANCH  20  28
ATOM     26  O   UNL     1      34.903 -19.978 -23.566  0.00  0.00    -0.252 OA
ATOM     27  N   UNL     1      34.766 -17.705 -23.178  0.00  0.00    -0.290 N 
ATOM     28  N   UNL     1      34.569 -19.153 -21.388  0.00  0.00    -0.268 N 
ATOM     29  C   UNL     1      34.759 -19.045 -22.778  0.00  0.00    +0.304 C 
ATOM     30  H   UNL     1      34.645 -17.007 -22.494  0.00  0.00    +0.151 HD
ATOM     31  H   UNL     1      34.471 -18.302 -20.902  0.00  0.00    +0.156 HD
BRANCH  27  32
ATOM     32  C   UNL     1      34.942 -17.304 -24.544  0.00  0.00    +0.073 C 
ATOM     33  C   UNL     1      34.157 -16.168 -25.116  0.00  0.00    +0.021 C 
ATOM     34  C   UNL     1      33.883 -17.574 -25.563  0.00  0.00    +0.021 C 
ENDBRANCH  27  32
ENDBRANCH  20  28
ENDBRANCH   1  23
TORSDOF 6
ENDMDL
MODEL 2
REMARK VINA RESULT:     -11.1      2.147      3.847
REMARK  Name = 9823820
REMARK  6 active torsions:
REMARK  status: ('A' for Active; 'I' for Inactive)
REMARK    1  A    between atoms: O_1  and  C_4
REMARK    2  A    between atoms: O_1  and  C_23
REMARK    3  A    between atoms: C_7  and  C_14
REMARK    4  A    between atoms: C_8  and  O_17
REMARK    5  A    between atoms: C_20  and  N_28
REMARK    6  A    between atoms: N_27  and  C_32
REMARK                            x       y       z     vdW  Elec       q    Type
REMARK                         _______ _______ _______ _____ _____    ______ ____
ROOT
ATOM      1  O   UNL     1      34.500 -23.342 -18.689  0.00  0.00    -0.454 OA
ENDROOT
BRANCH   1   4
ATOM      2  N   UNL     1      35.124 -22.995 -14.605  0.00  0.00    -0.248 NA
ATOM      3  C   UNL     1      33.600 -23.282 -16.449  0.00  0.00    +0.031 C 
ATOM      4  C   UNL     1      34.680 -23.230 -17.341  0.00  0.00    +0.144 C 
ATOM      5  C   UNL     1      33.872 -23.159 -15.071  0.00  0.00    +0.066 C 
ATOM      6  C   UNL     1      32.281 -23.452 -16.900  0.00  0.00    +0.064 C 
ATOM      7  C   UNL     1      31.227 -23.500 -15.992  0.00  0.00    +0.065 C 
ATOM      8  C   UNL     1      31.487 -23.380 -14.633  0.00  0.00    +0.123 C 
ATOM      9  C   UNL     1      32.799 -23.211 -14.185  0.00  0.00    +0.109 C 
ATOM     10  C   UNL     1      35.972 -23.061 -16.864  0.00  0.00    +0.058 C 
ATOM     11  C   UNL     1      36.139 -22.950 -15.499  0.00  0.00    +0.102 C 
BRANCH   7  14
ATOM     12  O   UNL     1      29.325 -22.824 -17.205  0.00  0.00    -0.271 OA
ATOM     13  N   UNL     1      29.202 -24.847 -16.135  0.00  0.00    -0.325 N 
ATOM     14  C   UNL     1      29.868 -23.678 -16.484  0.00  0.00    +0.242 C 
ATOM     15  H   UNL     1      28.282 -25.003 -16.449  0.00  0.00    +0.145 HD
ATOM     16  H   UNL     1      29.651 -25.521 -15.573  0.00  0.00    +0.145 HD
ENDBRANCH   7  14
BRANCH   8  17
ATOM     17  O   UNL     1      30.476 -23.424 -13.719  0.00  0.00    -0.475 OA
ATOM     18  C   UNL     1      30.495 -24.502 -12.785  0.00  0.00    +0.252 C 
ENDBRANCH   8  17
ENDBRANCH   1   4
BRANCH   1  23
ATOM     19 CL   UNL     1      37.445 -19.781 -20.781  0.00  0.00    -0.081 Cl
ATOM     20  C   UNL     1      34.723 -19.869 -20.951  0.00  0.00    +0.062 C 
ATOM     21  C   UNL     1      35.889 -20.460 -20.465  0.00  0.00    +0.074 C 
ATOM     22  C   UNL     1      33.483 -20.446 -20.679  0.00  0.00    +0.019 C 
ATOM     23  C   UNL     1      34.574 -22.185 -19.444  0.00  0.00    +0.146 C 
ATOM     24  C   UNL     1      35.814 -21.628 -19.705  0.00  0.00    +0.050 C 
ATOM     25  C   UNL     1      33.407 -21.613 -19.919  0.00  0.00    +0.039 C 
BRANCH  20  28
ATOM     26  O   UNL     1      34.640 -19.488 -23.930  0.00  0.00    -0.252 OA
ATOM     27  N   UNL     1      34.784 -17.224 -23.494  0.00  0.00    -0.290 N 
ATOM     28  N   UNL     1      34.762 -18.700 -21.716  0.00  0.00    -0.268 N 
ATOM     29  C   UNL     1      34.722 -18.569 -23.116  0.00  0.00    +0.304 C 
ATOM     30  H   UNL     1      34.848 -16.538 -22.790  0.00  0.00    +0.151 HD
ATOM     31  H   UNL     1      34.828 -17.858 -21.210  0.00  0.00    +0.156 HD
BRANCH  27  32
ATOM     32  C   UNL     1      34.761 -16.801 -24.865  0.00  0.00    +0.073 C 
ATOM     33  C   UNL     1      33.799 -15.755 -25.327  0.00  0.00    +0.021 C 
ATOM     34  C   UNL     1      33.629 -17.180 -25.763  0.00  0.00    +0.021 C 
ENDBRANCH  27  32
ENDBRANCH  20  28
ENDBRANCH   1  23
TORSDOF 6
ENDMDL
MODEL 3
REMARK VINA RESULT:     -10.8      0.966      1.308
REMARK  Name = 9823820
REMARK  6 active torsions:
REMARK  status: ('A' for Active; 'I' for Inactive)
REMARK    1  A    between atoms: O_1  and  C_4
REMARK    2  A    between atoms: O_1  and  C_23
REMARK    3  A    between atoms: C_7  and  C_14
REMARK    4  A    between atoms: C_8  and  O_17
REMARK    5  A    between atoms: C_20  and  N_28
REMARK    6  A    between atoms: N_27  and  C_32
REMARK                            x       y       z     vdW  Elec       q    Type
REMARK                         _______ _______ _______ _____ _____    ______ ____
ROOT
ATOM      1  O   UNL     1      34.402 -23.728 -18.304  0.00  0.00    -0.454 OA
ENDROOT
BRANCH   1   4
ATOM      2  N   UNL     1      32.449 -23.387 -14.662  0.00  0.00    -0.248 NA
ATOM      3  C   UNL     1      34.467 -23.856 -15.893  0.00  0.00    +0.031 C 
ATOM      4  C   UNL     1      33.780 -23.622 -17.093  0.00  0.00    +0.144 C 
ATOM      5  C   UNL     1      33.752 -23.725 -14.685  0.00  0.00    +0.066 C 
ATOM      6  C   UNL     1      35.826 -24.210 -15.879  0.00  0.00    +0.064 C 
ATOM      7  C   UNL     1      36.483 -24.436 -14.674  0.00  0.00    +0.065 C 
ATOM      8  C   UNL     1      35.786 -24.309 -13.479  0.00  0.00    +0.123 C 
ATOM      9  C   UNL     1      34.434 -23.957 -13.493  0.00  0.00    +0.109 C 
ATOM     10  C   UNL     1      32.438 -23.274 -17.073  0.00  0.00    +0.058 C 
ATOM     11  C   UNL     1      31.824 -23.170 -15.842  0.00  0.00    +0.102 C 
BRANCH   7  14
ATOM     12  O   UNL     1      38.756 -24.031 -15.137  0.00  0.00    -0.271 OA
ATOM     13  N   UNL     1      38.244 -26.039 -14.156  0.00  0.00    -0.325 N 
ATOM     14  C   UNL     1      37.892 -24.802 -14.685  0.00  0.00    +0.242 C 
ATOM     15  H   UNL     1      39.187 -26.320 -14.146  0.00  0.00    +0.145 HD
ATOM     16  H   UNL     1      37.549 -26.633 -13.790  0.00  0.00    +0.145 HD
ENDBRANCH   7  14
BRANCH   8  17
ATOM     17  O   UNL     1      36.402 -24.523 -12.282  0.00  0.00    -0.475 OA
ATOM     18  C   UNL     1      36.785 -23.369 -11.535  0.00  0.00    +0.252 C 
ENDBRANCH   8  17
ENDBRANCH   1   4
BRANCH   1  23
ATOM     19 CL   UNL     1      32.068 -20.119 -20.997  0.00  0.00    -0.081 Cl
ATOM     20  C   UNL     1      34.761 -20.283 -20.591  0.00  0.00    +0.062 C 
ATOM     21  C   UNL     1      33.502 -20.836 -20.356  0.00  0.00    +0.074 C 
ATOM     22  C   UNL     1      35.899 -20.888 -20.056  0.00  0.00    +0.019 C 
ATOM     23  C   UNL     1      34.521 -22.580 -19.065  0.00  0.00    +0.146 C 
ATOM     24  C   UNL     1      33.382 -21.994 -19.587  0.00  0.00    +0.050 C 
ATOM     25  C   UNL     1      35.778 -22.045 -19.287  0.00  0.00    +0.039 C 
BRANCH  20  28
ATOM     26  O   UNL     1      34.717 -19.896 -23.569  0.00  0.00    -0.252 OA
ATOM     27  N   UNL     1      35.088 -17.658 -23.135  0.00  0.00    -0.290 N 
ATOM     28  N   UNL     1      34.918 -19.124 -21.356  0.00  0.00    -0.268 N 
ATOM     29  C   UNL     1      34.890 -18.991 -22.756  0.00  0.00    +0.304 C 
ATOM     30  H   UNL     1      35.220 -16.983 -22.431  0.00  0.00    +0.151 HD
ATOM     31  H   UNL     1      35.068 -18.293 -20.850  0.00  0.00    +0.156 HD
BRANCH  27  32
ATOM     32  C   UNL     1      35.108 -17.235 -24.505  0.00  0.00    +0.073 C 
ATOM     33  C   UNL     1      34.160 -16.190 -24.998  0.00  0.00    +0.021 C 
ATOM     34  C   UNL     1      34.004 -17.616 -25.438  0.00  0.00    +0.021 C 
ENDBRANCH  27  32
ENDBRANCH  20  28
ENDBRANCH   1  23
TORSDOF 6
ENDMDL
MODEL 4
REMARK VINA RESULT:     -10.5      3.716     10.512
REMARK  Name = 9823820
REMARK  6 active torsions:
REMARK  status: ('A' for Active; 'I' for Inactive)
REMARK    1  A    between atoms: O_1  and  C_4
REMARK    2  A    between atoms: O_1  and  C_23
REMARK    3  A    between atoms: C_7  and  C_14
REMARK    4  A    between atoms: C_8  and  O_17
REMARK    5  A    between atoms: C_20  and  N_28
REMARK    6  A    between atoms: N_27  and  C_32
REMARK                            x       y       z     vdW  Elec       q    Type
REMARK                         _______ _______ _______ _____ _____    ______ ____
ROOT
ATOM      1  O   UNL     1      35.889 -18.839 -22.385  0.00  0.00    -0.454 OA
ENDROOT
BRANCH   1   4
ATOM      2  N   UNL     1      33.794 -18.638 -25.957  0.00  0.00    -0.248 NA
ATOM      3  C   UNL     1      34.629 -17.538 -23.983  0.00  0.00    +0.031 C 
ATOM      4  C   UNL     1      35.195 -18.748 -23.557  0.00  0.00    +0.144 C 
ATOM      5  C   UNL     1      33.928 -17.529 -25.206  0.00  0.00    +0.066 C 
ATOM      6  C   UNL     1      34.749 -16.362 -23.224  0.00  0.00    +0.064 C 
ATOM      7  C   UNL     1      34.178 -15.174 -23.671  0.00  0.00    +0.065 C 
ATOM      8  C   UNL     1      33.486 -15.157 -24.875  0.00  0.00    +0.123 C 
ATOM      9  C   UNL     1      33.366 -16.327 -25.629  0.00  0.00    +0.109 C 
ATOM     10  C   UNL     1      35.059 -19.892 -24.328  0.00  0.00    +0.058 C 
ATOM     11  C   UNL     1      34.355 -19.785 -25.510  0.00  0.00    +0.102 C 
BRANCH   7  14
ATOM     12  O   UNL     1      34.339 -14.018 -21.625  0.00  0.00    -0.271 OA
ATOM     13  N   UNL     1      34.444 -12.756 -23.537  0.00  0.00    -0.325 N 
ATOM     14  C   UNL     1      34.317 -13.968 -22.867  0.00  0.00    +0.242 C 
ATOM     15  H   UNL     1      34.541 -11.919 -23.028  0.00  0.00    +0.145 HD
ATOM     16  H   UNL     1      34.438 -12.735 -24.522  0.00  0.00    +0.145 HD
ENDBRANCH   7  14
BRANCH   8  17
ATOM     17  O   UNL     1      32.916 -14.009 -25.340  0.00  0.00    -0.475 OA
ATOM     18  C   UNL     1      33.236 -13.622 -26.675  0.00  0.00    +0.252 C 
ENDBRANCH   8  17
ENDBRANCH   1   4
BRANCH   1  23
ATOM     19 CL   UNL     1      37.009 -21.978 -18.560  0.00  0.00    -0.081 Cl
ATOM     20  C   UNL     1      34.501 -21.517 -19.534  0.00  0.00    +0.062 C 
ATOM     21  C   UNL     1      35.865 -21.236 -19.620  0.00  0.00    +0.074 C 
ATOM     22  C   UNL     1      33.605 -20.899 -20.405  0.00  0.00    +0.019 C 
ATOM     23  C   UNL     1      35.427 -19.731 -21.434  0.00  0.00    +0.146 C 
ATOM     24  C   UNL     1      36.331 -20.335 -20.578  0.00  0.00    +0.050 C 
ATOM     25  C   UNL     1      34.071 -19.998 -21.363  0.00  0.00    +0.039 C 
BRANCH  20  28
ATOM     26  O   UNL     1      31.757 -21.750 -18.334  0.00  0.00    -0.252 OA
ATOM     27  N   UNL     1      32.600 -23.527 -17.123  0.00  0.00    -0.290 N 
ATOM     28  N   UNL     1      34.000 -22.414 -18.586  0.00  0.00    -0.268 N 
ATOM     29  C   UNL     1      32.702 -22.485 -18.050  0.00  0.00    +0.304 C 
ATOM     30  H   UNL     1      33.396 -24.078 -16.943  0.00  0.00    +0.151 HD
ATOM     31  H   UNL     1      34.640 -23.082 -18.248  0.00  0.00    +0.156 HD
BRANCH  27  32
ATOM     32  C   UNL     1      31.385 -23.827 -16.422  0.00  0.00    +0.073 C 
ATOM     33  C   UNL     1      31.026 -23.101 -15.166  0.00  0.00    +0.021 C 
ATOM     34  C   UNL     1      31.415 -24.548 -15.114  0.00  0.00    +0.021 C 
ENDBRANCH  27  32
ENDBRANCH  20  28
ENDBRANCH   1  23
TORSDOF 6
ENDMDL
MODEL 5
REMARK VINA RESULT:     -10.2      2.913     10.875
REMARK  Name = 9823820
REMARK  6 active torsions:
REMARK  status: ('A' for Active; 'I' for Inactive)
REMARK    1  A    between atoms: O_1  and  C_4
REMARK    2  A    between atoms: O_1  and  C_23
REMARK    3  A    between atoms: C_7  and  C_14
REMARK    4  A    between atoms: C_8  and  O_17
REMARK    5  A    between atoms: C_20  and  N_28
REMARK    6  A    between atoms: N_27  and  C_32
REMARK                            x       y       z     vdW  Elec       q    Type
REMARK                         _______ _______ _______ _____ _____    ______ ____
ROOT
ATOM      1  O   UNL     1      36.029 -18.324 -22.416  0.00  0.00    -0.454 OA
ENDROOT
BRANCH   1   4
ATOM      2  N   UNL     1      33.818 -18.476 -25.921  0.00  0.00    -0.248 NA
ATOM      3  C   UNL     1      34.651 -17.203 -24.052  0.00  0.00    +0.031 C 
ATOM      4  C   UNL     1      35.296 -18.350 -23.567  0.00  0.00    +0.144 C 
ATOM      5  C   UNL     1      33.914 -17.314 -25.249  0.00  0.00    +0.066 C 
ATOM      6  C   UNL     1      34.729 -15.974 -23.377  0.00  0.00    +0.064 C 
ATOM      7  C   UNL     1      34.079 -14.851 -23.881  0.00  0.00    +0.065 C 
ATOM      8  C   UNL     1      33.351 -14.952 -25.059  0.00  0.00    +0.123 C 
ATOM      9  C   UNL     1      33.274 -16.175 -25.730  0.00  0.00    +0.109 C 
ATOM     10  C   UNL     1      35.200 -19.549 -24.257  0.00  0.00    +0.058 C 
ATOM     11  C   UNL     1      34.455 -19.559 -25.419  0.00  0.00    +0.102 C 
BRANCH   7  14
ATOM     12  O   UNL     1      34.048 -13.535 -21.928  0.00  0.00    -0.271 OA
ATOM     13  N   UNL     1      34.434 -12.441 -23.905  0.00  0.00    -0.325 N 
ATOM     14  C   UNL     1      34.176 -13.588 -23.163  0.00  0.00    +0.242 C 
ATOM     15  H   UNL     1      34.507 -11.568 -23.455  0.00  0.00    +0.145 HD
ATOM     16  H   UNL     1      34.546 -12.501 -24.882  0.00  0.00    +0.145 HD
ENDBRANCH   7  14
BRANCH   8  17
ATOM     17  O   UNL     1      32.705 -13.870 -25.578  0.00  0.00    -0.475 OA
ATOM     18  C   UNL     1      33.174 -13.375 -26.832  0.00  0.00    +0.252 C 
ENDBRANCH   8  17
ENDBRANCH   1   4
BRANCH   1  23
ATOM     19 CL   UNL     1      32.622 -21.179 -19.972  0.00  0.00    -0.081 Cl
ATOM     20  C   UNL     1      35.325 -21.309 -19.619  0.00  0.00    +0.062 C 
ATOM     21  C   UNL     1      34.255 -20.709 -20.283  0.00  0.00    +0.074 C 
ATOM     22  C   UNL     1      36.631 -20.906 -19.896  0.00  0.00    +0.019 C 
ATOM     23  C   UNL     1      35.794 -19.319 -21.485  0.00  0.00    +0.146 C 
ATOM     24  C   UNL     1      34.492 -19.706 -21.223  0.00  0.00    +0.050 C 
ATOM     25  C   UNL     1      36.868 -19.904 -20.836  0.00  0.00    +0.039 C 
BRANCH  20  28
ATOM     26  O   UNL     1      36.513 -21.677 -16.885  0.00  0.00    -0.252 OA
ATOM     27  N   UNL     1      35.243 -23.601 -16.754  0.00  0.00    -0.290 N 
ATOM     28  N   UNL     1      35.123 -22.317 -18.672  0.00  0.00    -0.268 N 
ATOM     29  C   UNL     1      35.706 -22.448 -17.398  0.00  0.00    +0.304 C 
ATOM     30  H   UNL     1      34.595 -24.175 -17.223  0.00  0.00    +0.151 HD
ATOM     31  H   UNL     1      34.492 -23.027 -18.930  0.00  0.00    +0.156 HD
BRANCH  27  32
ATOM     32  C   UNL     1      35.674 -23.982 -15.440  0.00  0.00    +0.073 C 
ATOM     33  C   UNL     1      35.792 -25.423 -15.060  0.00  0.00    +0.021 C 
ATOM     34  C   UNL     1      34.711 -24.572 -14.461  0.00  0.00    +0.021 C 
ENDBRANCH  27  32
ENDBRANCH  20  28
ENDBRANCH   1  23
TORSDOF 6
ENDMDL
MODEL 6
REMARK VINA RESULT:     -10.0      1.621      2.954
REMARK  Name = 9823820
REMARK  6 active torsions:
REMARK  status: ('A' for Active; 'I' for Inactive)
REMARK    1  A    between atoms: O_1  and  C_4
REMARK    2  A    between atoms: O_1  and  C_23
REMARK    3  A    between atoms: C_7  and  C_14
REMARK    4  A    between atoms: C_8  and  O_17
REMARK    5  A    between atoms: C_20  and  N_28
REMARK    6  A    between atoms: N_27  and  C_32
REMARK                            x       y       z     vdW  Elec       q    Type
REMARK                         _______ _______ _______ _____ _____    ______ ____
ROOT
ATOM      1  O   UNL     1      34.780 -22.957 -18.283  0.00  0.00    -0.454 OA
ENDROOT
BRANCH   1   4
ATOM      2  N   UNL     1      37.499 -22.704 -15.163  0.00  0.00    -0.248 NA
ATOM      3  C   UNL     1      35.302 -23.300 -15.950  0.00  0.00    +0.031 C 
ATOM      4  C   UNL     1      35.658 -22.883 -17.240  0.00  0.00    +0.144 C 
ATOM      5  C   UNL     1      36.267 -23.191 -14.928  0.00  0.00    +0.066 C 
ATOM      6  C   UNL     1      34.024 -23.812 -15.669  0.00  0.00    +0.064 C 
ATOM      7  C   UNL     1      33.696 -24.219 -14.379  0.00  0.00    +0.065 C 
ATOM      8  C   UNL     1      34.642 -24.115 -13.366  0.00  0.00    +0.123 C 
ATOM      9  C   UNL     1      35.912 -23.605 -13.646  0.00  0.00    +0.109 C 
ATOM     10  C   UNL     1      36.927 -22.382 -17.486  0.00  0.00    +0.058 C 
ATOM     11  C   UNL     1      37.804 -22.313 -16.422  0.00  0.00    +0.102 C 
BRANCH   7  14
ATOM     12  O   UNL     1      32.013 -25.858 -14.546  0.00  0.00    -0.271 OA
ATOM     13  N   UNL     1      31.507 -23.976 -13.339  0.00  0.00    -0.325 N 
ATOM     14  C   UNL     1      32.366 -24.748 -14.113  0.00  0.00    +0.242 C 
ATOM     15  H   UNL     1      30.600 -24.301 -13.137  0.00  0.00    +0.145 HD
ATOM     16  H   UNL     1      31.806 -23.104 -12.991  0.00  0.00    +0.145 HD
ENDBRANCH   7  14
BRANCH   8  17
ATOM     17  O   UNL     1      34.351 -24.505 -12.093  0.00  0.00    -0.475 OA
ATOM     18  C   UNL     1      35.453 -24.691 -11.206  0.00  0.00    +0.252 C 
ENDBRANCH   8  17
ENDBRANCH   1   4
BRANCH   1  23
ATOM     19 CL   UNL     1      37.480 -19.571 -20.926  0.00  0.00    -0.081 Cl
ATOM     20  C   UNL     1      34.764 -19.824 -21.006  0.00  0.00    +0.062 C 
ATOM     21  C   UNL     1      35.971 -20.281 -20.476  0.00  0.00    +0.074 C 
ATOM     22  C   UNL     1      33.563 -20.421 -20.622  0.00  0.00    +0.019 C 
ATOM     23  C   UNL     1      34.775 -21.914 -19.191  0.00  0.00    +0.146 C 
ATOM     24  C   UNL     1      35.976 -21.334 -19.561  0.00  0.00    +0.050 C 
ATOM     25  C   UNL     1      33.569 -21.475 -19.707  0.00  0.00    +0.039 C 
BRANCH  20  28
ATOM     26  O   UNL     1      34.598 -19.864 -24.005  0.00  0.00    -0.252 OA
ATOM     27  N   UNL     1      34.626 -17.557 -23.888  0.00  0.00    -0.290 N 
ATOM     28  N   UNL     1      34.722 -18.772 -21.925  0.00  0.00    -0.268 N 
ATOM     29  C   UNL     1      34.645 -18.839 -23.328  0.00  0.00    +0.304 C 
ATOM     30  H   UNL     1      34.665 -16.778 -23.287  0.00  0.00    +0.151 HD
ATOM     31  H   UNL     1      34.752 -17.866 -21.540  0.00  0.00    +0.156 HD
BRANCH  27  32
ATOM     32  C   UNL     1      34.551 -17.330 -25.303  0.00  0.00    +0.073 C 
ATOM     33  C   UNL     1      33.810 -16.153 -25.851  0.00  0.00    +0.021 C 
ATOM     34  C   UNL     1      33.271 -17.540 -26.044  0.00  0.00    +0.021 C 
ENDBRANCH  27  32
ENDBRANCH  20  28
ENDBRANCH   1  23
TORSDOF 6
ENDMDL
MODEL 7
REMARK VINA RESULT:      -9.9      7.168     11.633
REMARK  Name = 9823820
REMARK  6 active torsions:
REMARK  status: ('A' for Active; 'I' for Inactive)
REMARK    1  A    between atoms: O_1  and  C_4
REMARK    2  A    between atoms: O_1  and  C_23
REMARK    3  A    between atoms: C_7  and  C_14
REMARK    4  A    between atoms: C_8  and  O_17
REMARK    5  A    between atoms: C_20  and  N_28
REMARK    6  A    between atoms: N_27  and  C_32
REMARK                            x       y       z     vdW  Elec       q    Type
REMARK                         _______ _______ _______ _____ _____    ______ ____
ROOT
ATOM      1  O   UNL     1      34.319 -13.914 -23.143  0.00  0.00    -0.454 OA
ENDROOT
BRANCH   1   4
ATOM      2  N   UNL     1      33.305 -16.387 -26.314  0.00  0.00    -0.248 NA
ATOM      3  C   UNL     1      34.289 -16.117 -24.131  0.00  0.00    +0.031 C 
ATOM      4  C   UNL     1      33.995 -14.747 -24.175  0.00  0.00    +0.144 C 
ATOM      5  C   UNL     1      33.921 -16.910 -25.237  0.00  0.00    +0.066 C 
ATOM      6  C   UNL     1      34.930 -16.697 -23.024  0.00  0.00    +0.064 C 
ATOM      7  C   UNL     1      35.210 -18.061 -23.006  0.00  0.00    +0.065 C 
ATOM      8  C   UNL     1      34.851 -18.848 -24.092  0.00  0.00    +0.123 C 
ATOM      9  C   UNL     1      34.213 -18.271 -25.193  0.00  0.00    +0.109 C 
ATOM     10  C   UNL     1      33.361 -14.205 -25.282  0.00  0.00    +0.058 C 
ATOM     11  C   UNL     1      33.039 -15.060 -26.316  0.00  0.00    +0.102 C 
BRANCH   7  14
ATOM     12  O   UNL     1      37.084 -18.444 -21.632  0.00  0.00    -0.271 OA
ATOM     13  N   UNL     1      35.108 -19.402 -20.975  0.00  0.00    -0.325 N 
ATOM     14  C   UNL     1      35.876 -18.638 -21.847  0.00  0.00    +0.242 C 
ATOM     15  H   UNL     1      35.522 -19.809 -20.180  0.00  0.00    +0.145 HD
ATOM     16  H   UNL     1      34.148 -19.536 -21.152  0.00  0.00    +0.145 HD
ENDBRANCH   7  14
BRANCH   8  17
ATOM     17  O   UNL     1      35.110 -20.186 -24.104  0.00  0.00    -0.475 OA
ATOM     18  C   UNL     1      34.853 -20.885 -25.321  0.00  0.00    +0.252 C 
ENDBRANCH   8  17
ENDBRANCH   1   4
BRANCH   1  23
ATOM     19 CL   UNL     1      30.671 -11.112 -21.005  0.00  0.00    -0.081 Cl
ATOM     20  C   UNL     1      32.375 -10.251 -22.954  0.00  0.00    +0.062 C 
ATOM     21  C   UNL     1      31.972 -11.298 -22.125  0.00  0.00    +0.074 C 
ATOM     22  C   UNL     1      33.432 -10.435 -23.846  0.00  0.00    +0.019 C 
ATOM     23  C   UNL     1      33.672 -12.693 -23.080  0.00  0.00    +0.146 C 
ATOM     24  C   UNL     1      32.626 -12.528 -22.188  0.00  0.00    +0.050 C 
ATOM     25  C   UNL     1      34.085 -11.666 -23.910  0.00  0.00    +0.039 C 
BRANCH  20  28
ATOM     26  O   UNL     1      33.320  -7.622 -21.851  0.00  0.00    -0.252 OA
ATOM     27  N   UNL     1      31.287  -6.771 -22.543  0.00  0.00    -0.290 N 
ATOM     28  N   UNL     1      31.743  -9.005 -22.916  0.00  0.00    -0.268 N 
ATOM     29  C   UNL     1      32.226  -7.795 -22.386  0.00  0.00    +0.304 C 
ATOM     30  H   UNL     1      30.430  -6.979 -22.981  0.00  0.00    +0.151 HD
ATOM     31  H   UNL     1      30.841  -8.970 -23.311  0.00  0.00    +0.156 HD
BRANCH  27  32
ATOM     32  C   UNL     1      31.518  -5.429 -22.091  0.00  0.00    +0.073 C 
ATOM     33  C   UNL     1      30.439  -4.398 -22.167  0.00  0.00    +0.021 C 
ATOM     34  C   UNL     1      31.637  -4.304 -23.066  0.00  0.00    +0.021 C 
ENDBRANCH  27  32
ENDBRANCH  20  28
ENDBRANCH   1  23
TORSDOF 6
ENDMDL
MODEL 8
REMARK VINA RESULT:      -9.8      6.145     12.949
REMARK  Name = 9823820
REMARK  6 active torsions:
REMARK  status: ('A' for Active; 'I' for Inactive)
REMARK    1  A    between atoms: O_1  and  C_4
REMARK    2  A    between atoms: O_1  and  C_23
REMARK    3  A    between atoms: C_7  and  C_14
REMARK    4  A    between atoms: C_8  and  O_17
REMARK    5  A    between atoms: C_20  and  N_28
REMARK    6  A    between atoms: N_27  and  C_32
REMARK                            x       y       z     vdW  Elec       q    Type
REMARK                         _______ _______ _______ _____ _____    ______ ____
ROOT
ATOM      1  O   UNL     1      32.894 -13.163 -24.108  0.00  0.00    -0.454 OA
ENDROOT
BRANCH   1   4
ATOM      2  N   UNL     1      35.002  -9.701 -24.982  0.00  0.00    -0.248 NA
ATOM      3  C   UNL     1      33.425 -10.867 -23.582  0.00  0.00    +0.031 C 
ATOM      4  C   UNL     1      33.577 -12.012 -24.376  0.00  0.00    +0.144 C 
ATOM      5  C   UNL     1      34.167  -9.718 -23.927  0.00  0.00    +0.066 C 
ATOM      6  C   UNL     1      32.562 -10.849 -22.474  0.00  0.00    +0.064 C 
ATOM      7  C   UNL     1      32.430  -9.698 -21.702  0.00  0.00    +0.065 C 
ATOM      8  C   UNL     1      33.158  -8.563 -22.035  0.00  0.00    +0.123 C 
ATOM      9  C   UNL     1      34.016  -8.581 -23.138  0.00  0.00    +0.109 C 
ATOM     10  C   UNL     1      34.437 -11.998 -25.464  0.00  0.00    +0.058 C 
ATOM     11  C   UNL     1      35.120 -10.828 -25.722  0.00  0.00    +0.102 C 
BRANCH   7  14
ATOM     12  O   UNL     1      30.523 -10.432 -20.532  0.00  0.00    -0.271 OA
ATOM     13  N   UNL     1      31.846  -8.881 -19.483  0.00  0.00    -0.325 N 
ATOM     14  C   UNL     1      31.530  -9.704 -20.558  0.00  0.00    +0.242 C 
ATOM     15  H   UNL     1      31.262  -8.859 -18.690  0.00  0.00    +0.145 HD
ATOM     16  H   UNL     1      32.655  -8.320 -19.513  0.00  0.00    +0.145 HD
ENDBRANCH   7  14
BRANCH   8  17
ATOM     17  O   UNL     1      33.051  -7.421 -21.299  0.00  0.00    -0.475 OA
ATOM     18  C   UNL     1      32.471  -6.287 -21.942  0.00  0.00    +0.252 C 
ENDBRANCH   8  17
ENDBRANCH   1   4
BRANCH   1  23
ATOM     19 CL   UNL     1      35.056 -17.709 -24.736  0.00  0.00    -0.081 Cl
ATOM     20  C   UNL     1      35.008 -16.301 -22.399  0.00  0.00    +0.062 C 
ATOM     21  C   UNL     1      34.645 -16.356 -23.745  0.00  0.00    +0.074 C 
ATOM     22  C   UNL     1      34.661 -15.191 -21.628  0.00  0.00    +0.019 C 
ATOM     23  C   UNL     1      33.599 -14.208 -23.539  0.00  0.00    +0.146 C 
ATOM     24  C   UNL     1      33.935 -15.301 -24.319  0.00  0.00    +0.050 C 
ATOM     25  C   UNL     1      33.951 -14.136 -22.203  0.00  0.00    +0.039 C 
BRANCH  20  28
ATOM     26  O   UNL     1      34.288 -19.192 -22.020  0.00  0.00    -0.252 OA
ATOM     27  N   UNL     1      36.334 -19.410 -20.971  0.00  0.00    -0.290 N 
ATOM     28  N   UNL     1      35.719 -17.339 -21.792  0.00  0.00    -0.268 N 
ATOM     29  C   UNL     1      35.340 -18.685 -21.636  0.00  0.00    +0.304 C 
ATOM     30  H   UNL     1      37.154 -18.941 -20.692  0.00  0.00    +0.151 HD
ATOM     31  H   UNL     1      36.601 -17.098 -21.425  0.00  0.00    +0.156 HD
BRANCH  27  32
ATOM     32  C   UNL     1      36.210 -20.809 -20.678  0.00  0.00    +0.073 C 
ATOM     33  C   UNL     1      35.117 -21.311 -19.790  0.00  0.00    +0.021 C 
ATOM     34  C   UNL     1      36.542 -21.337 -19.320  0.00  0.00    +0.021 C 
ENDBRANCH  27  32
ENDBRANCH  20  28
ENDBRANCH   1  23
TORSDOF 6
ENDMDL
MODEL 9
REMARK VINA RESULT:      -9.6     10.480     17.291
REMARK  Name = 9823820
REMARK  6 active torsions:
REMARK  status: ('A' for Active; 'I' for Inactive)
REMARK    1  A    between atoms: O_1  and  C_4
REMARK    2  A    between atoms: O_1  and  C_23
REMARK    3  A    between atoms: C_7  and  C_14
REMARK    4  A    between atoms: C_8  and  O_17
REMARK    5  A    between atoms: C_20  and  N_28
REMARK    6  A    between atoms: N_27  and  C_32
REMARK                            x       y       z     vdW  Elec       q    Type
REMARK                         _______ _______ _______ _____ _____    ______ ____
ROOT
ATOM      1  O   UNL     1      33.948  -7.255 -22.487  0.00  0.00    -0.454 OA
ENDROOT
BRANCH   1   4
ATOM      2  N   UNL     1      30.786  -4.596 -22.845  0.00  0.00    -0.248 NA
ATOM      3  C   UNL     1      32.836  -5.505 -23.726  0.00  0.00    +0.031 C 
ATOM      4  C   UNL     1      32.917  -6.371 -22.627  0.00  0.00    +0.144 C 
ATOM      5  C   UNL     1      31.739  -4.622 -23.796  0.00  0.00    +0.066 C 
ATOM      6  C   UNL     1      33.812  -5.506 -24.737  0.00  0.00    +0.064 C 
ATOM      7  C   UNL     1      33.708  -4.636 -25.818  0.00  0.00    +0.065 C 
ATOM      8  C   UNL     1      32.629  -3.763 -25.894  0.00  0.00    +0.123 C 
ATOM      9  C   UNL     1      31.659  -3.763 -24.888  0.00  0.00    +0.109 C 
ATOM     10  C   UNL     1      31.937  -6.346 -21.645  0.00  0.00    +0.058 C 
ATOM     11  C   UNL     1      30.901  -5.448 -21.800  0.00  0.00    +0.102 C 
BRANCH   7  14
ATOM     12  O   UNL     1      35.936  -4.766 -26.568  0.00  0.00    -0.271 OA
ATOM     13  N   UNL     1      34.314  -4.566 -28.176  0.00  0.00    -0.325 N 
ATOM     14  C   UNL     1      34.731  -4.656 -26.853  0.00  0.00    +0.242 C 
ATOM     15  H   UNL     1      34.978  -4.577 -28.904  0.00  0.00    +0.145 HD
ATOM     16  H   UNL     1      33.355  -4.492 -28.386  0.00  0.00    +0.145 HD
ENDBRANCH   7  14
BRANCH   8  17
ATOM     17  O   UNL     1      32.498  -2.900 -26.940  0.00  0.00    -0.475 OA
ATOM     18  C   UNL     1      31.397  -1.993 -26.898  0.00  0.00    +0.252 C 
ENDBRANCH   8  17
ENDBRANCH   1   4
BRANCH   1  23
ATOM     19 CL   UNL     1      35.529 -10.696 -25.863  0.00  0.00    -0.081 Cl
ATOM     20  C   UNL     1      33.462 -11.042 -24.115  0.00  0.00    +0.062 C 
ATOM     21  C   UNL     1      34.466 -10.201 -24.595  0.00  0.00    +0.074 C 
ATOM     22  C   UNL     1      32.622 -10.611 -23.089  0.00  0.00    +0.019 C 
ATOM     23  C   UNL     1      33.787  -8.517 -23.029  0.00  0.00    +0.146 C 
ATOM     24  C   UNL     1      34.630  -8.928 -24.047  0.00  0.00    +0.050 C 
ATOM     25  C   UNL     1      32.786  -9.338 -22.541  0.00  0.00    +0.039 C 
BRANCH  20  28
ATOM     26  O   UNL     1      34.280 -13.727 -23.045  0.00  0.00    -0.252 OA
ATOM     27  N   UNL     1      33.293 -14.615 -24.935  0.00  0.00    -0.290 N 
ATOM     28  N   UNL     1      33.271 -12.323 -24.641  0.00  0.00    -0.268 N 
ATOM     29  C   UNL     1      33.674 -13.558 -24.102  0.00  0.00    +0.304 C 
ATOM     30  H   UNL     1      32.809 -14.409 -25.767  0.00  0.00    +0.151 HD
ATOM     31  H   UNL     1      32.792 -12.367 -25.500  0.00  0.00    +0.156 HD
BRANCH  27  32
ATOM     32  C   UNL     1      33.577 -15.987 -24.628  0.00  0.00    +0.073 C 
ATOM     33  C   UNL     1      34.847 -16.627 -25.088  0.00  0.00    +0.021 C 
ATOM     34  C   UNL     1      33.536 -17.033 -25.694  0.00  0.00    +0.021 C 
ENDBRANCH  27  32
ENDBRANCH  20  28
ENDBRANCH   1  23
TORSDOF 6
ENDMDL
