MODEL 1
REMARK VINA RESULT:     -11.5      0.000      0.000
REMARK  Name = 6852140
REMARK  4 active torsions:
REMARK  status: ('A' for Active; 'I' for Inactive)
REMARK    1  A    between atoms: C_2  and  N_18
REMARK    2  A    between atoms: C_5  and  C_13
REMARK    3  A    between atoms: C_19  and  C_21
REMARK    4  A    between atoms: C_24  and  O_28
REMARK                            x       y       z     vdW  Elec       q    Type
REMARK                         _______ _______ _______ _____ _____    ______ ____
ROOT
ATOM      1  C   UNL     1      31.627 -23.838 -15.613  0.00  0.00    +0.014 C 
ATOM      2  C   UNL     1      32.925 -23.478 -16.013  0.00  0.00    +0.050 C 
ATOM      3  C   UNL     1      31.459 -24.675 -14.483  0.00  0.00    +0.001 C 
ATOM      4  C   UNL     1      30.494 -23.390 -16.310  0.00  0.00    +0.004 C 
ATOM      5  C   UNL     1      29.213 -23.758 -15.899  0.00  0.00    +0.031 C 
ATOM      6  C   UNL     1      30.162 -25.035 -14.083  0.00  0.00    +0.000 C 
ATOM      7  C   UNL     1      34.040 -23.935 -15.309  0.00  0.00    +0.015 C 
ATOM      8  C   UNL     1      32.593 -25.123 -13.786  0.00  0.00    +0.000 C 
ATOM      9  C   UNL     1      29.047 -24.578 -14.787  0.00  0.00    +0.003 C 
ATOM     10  C   UNL     1      33.874 -24.755 -14.198  0.00  0.00    +0.001 C 
ENDROOT
BRANCH   5  13
ATOM     11  N   UNL     1      27.085 -22.484 -16.020  0.00  0.00    -0.343 N 
ATOM     12  N   UNL     1      27.888 -23.618 -17.898  0.00  0.00    -0.285 NA
ATOM     13  C   UNL     1      28.049 -23.285 -16.631  0.00  0.00    +0.117 C 
ATOM     14  H   UNL     1      26.305 -22.175 -16.533  0.00  0.00    +0.144 HD
ATOM     15  H   UNL     1      27.185 -22.227 -15.074  0.00  0.00    +0.144 HD
ATOM     16  H   UNL     1      27.100 -23.298 -18.395  0.00  0.00    +0.188 HD
ENDBRANCH   5  13
BRANCH   2  18
ATOM     17  O   UNL     1      33.866 -24.229 -18.687  0.00  0.00    -0.270 OA
ATOM     18  N   UNL     1      33.153 -22.655 -17.124  0.00  0.00    -0.280 N 
ATOM     19  C   UNL     1      33.603 -23.070 -18.377  0.00  0.00    +0.249 C 
ATOM     20  H   UNL     1      32.980 -21.693 -17.008  0.00  0.00    +0.155 HD
BRANCH  19  21
ATOM     21  C   UNL     1      33.798 -21.969 -19.339  0.00  0.00    +0.053 C 
ATOM     22  C   UNL     1      35.061 -21.446 -19.565  0.00  0.00    +0.016 C 
ATOM     23  C   UNL     1      32.685 -21.479 -20.005  0.00  0.00    +0.004 C 
ATOM     24  C   UNL     1      35.216 -20.405 -20.481  0.00  0.00    +0.130 C 
ATOM     25  C   UNL     1      36.257 -21.980 -18.844  0.00  0.00    +0.034 C 
ATOM     26  C   UNL     1      32.840 -20.438 -20.920  0.00  0.00    +0.003 C 
ATOM     27  C   UNL     1      34.106 -19.901 -21.158  0.00  0.00    +0.036 C 
BRANCH  24  28
ATOM     28  O   UNL     1      36.444 -19.867 -20.727  0.00  0.00    -0.506 OA
ATOM     29  H   UNL     1      36.513 -19.005 -21.087  0.00  0.00    +0.292 HD
ENDBRANCH  24  28
ENDBRANCH  19  21
ENDBRANCH   2  18
TORSDOF 4
ENDMDL
MODEL 2
REMARK VINA RESULT:     -10.8      1.903      4.362
REMARK  Name = 6852140
REMARK  4 active torsions:
REMARK  status: ('A' for Active; 'I' for Inactive)
REMARK    1  A    between atoms: C_2  and  N_18
REMARK    2  A    between atoms: C_5  and  C_13
REMARK    3  A    between atoms: C_19  and  C_21
REMARK    4  A    between atoms: C_24  and  O_28
REMARK                            x       y       z     vdW  Elec       q    Type
REMARK                         _______ _______ _______ _____ _____    ______ ____
ROOT
ATOM      1  C   UNL     1      33.347 -23.642 -15.486  0.00  0.00    +0.014 C 
ATOM      2  C   UNL     1      32.480 -23.175 -16.488  0.00  0.00    +0.050 C 
ATOM      3  C   UNL     1      32.829 -24.449 -14.445  0.00  0.00    +0.001 C 
ATOM      4  C   UNL     1      34.715 -23.324 -15.494  0.00  0.00    +0.004 C 
ATOM      5  C   UNL     1      35.560 -23.797 -14.490  0.00  0.00    +0.031 C 
ATOM      6  C   UNL     1      33.696 -24.916 -13.442  0.00  0.00    +0.000 C 
ATOM      7  C   UNL     1      31.123 -23.500 -16.464  0.00  0.00    +0.015 C 
ATOM      8  C   UNL     1      31.461 -24.767 -14.437  0.00  0.00    +0.000 C 
ATOM      9  C   UNL     1      35.052 -24.591 -13.467  0.00  0.00    +0.003 C 
ATOM     10  C   UNL     1      30.615 -24.294 -15.441  0.00  0.00    +0.001 C 
ENDROOT
BRANCH   5  13
ATOM     11  N   UNL     1      37.705 -23.472 -15.699  0.00  0.00    -0.343 N 
ATOM     12  N   UNL     1      37.593 -23.141 -13.389  0.00  0.00    -0.285 NA
ATOM     13  C   UNL     1      36.975 -23.460 -14.512  0.00  0.00    +0.117 C 
ATOM     14  H   UNL     1      38.661 -23.241 -15.691  0.00  0.00    +0.144 HD
ATOM     15  H   UNL     1      37.263 -23.710 -16.547  0.00  0.00    +0.144 HD
ATOM     16  H   UNL     1      38.551 -22.913 -13.402  0.00  0.00    +0.188 HD
ENDBRANCH   5  13
BRANCH   2  18
ATOM     17  O   UNL     1      33.857 -23.987 -18.946  0.00  0.00    -0.270 OA
ATOM     18  N   UNL     1      32.935 -22.372 -17.543  0.00  0.00    -0.280 N 
ATOM     19  C   UNL     1      33.587 -22.816 -18.692  0.00  0.00    +0.249 C 
ATOM     20  H   UNL     1      32.780 -21.403 -17.464  0.00  0.00    +0.155 HD
BRANCH  19  21
ATOM     21  C   UNL     1      33.993 -21.733 -19.607  0.00  0.00    +0.053 C 
ATOM     22  C   UNL     1      35.309 -21.301 -19.649  0.00  0.00    +0.016 C 
ATOM     23  C   UNL     1      33.023 -21.165 -20.420  0.00  0.00    +0.004 C 
ATOM     24  C   UNL     1      35.665 -20.275 -20.524  0.00  0.00    +0.130 C 
ATOM     25  C   UNL     1      36.350 -21.918 -18.771  0.00  0.00    +0.034 C 
ATOM     26  C   UNL     1      33.378 -20.139 -21.295  0.00  0.00    +0.003 C 
ATOM     27  C   UNL     1      34.699 -19.694 -21.347  0.00  0.00    +0.036 C 
BRANCH  24  28
ATOM     28  O   UNL     1      36.950 -19.826 -20.590  0.00  0.00    -0.506 OA
ATOM     29  H   UNL     1      37.141 -19.018 -21.023  0.00  0.00    +0.292 HD
ENDBRANCH  24  28
ENDBRANCH  19  21
ENDBRANCH   2  18
TORSDOF 4
ENDMDL
MODEL 3
REMARK VINA RESULT:     -10.6      1.002      1.451
REMARK  Name = 6852140
REMARK  4 active torsions:
REMARK  status: ('A' for Active; 'I' for Inactive)
REMARK    1  A    between atoms: C_2  and  N_18
REMARK    2  A    between atoms: C_5  and  C_13
REMARK    3  A    between atoms: C_19  and  C_21
REMARK    4  A    between atoms: C_24  and  O_28
REMARK                            x       y       z     vdW  Elec       q    Type
REMARK                         _______ _______ _______ _____ _____    ______ ____
ROOT
ATOM      1  C   UNL     1      33.212 -23.830 -15.465  0.00  0.00    +0.014 C 
ATOM      2  C   UNL     1      34.365 -23.287 -16.055  0.00  0.00    +0.050 C 
ATOM      3  C   UNL     1      33.341 -24.648 -14.317  0.00  0.00    +0.001 C 
ATOM      4  C   UNL     1      31.933 -23.581 -15.991  0.00  0.00    +0.004 C 
ATOM      5  C   UNL     1      30.799 -24.129 -15.393  0.00  0.00    +0.031 C 
ATOM      6  C   UNL     1      32.187 -25.191 -13.728  0.00  0.00    +0.000 C 
ATOM      7  C   UNL     1      35.628 -23.546 -15.520  0.00  0.00    +0.015 C 
ATOM      8  C   UNL     1      34.620 -24.896 -13.792  0.00  0.00    +0.000 C 
ATOM      9  C   UNL     1      30.925 -24.932 -14.263  0.00  0.00    +0.003 C 
ATOM     10  C   UNL     1      35.754 -24.349 -14.391  0.00  0.00    +0.001 C 
ENDROOT
BRANCH   5  13
ATOM     11  N   UNL     1      29.281 -22.845 -16.880  0.00  0.00    -0.343 N 
ATOM     12  N   UNL     1      28.446 -24.586 -15.565  0.00  0.00    -0.285 NA
ATOM     13  C   UNL     1      29.482 -23.861 -15.948  0.00  0.00    +0.117 C 
ATOM     14  H   UNL     1      28.380 -22.680 -17.242  0.00  0.00    +0.144 HD
ATOM     15  H   UNL     1      30.039 -22.291 -17.177  0.00  0.00    +0.144 HD
ATOM     16  H   UNL     1      27.554 -24.407 -15.940  0.00  0.00    +0.188 HD
ENDBRANCH   5  13
BRANCH   2  18
ATOM     17  O   UNL     1      33.961 -24.074 -18.850  0.00  0.00    -0.270 OA
ATOM     18  N   UNL     1      34.299 -22.472 -17.193  0.00  0.00    -0.280 N 
ATOM     19  C   UNL     1      34.104 -22.904 -18.504  0.00  0.00    +0.249 C 
ATOM     20  H   UNL     1      34.401 -21.502 -17.053  0.00  0.00    +0.155 HD
BRANCH  19  21
ATOM     21  C   UNL     1      34.129 -21.819 -19.503  0.00  0.00    +0.053 C 
ATOM     22  C   UNL     1      35.330 -21.256 -19.903  0.00  0.00    +0.016 C 
ATOM     23  C   UNL     1      32.921 -21.386 -20.027  0.00  0.00    +0.004 C 
ATOM     24  C   UNL     1      35.323 -20.231 -20.849  0.00  0.00    +0.130 C 
ATOM     25  C   UNL     1      36.630 -21.728 -19.334  0.00  0.00    +0.034 C 
ATOM     26  C   UNL     1      32.914 -20.361 -20.973  0.00  0.00    +0.003 C 
ATOM     27  C   UNL     1      34.115 -19.784 -21.385  0.00  0.00    +0.036 C 
BRANCH  24  28
ATOM     28  O   UNL     1      36.487 -19.654 -21.264  0.00  0.00    -0.506 OA
ATOM     29  H   UNL     1      36.471 -18.814 -21.676  0.00  0.00    +0.292 HD
ENDBRANCH  24  28
ENDBRANCH  19  21
ENDBRANCH   2  18
TORSDOF 4
ENDMDL
MODEL 4
REMARK VINA RESULT:     -10.5      3.231      6.064
REMARK  Name = 6852140
REMARK  4 active torsions:
REMARK  status: ('A' for Active; 'I' for Inactive)
REMARK    1  A    between atoms: C_2  and  N_18
REMARK    2  A    between atoms: C_5  and  C_13
REMARK    3  A    between atoms: C_19  and  C_21
REMARK    4  A    between atoms: C_24  and  O_28
REMARK                            x       y       z     vdW  Elec       q    Type
REMARK                         _______ _______ _______ _____ _____    ______ ____
ROOT
ATOM      1  C   UNL     1      32.336 -24.022 -15.346  0.00  0.00    +0.014 C 
ATOM      2  C   UNL     1      32.866 -24.707 -14.240  0.00  0.00    +0.050 C 
ATOM      3  C   UNL     1      30.945 -23.766 -15.399  0.00  0.00    +0.001 C 
ATOM      4  C   UNL     1      33.155 -23.588 -16.401  0.00  0.00    +0.004 C 
ATOM      5  C   UNL     1      32.612 -22.910 -17.492  0.00  0.00    +0.031 C 
ATOM      6  C   UNL     1      30.415 -23.081 -16.506  0.00  0.00    +0.000 C 
ATOM      7  C   UNL     1      32.036 -25.132 -13.201  0.00  0.00    +0.015 C 
ATOM      8  C   UNL     1      30.125 -24.200 -14.345  0.00  0.00    +0.000 C 
ATOM      9  C   UNL     1      31.245 -22.656 -17.544  0.00  0.00    +0.003 C 
ATOM     10  C   UNL     1      30.669 -24.879 -13.254  0.00  0.00    +0.001 C 
ENDROOT
BRANCH   5  13
ATOM     11  N   UNL     1      32.952 -21.834 -19.704  0.00  0.00    -0.343 N 
ATOM     12  N   UNL     1      34.777 -22.664 -18.504  0.00  0.00    -0.285 NA
ATOM     13  C   UNL     1      33.473 -22.466 -18.576  0.00  0.00    +0.117 C 
ATOM     14  H   UNL     1      33.554 -21.542 -20.426  0.00  0.00    +0.144 HD
ATOM     15  H   UNL     1      31.982 -21.679 -19.778  0.00  0.00    +0.144 HD
ATOM     16  H   UNL     1      35.362 -22.363 -19.236  0.00  0.00    +0.188 HD
ENDBRANCH   5  13
BRANCH   2  18
ATOM     17  O   UNL     1      34.778 -23.768 -12.224  0.00  0.00    -0.270 OA
ATOM     18  N   UNL     1      34.234 -24.990 -14.133  0.00  0.00    -0.280 N 
ATOM     19  C   UNL     1      35.098 -24.513 -13.148  0.00  0.00    +0.249 C 
ATOM     20  H   UNL     1      34.621 -25.581 -14.818  0.00  0.00    +0.155 HD
BRANCH  19  21
ATOM     21  C   UNL     1      36.499 -24.941 -13.320  0.00  0.00    +0.053 C 
ATOM     22  C   UNL     1      37.267 -24.439 -14.358  0.00  0.00    +0.016 C 
ATOM     23  C   UNL     1      37.019 -25.855 -12.416  0.00  0.00    +0.004 C 
ATOM     24  C   UNL     1      38.589 -24.862 -14.497  0.00  0.00    +0.130 C 
ATOM     25  C   UNL     1      36.700 -23.454 -15.330  0.00  0.00    +0.034 C 
ATOM     26  C   UNL     1      38.340 -26.277 -12.554  0.00  0.00    +0.003 C 
ATOM     27  C   UNL     1      39.126 -25.781 -13.595  0.00  0.00    +0.036 C 
BRANCH  24  28
ATOM     28  O   UNL     1      39.373 -24.389 -15.507  0.00  0.00    -0.506 OA
ATOM     29  H   UNL     1      39.250 -23.516 -15.824  0.00  0.00    +0.292 HD
ENDBRANCH  24  28
ENDBRANCH  19  21
ENDBRANCH   2  18
TORSDOF 4
ENDMDL
MODEL 5
REMARK VINA RESULT:     -10.1      3.452      6.302
REMARK  Name = 6852140
REMARK  4 active torsions:
REMARK  status: ('A' for Active; 'I' for Inactive)
REMARK    1  A    between atoms: C_2  and  N_18
REMARK    2  A    between atoms: C_5  and  C_13
REMARK    3  A    between atoms: C_19  and  C_21
REMARK    4  A    between atoms: C_24  and  O_28
REMARK                            x       y       z     vdW  Elec       q    Type
REMARK                         _______ _______ _______ _____ _____    ______ ____
ROOT
ATOM      1  C   UNL     1      33.357 -23.255 -16.387  0.00  0.00    +0.014 C 
ATOM      2  C   UNL     1      34.747 -23.148 -16.563  0.00  0.00    +0.050 C 
ATOM      3  C   UNL     1      32.494 -22.865 -17.439  0.00  0.00    +0.001 C 
ATOM      4  C   UNL     1      32.805 -23.739 -15.189  0.00  0.00    +0.004 C 
ATOM      5  C   UNL     1      31.423 -23.839 -15.031  0.00  0.00    +0.031 C 
ATOM      6  C   UNL     1      31.104 -22.973 -17.262  0.00  0.00    +0.000 C 
ATOM      7  C   UNL     1      35.277 -22.663 -17.760  0.00  0.00    +0.015 C 
ATOM      8  C   UNL     1      33.045 -22.381 -18.636  0.00  0.00    +0.000 C 
ATOM      9  C   UNL     1      30.574 -23.457 -16.066  0.00  0.00    +0.003 C 
ATOM     10  C   UNL     1      34.427 -22.281 -18.793  0.00  0.00    +0.001 C 
ENDROOT
BRANCH   5  13
ATOM     11  N   UNL     1      29.991 -25.427 -13.769  0.00  0.00    -0.343 N 
ATOM     12  N   UNL     1      31.186 -23.766 -12.641  0.00  0.00    -0.285 NA
ATOM     13  C   UNL     1      30.867 -24.343 -13.786  0.00  0.00    +0.117 C 
ATOM     14  H   UNL     1      29.626 -25.752 -12.915  0.00  0.00    +0.144 HD
ATOM     15  H   UNL     1      29.739 -25.869 -14.612  0.00  0.00    +0.144 HD
ATOM     16  H   UNL     1      30.811 -24.106 -11.797  0.00  0.00    +0.188 HD
ENDBRANCH   5  13
BRANCH   2  18
ATOM     17  O   UNL     1      35.605 -25.837 -15.770  0.00  0.00    -0.270 OA
ATOM     18  N   UNL     1      35.649 -23.517 -15.558  0.00  0.00    -0.280 N 
ATOM     19  C   UNL     1      36.021 -24.818 -15.224  0.00  0.00    +0.249 C 
ATOM     20  H   UNL     1      36.060 -22.788 -15.038  0.00  0.00    +0.155 HD
BRANCH  19  21
ATOM     21  C   UNL     1      36.956 -24.902 -14.086  0.00  0.00    +0.053 C 
ATOM     22  C   UNL     1      36.516 -24.667 -12.793  0.00  0.00    +0.016 C 
ATOM     23  C   UNL     1      38.279 -25.222 -14.349  0.00  0.00    +0.004 C 
ATOM     24  C   UNL     1      37.421 -24.753 -11.736  0.00  0.00    +0.130 C 
ATOM     25  C   UNL     1      35.087 -24.323 -12.516  0.00  0.00    +0.034 C 
ATOM     26  C   UNL     1      39.185 -25.308 -13.292  0.00  0.00    +0.003 C 
ATOM     27  C   UNL     1      38.756 -25.073 -11.985  0.00  0.00    +0.036 C 
BRANCH  24  28
ATOM     28  O   UNL     1      37.022 -24.527 -10.452  0.00  0.00    -0.506 OA
ATOM     29  H   UNL     1      36.455 -25.139 -10.025  0.00  0.00    +0.292 HD
ENDBRANCH  24  28
ENDBRANCH  19  21
ENDBRANCH   2  18
TORSDOF 4
ENDMDL
MODEL 6
REMARK VINA RESULT:     -10.1      2.218      4.706
REMARK  Name = 6852140
REMARK  4 active torsions:
REMARK  status: ('A' for Active; 'I' for Inactive)
REMARK    1  A    between atoms: C_2  and  N_18
REMARK    2  A    between atoms: C_5  and  C_13
REMARK    3  A    between atoms: C_19  and  C_21
REMARK    4  A    between atoms: C_24  and  O_28
REMARK                            x       y       z     vdW  Elec       q    Type
REMARK                         _______ _______ _______ _____ _____    ______ ____
ROOT
ATOM      1  C   UNL     1      33.662 -23.580 -15.288  0.00  0.00    +0.014 C 
ATOM      2  C   UNL     1      33.038 -23.120 -16.460  0.00  0.00    +0.050 C 
ATOM      3  C   UNL     1      32.906 -24.322 -14.349  0.00  0.00    +0.001 C 
ATOM      4  C   UNL     1      35.016 -23.318 -15.027  0.00  0.00    +0.004 C 
ATOM      5  C   UNL     1      35.618 -23.783 -13.857  0.00  0.00    +0.031 C 
ATOM      6  C   UNL     1      33.529 -24.783 -13.177  0.00  0.00    +0.000 C 
ATOM      7  C   UNL     1      31.691 -23.388 -16.702  0.00  0.00    +0.015 C 
ATOM      8  C   UNL     1      31.551 -24.584 -14.610  0.00  0.00    +0.000 C 
ATOM      9  C   UNL     1      34.877 -24.514 -12.935  0.00  0.00    +0.003 C 
ATOM     10  C   UNL     1      30.949 -24.119 -15.779  0.00  0.00    +0.001 C 
ENDROOT
BRANCH   5  13
ATOM     11  N   UNL     1      37.479 -23.194 -12.321  0.00  0.00    -0.343 N 
ATOM     12  N   UNL     1      37.892 -23.538 -14.595  0.00  0.00    -0.285 NA
ATOM     13  C   UNL     1      37.023 -23.505 -13.601  0.00  0.00    +0.117 C 
ATOM     14  H   UNL     1      38.433 -23.009 -12.171  0.00  0.00    +0.144 HD
ATOM     15  H   UNL     1      36.846 -23.161 -11.567  0.00  0.00    +0.144 HD
ATOM     16  H   UNL     1      38.843 -23.350 -14.424  0.00  0.00    +0.188 HD
ENDBRANCH   5  13
BRANCH   2  18
ATOM     17  O   UNL     1      33.873 -23.940 -19.148  0.00  0.00    -0.270 OA
ATOM     18  N   UNL     1      33.735 -22.379 -17.424  0.00  0.00    -0.280 N 
ATOM     19  C   UNL     1      34.106 -22.823 -18.692  0.00  0.00    +0.249 C 
ATOM     20  H   UNL     1      33.985 -21.458 -17.183  0.00  0.00    +0.155 HD
BRANCH  19  21
ATOM     21  C   UNL     1      34.876 -21.837 -19.472  0.00  0.00    +0.053 C 
ATOM     22  C   UNL     1      34.231 -20.944 -20.314  0.00  0.00    +0.016 C 
ATOM     23  C   UNL     1      36.256 -21.829 -19.336  0.00  0.00    +0.004 C 
ATOM     24  C   UNL     1      34.985 -20.022 -21.040  0.00  0.00    +0.130 C 
ATOM     25  C   UNL     1      32.743 -20.957 -20.455  0.00  0.00    +0.034 C 
ATOM     26  C   UNL     1      37.010 -20.907 -20.062  0.00  0.00    +0.003 C 
ATOM     27  C   UNL     1      36.374 -20.003 -20.914  0.00  0.00    +0.036 C 
BRANCH  24  28
ATOM     28  O   UNL     1      34.383 -19.131 -21.877  0.00  0.00    -0.506 OA
ATOM     29  H   UNL     1      33.634 -18.649 -21.586  0.00  0.00    +0.292 HD
ENDBRANCH  24  28
ENDBRANCH  19  21
ENDBRANCH   2  18
TORSDOF 4
ENDMDL
MODEL 7
REMARK VINA RESULT:      -9.8      1.207      1.971
REMARK  Name = 6852140
REMARK  4 active torsions:
REMARK  status: ('A' for Active; 'I' for Inactive)
REMARK    1  A    between atoms: C_2  and  N_18
REMARK    2  A    between atoms: C_5  and  C_13
REMARK    3  A    between atoms: C_19  and  C_21
REMARK    4  A    between atoms: C_24  and  O_28
REMARK                            x       y       z     vdW  Elec       q    Type
REMARK                         _______ _______ _______ _____ _____    ______ ____
ROOT
ATOM      1  C   UNL     1      32.855 -23.767 -15.097  0.00  0.00    +0.014 C 
ATOM      2  C   UNL     1      34.166 -23.372 -15.412  0.00  0.00    +0.050 C 
ATOM      3  C   UNL     1      32.619 -24.489 -13.902  0.00  0.00    +0.001 C 
ATOM      4  C   UNL     1      31.775 -23.465 -15.941  0.00  0.00    +0.004 C 
ATOM      5  C   UNL     1      30.480 -23.866 -15.612  0.00  0.00    +0.031 C 
ATOM      6  C   UNL     1      31.308 -24.885 -13.587  0.00  0.00    +0.000 C 
ATOM      7  C   UNL     1      35.227 -23.683 -14.561  0.00  0.00    +0.015 C 
ATOM      8  C   UNL     1      33.700 -24.792 -13.057  0.00  0.00    +0.000 C 
ATOM      9  C   UNL     1      30.247 -24.574 -14.437  0.00  0.00    +0.003 C 
ATOM     10  C   UNL     1      34.994 -24.391 -13.387  0.00  0.00    +0.001 C 
ENDROOT
BRANCH   5  13
ATOM     11  N   UNL     1      28.409 -24.496 -16.829  0.00  0.00    -0.343 N 
ATOM     12  N   UNL     1      29.267 -22.330 -17.006  0.00  0.00    -0.285 NA
ATOM     13  C   UNL     1      29.371 -23.544 -16.497  0.00  0.00    +0.117 C 
ATOM     14  H   UNL     1      27.667 -24.257 -17.430  0.00  0.00    +0.144 HD
ATOM     15  H   UNL     1      28.470 -25.408 -16.462  0.00  0.00    +0.144 HD
ATOM     16  H   UNL     1      28.517 -22.110 -17.605  0.00  0.00    +0.188 HD
ENDBRANCH   5  13
BRANCH   2  18
ATOM     17  O   UNL     1      33.959 -24.255 -18.200  0.00  0.00    -0.270 OA
ATOM     18  N   UNL     1      34.460 -22.657 -16.580  0.00  0.00    -0.280 N 
ATOM     19  C   UNL     1      34.342 -23.131 -17.886  0.00  0.00    +0.249 C 
ATOM     20  H   UNL     1      34.781 -21.733 -16.469  0.00  0.00    +0.155 HD
BRANCH  19  21
ATOM     21  C   UNL     1      34.773 -22.167 -18.916  0.00  0.00    +0.053 C 
ATOM     22  C   UNL     1      33.838 -21.461 -19.657  0.00  0.00    +0.016 C 
ATOM     23  C   UNL     1      36.133 -21.989 -19.116  0.00  0.00    +0.004 C 
ATOM     24  C   UNL     1      34.274 -20.556 -20.624  0.00  0.00    +0.130 C 
ATOM     25  C   UNL     1      32.372 -21.658 -19.435  0.00  0.00    +0.034 C 
ATOM     26  C   UNL     1      36.569 -21.083 -20.083  0.00  0.00    +0.003 C 
ATOM     27  C   UNL     1      35.640 -20.367 -20.837  0.00  0.00    +0.036 C 
BRANCH  24  28
ATOM     28  O   UNL     1      33.381 -19.846 -21.371  0.00  0.00    -0.506 OA
ATOM     29  H   UNL     1      33.005 -20.229 -22.138  0.00  0.00    +0.292 HD
ENDBRANCH  24  28
ENDBRANCH  19  21
ENDBRANCH   2  18
TORSDOF 4
ENDMDL
MODEL 8
REMARK VINA RESULT:      -9.7      2.745      7.258
REMARK  Name = 6852140
REMARK  4 active torsions:
REMARK  status: ('A' for Active; 'I' for Inactive)
REMARK    1  A    between atoms: C_2  and  N_18
REMARK    2  A    between atoms: C_5  and  C_13
REMARK    3  A    between atoms: C_19  and  C_21
REMARK    4  A    between atoms: C_24  and  O_28
REMARK                            x       y       z     vdW  Elec       q    Type
REMARK                         _______ _______ _______ _____ _____    ______ ____
ROOT
ATOM      1  C   UNL     1      35.103 -22.790 -17.118  0.00  0.00    +0.014 C 
ATOM      2  C   UNL     1      33.819 -22.975 -17.658  0.00  0.00    +0.050 C 
ATOM      3  C   UNL     1      36.105 -22.178 -17.909  0.00  0.00    +0.001 C 
ATOM      4  C   UNL     1      35.414 -23.200 -15.811  0.00  0.00    +0.004 C 
ATOM      5  C   UNL     1      36.694 -23.008 -15.291  0.00  0.00    +0.031 C 
ATOM      6  C   UNL     1      37.388 -21.992 -17.368  0.00  0.00    +0.000 C 
ATOM      7  C   UNL     1      33.528 -22.563 -18.959  0.00  0.00    +0.015 C 
ATOM      8  C   UNL     1      35.793 -21.768 -19.216  0.00  0.00    +0.000 C 
ATOM      9  C   UNL     1      37.679 -22.405 -16.067  0.00  0.00    +0.003 C 
ATOM     10  C   UNL     1      34.514 -21.961 -19.736  0.00  0.00    +0.001 C 
ENDROOT
BRANCH   5  13
ATOM     11  N   UNL     1      36.045 -23.378 -12.923  0.00  0.00    -0.343 N 
ATOM     12  N   UNL     1      38.208 -23.886 -13.645  0.00  0.00    -0.285 NA
ATOM     13  C   UNL     1      37.001 -23.437 -13.936  0.00  0.00    +0.117 C 
ATOM     14  H   UNL     1      36.275 -23.673 -12.012  0.00  0.00    +0.144 HD
ATOM     15  H   UNL     1      35.140 -23.043 -13.118  0.00  0.00    +0.144 HD
ATOM     16  H   UNL     1      38.418 -24.177 -12.728  0.00  0.00    +0.188 HD
ENDBRANCH   5  13
BRANCH   2  18
ATOM     17  O   UNL     1      31.004 -22.179 -17.465  0.00  0.00    -0.270 OA
ATOM     18  N   UNL     1      32.789 -23.576 -16.924  0.00  0.00    -0.280 N 
ATOM     19  C   UNL     1      31.462 -23.151 -16.870  0.00  0.00    +0.249 C 
ATOM     20  H   UNL     1      33.024 -24.373 -16.396  0.00  0.00    +0.155 HD
BRANCH  19  21
ATOM     21  C   UNL     1      30.611 -23.954 -15.971  0.00  0.00    +0.053 C 
ATOM     22  C   UNL     1      30.964 -24.138 -14.643  0.00  0.00    +0.016 C 
ATOM     23  C   UNL     1      29.455 -24.513 -16.492  0.00  0.00    +0.004 C 
ATOM     24  C   UNL     1      30.141 -24.901 -13.817  0.00  0.00    +0.130 C 
ATOM     25  C   UNL     1      32.212 -23.531 -14.087  0.00  0.00    +0.034 C 
ATOM     26  C   UNL     1      28.631 -25.277 -15.666  0.00  0.00    +0.003 C 
ATOM     27  C   UNL     1      28.974 -25.471 -14.327  0.00  0.00    +0.036 C 
BRANCH  24  28
ATOM     28  O   UNL     1      30.459 -25.103 -12.506  0.00  0.00    -0.506 OA
ATOM     29  H   UNL     1      30.223 -25.906 -12.086  0.00  0.00    +0.292 HD
ENDBRANCH  24  28
ENDBRANCH  19  21
ENDBRANCH   2  18
TORSDOF 4
ENDMDL
MODEL 9
REMARK VINA RESULT:      -9.5     12.560     15.939
REMARK  Name = 6852140
REMARK  4 active torsions:
REMARK  status: ('A' for Active; 'I' for Inactive)
REMARK    1  A    between atoms: C_2  and  N_18
REMARK    2  A    between atoms: C_5  and  C_13
REMARK    3  A    between atoms: C_19  and  C_21
REMARK    4  A    between atoms: C_24  and  O_28
REMARK                            x       y       z     vdW  Elec       q    Type
REMARK                         _______ _______ _______ _____ _____    ______ ____
ROOT
ATOM      1  C   UNL     1      32.545 -10.834 -22.679  0.00  0.00    +0.014 C 
ATOM      2  C   UNL     1      32.055  -9.663 -22.076  0.00  0.00    +0.050 C 
ATOM      3  C   UNL     1      32.478 -12.057 -21.970  0.00  0.00    +0.001 C 
ATOM      4  C   UNL     1      33.103 -10.817 -23.967  0.00  0.00    +0.004 C 
ATOM      5  C   UNL     1      33.586 -11.988 -24.550  0.00  0.00    +0.031 C 
ATOM      6  C   UNL     1      32.968 -13.228 -22.573  0.00  0.00    +0.000 C 
ATOM      7  C   UNL     1      31.505  -9.700 -20.794  0.00  0.00    +0.015 C 
ATOM      8  C   UNL     1      31.919 -12.075 -20.681  0.00  0.00    +0.000 C 
ATOM      9  C   UNL     1      33.518 -13.192 -23.854  0.00  0.00    +0.003 C 
ATOM     10  C   UNL     1      31.438 -10.903 -20.099  0.00  0.00    +0.001 C 
ENDROOT
BRANCH   5  13
ATOM     11  N   UNL     1      33.714 -12.814 -26.888  0.00  0.00    -0.343 N 
ATOM     12  N   UNL     1      35.128 -11.101 -26.164  0.00  0.00    -0.285 NA
ATOM     13  C   UNL     1      34.160 -11.954 -25.885  0.00  0.00    +0.117 C 
ATOM     14  H   UNL     1      34.117 -12.774 -27.785  0.00  0.00    +0.144 HD
ATOM     15  H   UNL     1      32.995 -13.460 -26.700  0.00  0.00    +0.144 HD
ATOM     16  H   UNL     1      35.518 -11.076 -27.068  0.00  0.00    +0.188 HD
ENDBRANCH   5  13
BRANCH   2  18
ATOM     17  O   UNL     1      33.833  -7.388 -21.571  0.00  0.00    -0.270 OA
ATOM     18  N   UNL     1      32.097  -8.424 -22.728  0.00  0.00    -0.280 N 
ATOM     19  C   UNL     1      32.968  -7.374 -22.444  0.00  0.00    +0.249 C 
ATOM     20  H   UNL     1      31.449  -8.281 -23.455  0.00  0.00    +0.155 HD
BRANCH  19  21
ATOM     21  C   UNL     1      32.745  -6.170 -23.265  0.00  0.00    +0.053 C 
ATOM     22  C   UNL     1      31.755  -5.260 -22.929  0.00  0.00    +0.016 C 
ATOM     23  C   UNL     1      33.552  -5.977 -24.376  0.00  0.00    +0.004 C 
ATOM     24  C   UNL     1      31.566  -4.130 -23.724  0.00  0.00    +0.130 C 
ATOM     25  C   UNL     1      30.888  -5.474 -21.729  0.00  0.00    +0.034 C 
ATOM     26  C   UNL     1      33.364  -4.847 -25.171  0.00  0.00    +0.003 C 
ATOM     27  C   UNL     1      32.370  -3.923 -24.845  0.00  0.00    +0.036 C 
BRANCH  24  28
ATOM     28  O   UNL     1      30.601  -3.216 -23.422  0.00  0.00    -0.506 OA
ATOM     29  H   UNL     1      29.818  -3.489 -22.987  0.00  0.00    +0.292 HD
ENDBRANCH  24  28
ENDBRANCH  19  21
ENDBRANCH   2  18
TORSDOF 4
ENDMDL
