MODEL 1
REMARK VINA RESULT:     -11.7      0.000      0.000
REMARK  Name = 10050566
REMARK  9 active torsions:
REMARK  status: ('A' for Active; 'I' for Inactive)
REMARK    1  A    between atoms: C_2  and  N_11
REMARK    2  A    between atoms: C_3  and  O_22
REMARK    3  A    between atoms: C_12  and  C_14
REMARK    4  A    between atoms: C_19  and  O_20
REMARK    5  A    between atoms: O_22  and  C_24
REMARK    6  A    between atoms: C_24  and  C_25
REMARK    7  A    between atoms: C_30  and  C_32
REMARK    8  A    between atoms: C_32  and  C_33
REMARK    9  A    between atoms: C_34  and  O_39
REMARK                            x       y       z     vdW  Elec       q    Type
REMARK                         _______ _______ _______ _____ _____    ______ ____
ROOT
ATOM      1  N   UNL     1      32.406 -22.361 -14.354  0.00  0.00    +0.385 N 
ATOM      2  C   UNL     1      34.511 -23.293 -15.333  0.00  0.00    +0.091 C 
ATOM      3  C   UNL     1      33.800 -24.004 -16.498  0.00  0.00    +0.185 C 
ATOM      4  C   UNL     1      32.584 -24.863 -16.132  0.00  0.00    +0.043 C 
ATOM      5  C   UNL     1      33.675 -23.032 -14.076  0.00  0.00    -0.058 C 
ATOM      6  C   UNL     1      31.303 -24.087 -15.814  0.00  0.00    -0.020 C 
ATOM      7  C   UNL     1      31.312 -23.322 -14.495  0.00  0.00    -0.082 C 
ATOM      8  H   UNL     1      32.495 -21.830 -15.221  0.00  0.00    -0.084 HD
ATOM      9  H   UNL     1      32.191 -21.744 -13.571  0.00  0.00    -0.084 HD
ENDROOT
BRANCH   2  11
ATOM     10  O   UNL     1      37.232 -22.563 -15.878  0.00  0.00    -0.270 OA
ATOM     11  N   UNL     1      35.698 -24.038 -14.958  0.00  0.00    -0.301 N 
ATOM     12  C   UNL     1      36.971 -23.597 -15.269  0.00  0.00    +0.246 C 
ATOM     13  H   UNL     1      35.594 -24.884 -14.466  0.00  0.00    +0.150 HD
BRANCH  12  14
ATOM     14  C   UNL     1      38.080 -24.487 -14.839  0.00  0.00    +0.054 C 
ATOM     15  C   UNL     1      37.930 -25.227 -13.684  0.00  0.00    +0.008 C 
ATOM     16  C   UNL     1      39.225 -24.546 -15.606  0.00  0.00    +0.008 C 
ATOM     17  C   UNL     1      38.970 -26.063 -13.279  0.00  0.00    +0.037 C 
ATOM     18  C   UNL     1      40.265 -25.382 -15.202  0.00  0.00    +0.037 C 
ATOM     19  C   UNL     1      40.137 -26.140 -14.037  0.00  0.00    +0.134 C 
BRANCH  19  20
ATOM     20  O   UNL     1      41.152 -26.957 -13.644  0.00  0.00    -0.506 OA
ATOM     21  H   UNL     1      41.933 -26.591 -13.278  0.00  0.00    +0.292 HD
ENDBRANCH  19  20
ENDBRANCH  12  14
ENDBRANCH   2  11
BRANCH   3  22
ATOM     22  O   UNL     1      33.436 -23.039 -17.490  0.00  0.00    -0.448 OA
BRANCH  22  24
ATOM     23  O   UNL     1      33.756 -24.458 -19.273  0.00  0.00    -0.245 OA
ATOM     24  C   UNL     1      33.784 -23.349 -18.763  0.00  0.00    +0.341 C 
BRANCH  24  25
ATOM     25  C   UNL     1      34.221 -22.130 -19.489  0.00  0.00    +0.076 C 
ATOM     26  C   UNL     1      33.263 -21.290 -20.020  0.00  0.00    +0.007 C 
ATOM     27  C   UNL     1      35.572 -21.876 -19.613  0.00  0.00    +0.007 C 
ATOM     28  C   UNL     1      33.675 -20.145 -20.703  0.00  0.00    +0.003 C 
ATOM     29  C   UNL     1      35.983 -20.732 -20.296  0.00  0.00    +0.003 C 
ATOM     30  C   UNL     1      35.034 -19.865 -20.841  0.00  0.00    +0.039 C 
BRANCH  30  32
ATOM     31  O   UNL     1      36.199 -17.844 -20.999  0.00  0.00    -0.286 OA
ATOM     32  C   UNL     1      35.462 -18.673 -21.553  0.00  0.00    +0.198 C 
BRANCH  32  33
ATOM     33  C   UNL     1      35.046 -18.388 -22.960  0.00  0.00    +0.073 C 
ATOM     34  C   UNL     1      35.015 -17.087 -23.409  0.00  0.00    +0.137 C 
ATOM     35  C   UNL     1      34.709 -19.458 -23.758  0.00  0.00    +0.006 C 
ATOM     36  C   UNL     1      34.624 -16.843 -24.724  0.00  0.00    +0.037 C 
ATOM     37  C   UNL     1      34.319 -19.214 -25.074  0.00  0.00    +0.000 C 
ATOM     38  C   UNL     1      34.276 -17.907 -25.557  0.00  0.00    +0.003 C 
BRANCH  34  39
ATOM     39  O   UNL     1      35.351 -16.035 -22.610  0.00  0.00    -0.505 OA
ATOM     40  H   UNL     1      36.018 -16.135 -21.959  0.00  0.00    +0.292 HD
ENDBRANCH  34  39
ENDBRANCH  32  33
ENDBRANCH  30  32
ENDBRANCH  24  25
ENDBRANCH  22  24
ENDBRANCH   3  22
TORSDOF 9
ENDMDL
MODEL 2
REMARK VINA RESULT:     -11.1      7.531     14.391
REMARK  Name = 10050566
REMARK  9 active torsions:
REMARK  status: ('A' for Active; 'I' for Inactive)
REMARK    1  A    between atoms: C_2  and  N_11
REMARK    2  A    between atoms: C_3  and  O_22
REMARK    3  A    between atoms: C_12  and  C_14
REMARK    4  A    between atoms: C_19  and  O_20
REMARK    5  A    between atoms: O_22  and  C_24
REMARK    6  A    between atoms: C_24  and  C_25
REMARK    7  A    between atoms: C_30  and  C_32
REMARK    8  A    between atoms: C_32  and  C_33
REMARK    9  A    between atoms: C_34  and  O_39
REMARK                            x       y       z     vdW  Elec       q    Type
REMARK                         _______ _______ _______ _____ _____    ______ ____
ROOT
ATOM      1  N   UNL     1      35.841 -10.850 -25.823  0.00  0.00    +0.385 N 
ATOM      2  C   UNL     1      34.269 -10.119 -24.019  0.00  0.00    +0.091 C 
ATOM      3  C   UNL     1      33.435 -11.412 -24.054  0.00  0.00    +0.185 C 
ATOM      4  C   UNL     1      32.974 -11.890 -25.436  0.00  0.00    +0.043 C 
ATOM      5  C   UNL     1      35.023  -9.755 -25.303  0.00  0.00    -0.058 C 
ATOM      6  C   UNL     1      34.053 -12.555 -26.294  0.00  0.00    -0.020 C 
ATOM      7  C   UNL     1      35.124 -11.618 -26.841  0.00  0.00    -0.082 C 
ATOM      8  H   UNL     1      36.091 -11.472 -25.054  0.00  0.00    -0.084 HD
ATOM      9  H   UNL     1      36.676 -10.450 -26.252  0.00  0.00    -0.084 HD
ENDROOT
BRANCH   2  11
ATOM     10  O   UNL     1      35.131  -7.627 -22.888  0.00  0.00    -0.270 OA
ATOM     11  N   UNL     1      33.424  -9.002 -23.642  0.00  0.00    -0.301 N 
ATOM     12  C   UNL     1      33.941  -7.839 -23.102  0.00  0.00    +0.246 C 
ATOM     13  H   UNL     1      32.451  -9.074 -23.773  0.00  0.00    +0.150 HD
BRANCH  12  14
ATOM     14  C   UNL     1      32.942  -6.800 -22.743  0.00  0.00    +0.054 C 
ATOM     15  C   UNL     1      32.344  -6.852 -21.501  0.00  0.00    +0.008 C 
ATOM     16  C   UNL     1      32.642  -5.816 -23.663  0.00  0.00    +0.008 C 
ATOM     17  C   UNL     1      31.406  -5.877 -21.163  0.00  0.00    +0.037 C 
ATOM     18  C   UNL     1      31.705  -4.841 -23.325  0.00  0.00    +0.037 C 
ATOM     19  C   UNL     1      31.086  -4.872 -22.074  0.00  0.00    +0.134 C 
BRANCH  19  20
ATOM     20  O   UNL     1      30.173  -3.918 -21.744  0.00  0.00    -0.506 OA
ATOM     21  H   UNL     1      30.459  -3.101 -21.386  0.00  0.00    +0.292 HD
ENDBRANCH  19  20
ENDBRANCH  12  14
ENDBRANCH   2  11
BRANCH   3  22
ATOM     22  O   UNL     1      34.153 -12.457 -23.390  0.00  0.00    -0.448 OA
BRANCH  22  24
ATOM     23  O   UNL     1      32.332 -12.999 -22.091  0.00  0.00    -0.245 OA
ATOM     24  C   UNL     1      33.406 -13.272 -22.604  0.00  0.00    +0.341 C 
BRANCH  24  25
ATOM     25  C   UNL     1      34.081 -14.583 -22.434  0.00  0.00    +0.076 C 
ATOM     26  C   UNL     1      34.388 -15.325 -23.556  0.00  0.00    +0.007 C 
ATOM     27  C   UNL     1      34.378 -15.021 -21.159  0.00  0.00    +0.007 C 
ATOM     28  C   UNL     1      35.021 -16.559 -23.396  0.00  0.00    +0.003 C 
ATOM     29  C   UNL     1      35.010 -16.253 -20.999  0.00  0.00    +0.003 C 
ATOM     30  C   UNL     1      35.332 -17.023 -22.118  0.00  0.00    +0.039 C 
BRANCH  30  32
ATOM     31  O   UNL     1      37.115 -18.502 -22.437  0.00  0.00    -0.286 OA
ATOM     32  C   UNL     1      35.991 -18.308 -21.951  0.00  0.00    +0.198 C 
BRANCH  32  33
ATOM     33  C   UNL     1      35.362 -19.439 -21.204  0.00  0.00    +0.073 C 
ATOM     34  C   UNL     1      36.132 -20.205 -20.359  0.00  0.00    +0.137 C 
ATOM     35  C   UNL     1      34.018 -19.665 -21.396  0.00  0.00    +0.006 C 
ATOM     36  C   UNL     1      35.526 -21.255 -19.671  0.00  0.00    +0.037 C 
ATOM     37  C   UNL     1      33.411 -20.715 -20.707  0.00  0.00    +0.000 C 
ATOM     38  C   UNL     1      34.166 -21.510 -19.845  0.00  0.00    +0.003 C 
BRANCH  34  39
ATOM     39  O   UNL     1      37.462 -19.972 -20.176  0.00  0.00    -0.505 OA
ATOM     40  H   UNL     1      38.014 -20.646 -19.829  0.00  0.00    +0.292 HD
ENDBRANCH  34  39
ENDBRANCH  32  33
ENDBRANCH  30  32
ENDBRANCH  24  25
ENDBRANCH  22  24
ENDBRANCH   3  22
TORSDOF 9
ENDMDL
MODEL 3
REMARK VINA RESULT:     -10.9      2.183      5.863
REMARK  Name = 10050566
REMARK  9 active torsions:
REMARK  status: ('A' for Active; 'I' for Inactive)
REMARK    1  A    between atoms: C_2  and  N_11
REMARK    2  A    between atoms: C_3  and  O_22
REMARK    3  A    between atoms: C_12  and  C_14
REMARK    4  A    between atoms: C_19  and  O_20
REMARK    5  A    between atoms: O_22  and  C_24
REMARK    6  A    between atoms: C_24  and  C_25
REMARK    7  A    between atoms: C_30  and  C_32
REMARK    8  A    between atoms: C_32  and  C_33
REMARK    9  A    between atoms: C_34  and  O_39
REMARK                            x       y       z     vdW  Elec       q    Type
REMARK                         _______ _______ _______ _____ _____    ______ ____
ROOT
ATOM      1  N   UNL     1      35.445 -25.283 -14.779  0.00  0.00    +0.385 N 
ATOM      2  C   UNL     1      33.449 -24.377 -15.985  0.00  0.00    +0.091 C 
ATOM      3  C   UNL     1      34.179 -23.123 -16.501  0.00  0.00    +0.185 C 
ATOM      4  C   UNL     1      34.978 -22.324 -15.467  0.00  0.00    +0.043 C 
ATOM      5  C   UNL     1      34.009 -25.018 -14.711  0.00  0.00    -0.058 C 
ATOM      6  C   UNL     1      36.316 -22.939 -15.052  0.00  0.00    -0.020 C 
ATOM      7  C   UNL     1      36.220 -24.192 -14.188  0.00  0.00    -0.082 C 
ATOM      8  H   UNL     1      35.716 -25.390 -15.757  0.00  0.00    -0.084 HD
ATOM      9  H   UNL     1      35.639 -26.136 -14.254  0.00  0.00    -0.084 HD
ENDROOT
BRANCH   2  11
ATOM     10  O   UNL     1      31.774 -22.780 -17.681  0.00  0.00    -0.270 OA
ATOM     11  N   UNL     1      32.046 -24.075 -15.778  0.00  0.00    -0.301 N 
ATOM     12  C   UNL     1      31.325 -23.292 -16.659  0.00  0.00    +0.246 C 
ATOM     13  H   UNL     1      31.592 -24.439 -14.983  0.00  0.00    +0.150 HD
BRANCH  12  14
ATOM     14  C   UNL     1      29.905 -23.053 -16.291  0.00  0.00    +0.054 C 
ATOM     15  C   UNL     1      28.927 -23.262 -17.242  0.00  0.00    +0.008 C 
ATOM     16  C   UNL     1      29.609 -22.632 -15.012  0.00  0.00    +0.008 C 
ATOM     17  C   UNL     1      27.594 -23.038 -16.898  0.00  0.00    +0.037 C 
ATOM     18  C   UNL     1      28.276 -22.409 -14.667  0.00  0.00    +0.037 C 
ATOM     19  C   UNL     1      27.269 -22.612 -15.611  0.00  0.00    +0.134 C 
BRANCH  19  20
ATOM     20  O   UNL     1      25.968 -22.397 -15.274  0.00  0.00    -0.506 OA
ATOM     21  H   UNL     1      25.405 -23.124 -15.094  0.00  0.00    +0.292 HD
ENDBRANCH  19  20
ENDBRANCH  12  14
ENDBRANCH   2  11
BRANCH   3  22
ATOM     22  O   UNL     1      35.024 -23.486 -17.598  0.00  0.00    -0.448 OA
BRANCH  22  24
ATOM     23  O   UNL     1      33.777 -24.393 -19.307  0.00  0.00    -0.245 OA
ATOM     24  C   UNL     1      34.432 -23.485 -18.818  0.00  0.00    +0.341 C 
BRANCH  24  25
ATOM     25  C   UNL     1      34.690 -22.200 -19.516  0.00  0.00    +0.076 C 
ATOM     26  C   UNL     1      35.994 -21.781 -19.681  0.00  0.00    +0.007 C 
ATOM     27  C   UNL     1      33.618 -21.464 -19.975  0.00  0.00    +0.007 C 
ATOM     28  C   UNL     1      36.236 -20.573 -20.336  0.00  0.00    +0.003 C 
ATOM     29  C   UNL     1      33.859 -20.256 -20.630  0.00  0.00    +0.003 C 
ATOM     30  C   UNL     1      35.170 -19.810 -20.810  0.00  0.00    +0.039 C 
BRANCH  30  32
ATOM     31  O   UNL     1      35.997 -17.625 -20.902  0.00  0.00    -0.286 OA
ATOM     32  C   UNL     1      35.422 -18.552 -21.492  0.00  0.00    +0.198 C 
BRANCH  32  33
ATOM     33  C   UNL     1      35.009 -18.312 -22.908  0.00  0.00    +0.073 C 
ATOM     34  C   UNL     1      35.040 -17.033 -23.417  0.00  0.00    +0.137 C 
ATOM     35  C   UNL     1      34.612 -19.399 -23.653  0.00  0.00    +0.006 C 
ATOM     36  C   UNL     1      34.652 -16.831 -24.740  0.00  0.00    +0.037 C 
ATOM     37  C   UNL     1      34.224 -19.197 -24.977  0.00  0.00    +0.000 C 
ATOM     38  C   UNL     1      34.243 -17.913 -25.521  0.00  0.00    +0.003 C 
BRANCH  34  39
ATOM     39  O   UNL     1      35.436 -15.964 -22.671  0.00  0.00    -0.505 OA
ATOM     40  H   UNL     1      35.966 -15.293 -23.056  0.00  0.00    +0.292 HD
ENDBRANCH  34  39
ENDBRANCH  32  33
ENDBRANCH  30  32
ENDBRANCH  24  25
ENDBRANCH  22  24
ENDBRANCH   3  22
TORSDOF 9
ENDMDL
MODEL 4
REMARK VINA RESULT:     -10.2      7.099     13.911
REMARK  Name = 10050566
REMARK  9 active torsions:
REMARK  status: ('A' for Active; 'I' for Inactive)
REMARK    1  A    between atoms: C_2  and  N_11
REMARK    2  A    between atoms: C_3  and  O_22
REMARK    3  A    between atoms: C_12  and  C_14
REMARK    4  A    between atoms: C_19  and  O_20
REMARK    5  A    between atoms: O_22  and  C_24
REMARK    6  A    between atoms: C_24  and  C_25
REMARK    7  A    between atoms: C_30  and  C_32
REMARK    8  A    between atoms: C_32  and  C_33
REMARK    9  A    between atoms: C_34  and  O_39
REMARK                            x       y       z     vdW  Elec       q    Type
REMARK                         _______ _______ _______ _____ _____    ______ ____
ROOT
ATOM      1  N   UNL     1      34.807 -11.960 -26.062  0.00  0.00    +0.385 N 
ATOM      2  C   UNL     1      33.839 -10.890 -24.019  0.00  0.00    +0.091 C 
ATOM      3  C   UNL     1      33.141 -12.172 -23.530  0.00  0.00    +0.185 C 
ATOM      4  C   UNL     1      32.304 -12.930 -24.566  0.00  0.00    +0.043 C 
ATOM      5  C   UNL     1      34.114 -10.791 -25.523  0.00  0.00    -0.058 C 
ATOM      6  C   UNL     1      33.102 -13.746 -25.585  0.00  0.00    -0.020 C 
ATOM      7  C   UNL     1      33.866 -12.930 -26.622  0.00  0.00    -0.082 C 
ATOM      8  H   UNL     1      35.337 -12.406 -25.313  0.00  0.00    -0.084 HD
ATOM      9  H   UNL     1      35.428 -11.648 -26.809  0.00  0.00    -0.084 HD
ENDROOT
BRANCH   2  11
ATOM     10  O   UNL     1      34.887  -8.328 -23.264  0.00  0.00    -0.270 OA
ATOM     11  N   UNL     1      33.072  -9.729 -23.607  0.00  0.00    -0.301 N 
ATOM     12  C   UNL     1      33.677  -8.535 -23.262  0.00  0.00    +0.246 C 
ATOM     13  H   UNL     1      32.091  -9.794 -23.572  0.00  0.00    +0.150 HD
BRANCH  12  14
ATOM     14  C   UNL     1      32.755  -7.450 -22.837  0.00  0.00    +0.054 C 
ATOM     15  C   UNL     1      32.673  -7.134 -21.496  0.00  0.00    +0.008 C 
ATOM     16  C   UNL     1      32.010  -6.793 -23.794  0.00  0.00    +0.008 C 
ATOM     17  C   UNL     1      31.808  -6.115 -21.096  0.00  0.00    +0.037 C 
ATOM     18  C   UNL     1      31.146  -5.774 -23.395  0.00  0.00    +0.037 C 
ATOM     19  C   UNL     1      31.045  -5.436 -22.045  0.00  0.00    +0.134 C 
BRANCH  19  20
ATOM     20  O   UNL     1      30.203  -4.440 -21.655  0.00  0.00    -0.506 OA
ATOM     21  H   UNL     1      29.921  -4.388 -20.763  0.00  0.00    +0.292 HD
ENDBRANCH  19  20
ENDBRANCH  12  14
ENDBRANCH   2  11
BRANCH   3  22
ATOM     22  O   UNL     1      34.112 -13.048 -22.950  0.00  0.00    -0.448 OA
BRANCH  22  24
ATOM     23  O   UNL     1      32.835 -13.461 -21.081  0.00  0.00    -0.245 OA
ATOM     24  C   UNL     1      33.680 -13.788 -21.899  0.00  0.00    +0.341 C 
BRANCH  24  25
ATOM     25  C   UNL     1      34.387 -15.093 -21.862  0.00  0.00    +0.076 C 
ATOM     26  C   UNL     1      34.722 -15.704 -23.053  0.00  0.00    +0.007 C 
ATOM     27  C   UNL     1      34.686 -15.655 -20.638  0.00  0.00    +0.007 C 
ATOM     28  C   UNL     1      35.385 -16.931 -23.018  0.00  0.00    +0.003 C 
ATOM     29  C   UNL     1      35.350 -16.881 -20.602  0.00  0.00    +0.003 C 
ATOM     30  C   UNL     1      35.700 -17.520 -21.793  0.00  0.00    +0.039 C 
BRANCH  30  32
ATOM     31  O   UNL     1      37.394 -18.987 -22.460  0.00  0.00    -0.286 OA
ATOM     32  C   UNL     1      36.391 -18.798 -21.756  0.00  0.00    +0.198 C 
BRANCH  32  33
ATOM     33  C   UNL     1      35.939 -19.928 -20.889  0.00  0.00    +0.073 C 
ATOM     34  C   UNL     1      34.631 -20.353 -20.955  0.00  0.00    +0.137 C 
ATOM     35  C   UNL     1      36.866 -20.503 -20.050  0.00  0.00    +0.006 C 
ATOM     36  C   UNL     1      34.230 -21.409 -20.138  0.00  0.00    +0.037 C 
ATOM     37  C   UNL     1      36.465 -21.560 -19.233  0.00  0.00    +0.000 C 
ATOM     38  C   UNL     1      35.147 -22.012 -19.276  0.00  0.00    +0.003 C 
BRANCH  34  39
ATOM     39  O   UNL     1      33.721 -19.776 -21.789  0.00  0.00    -0.505 OA
ATOM     40  H   UNL     1      33.309 -20.287 -22.459  0.00  0.00    +0.292 HD
ENDBRANCH  34  39
ENDBRANCH  32  33
ENDBRANCH  30  32
ENDBRANCH  24  25
ENDBRANCH  22  24
ENDBRANCH   3  22
TORSDOF 9
ENDMDL
MODEL 5
REMARK VINA RESULT:      -9.6     11.803     16.799
REMARK  Name = 10050566
REMARK  9 active torsions:
REMARK  status: ('A' for Active; 'I' for Inactive)
REMARK    1  A    between atoms: C_2  and  N_11
REMARK    2  A    between atoms: C_3  and  O_22
REMARK    3  A    between atoms: C_12  and  C_14
REMARK    4  A    between atoms: C_19  and  O_20
REMARK    5  A    between atoms: O_22  and  C_24
REMARK    6  A    between atoms: C_24  and  C_25
REMARK    7  A    between atoms: C_30  and  C_32
REMARK    8  A    between atoms: C_32  and  C_33
REMARK    9  A    between atoms: C_34  and  O_39
REMARK                            x       y       z     vdW  Elec       q    Type
REMARK                         _______ _______ _______ _____ _____    ______ ____
ROOT
ATOM      1  N   UNL     1      33.183  -7.158 -20.498  0.00  0.00    +0.385 N 
ATOM      2  C   UNL     1      33.274  -8.339 -22.702  0.00  0.00    +0.091 C 
ATOM      3  C   UNL     1      32.362  -7.328 -23.419  0.00  0.00    +0.185 C 
ATOM      4  C   UNL     1      31.054  -6.964 -22.707  0.00  0.00    +0.043 C 
ATOM      5  C   UNL     1      33.113  -8.449 -21.182  0.00  0.00    -0.058 C 
ATOM      6  C   UNL     1      31.196  -6.005 -21.523  0.00  0.00    -0.020 C 
ATOM      7  C   UNL     1      31.850  -6.595 -20.279  0.00  0.00    -0.082 C 
ATOM      8  H   UNL     1      33.727  -6.510 -21.069  0.00  0.00    -0.084 HD
ATOM      9  H   UNL     1      33.625  -7.300 -19.590  0.00  0.00    -0.084 HD
ENDROOT
BRANCH   2  11
ATOM     10  O   UNL     1      35.280  -9.900 -24.033  0.00  0.00    -0.270 OA
ATOM     11  N   UNL     1      33.099  -9.656 -23.286  0.00  0.00    -0.301 N 
ATOM     12  C   UNL     1      34.135 -10.326 -23.908  0.00  0.00    +0.246 C 
ATOM     13  H   UNL     1      32.215 -10.085 -23.238  0.00  0.00    +0.150 HD
BRANCH  12  14
ATOM     14  C   UNL     1      33.787 -11.654 -24.479  0.00  0.00    +0.054 C 
ATOM     15  C   UNL     1      33.556 -12.708 -23.619  0.00  0.00    +0.008 C 
ATOM     16  C   UNL     1      33.708 -11.791 -25.849  0.00  0.00    +0.008 C 
ATOM     17  C   UNL     1      33.229 -13.954 -24.154  0.00  0.00    +0.037 C 
ATOM     18  C   UNL     1      33.380 -13.036 -26.384  0.00  0.00    +0.037 C 
ATOM     19  C   UNL     1      33.141 -14.118 -25.536  0.00  0.00    +0.134 C 
BRANCH  19  20
ATOM     20  O   UNL     1      32.821 -15.333 -26.058  0.00  0.00    -0.506 OA
ATOM     21  H   UNL     1      31.964 -15.690 -25.922  0.00  0.00    +0.292 HD
ENDBRANCH  19  20
ENDBRANCH  12  14
ENDBRANCH   2  11
BRANCH   3  22
ATOM     22  O   UNL     1      33.107  -6.141 -23.710  0.00  0.00    -0.448 OA
BRANCH  22  24
ATOM     23  O   UNL     1      31.486  -4.957 -24.835  0.00  0.00    -0.245 OA
ATOM     24  C   UNL     1      32.626  -5.382 -24.725  0.00  0.00    +0.341 C 
BRANCH  24  25
ATOM     25  C   UNL     1      33.692  -5.121 -25.724  0.00  0.00    +0.076 C 
ATOM     26  C   UNL     1      34.972  -5.566 -25.465  0.00  0.00    +0.007 C 
ATOM     27  C   UNL     1      33.370  -4.442 -26.881  0.00  0.00    +0.007 C 
ATOM     28  C   UNL     1      35.975  -5.320 -26.404  0.00  0.00    +0.003 C 
ATOM     29  C   UNL     1      34.372  -4.196 -27.820  0.00  0.00    +0.003 C 
ATOM     30  C   UNL     1      35.675  -4.636 -27.581  0.00  0.00    +0.039 C 
BRANCH  30  32
ATOM     31  O   UNL     1      36.688  -3.352 -29.253  0.00  0.00    -0.286 OA
ATOM     32  C   UNL     1      36.719  -4.379 -28.560  0.00  0.00    +0.198 C 
BRANCH  32  33
ATOM     33  C   UNL     1      37.860  -5.320 -28.778  0.00  0.00    +0.073 C 
ATOM     34  C   UNL     1      39.050  -5.108 -28.120  0.00  0.00    +0.137 C 
ATOM     35  C   UNL     1      37.665  -6.375 -29.641  0.00  0.00    +0.006 C 
ATOM     36  C   UNL     1      40.101  -5.997 -28.337  0.00  0.00    +0.037 C 
ATOM     37  C   UNL     1      38.716  -7.265 -29.858  0.00  0.00    +0.000 C 
ATOM     38  C   UNL     1      39.934  -7.075 -29.207  0.00  0.00    +0.003 C 
BRANCH  34  39
ATOM     39  O   UNL     1      39.232  -4.060 -27.268  0.00  0.00    -0.505 OA
ATOM     40  H   UNL     1      40.060  -3.938 -26.845  0.00  0.00    +0.292 HD
ENDBRANCH  34  39
ENDBRANCH  32  33
ENDBRANCH  30  32
ENDBRANCH  24  25
ENDBRANCH  22  24
ENDBRANCH   3  22
TORSDOF 9
ENDMDL
MODEL 6
REMARK VINA RESULT:      -9.6      8.674     13.386
REMARK  Name = 10050566
REMARK  9 active torsions:
REMARK  status: ('A' for Active; 'I' for Inactive)
REMARK    1  A    between atoms: C_2  and  N_11
REMARK    2  A    between atoms: C_3  and  O_22
REMARK    3  A    between atoms: C_12  and  C_14
REMARK    4  A    between atoms: C_19  and  O_20
REMARK    5  A    between atoms: O_22  and  C_24
REMARK    6  A    between atoms: C_24  and  C_25
REMARK    7  A    between atoms: C_30  and  C_32
REMARK    8  A    between atoms: C_32  and  C_33
REMARK    9  A    between atoms: C_34  and  O_39
REMARK                            x       y       z     vdW  Elec       q    Type
REMARK                         _______ _______ _______ _____ _____    ______ ____
ROOT
ATOM      1  N   UNL     1      33.291 -12.622 -26.254  0.00  0.00    +0.385 N 
ATOM      2  C   UNL     1      33.251 -13.735 -24.013  0.00  0.00    +0.091 C 
ATOM      3  C   UNL     1      33.455 -12.429 -23.225  0.00  0.00    +0.185 C 
ATOM      4  C   UNL     1      34.593 -11.517 -23.698  0.00  0.00    +0.043 C 
ATOM      5  C   UNL     1      33.767 -13.752 -25.456  0.00  0.00    -0.058 C 
ATOM      6  C   UNL     1      34.306 -10.713 -24.968  0.00  0.00    -0.020 C 
ATOM      7  C   UNL     1      34.259 -11.525 -26.258  0.00  0.00    -0.082 C 
ATOM      8  H   UNL     1      32.411 -12.287 -25.861  0.00  0.00    -0.084 HD
ATOM      9  H   UNL     1      33.162 -12.940 -27.214  0.00  0.00    -0.084 HD
ENDROOT
BRANCH   2  11
ATOM     10  O   UNL     1      34.209 -16.196 -25.137  0.00  0.00    -0.270 OA
ATOM     11  N   UNL     1      33.852 -14.840 -23.290  0.00  0.00    -0.301 N 
ATOM     12  C   UNL     1      34.282 -15.988 -23.929  0.00  0.00    +0.246 C 
ATOM     13  H   UNL     1      33.955 -14.771 -22.314  0.00  0.00    +0.150 HD
BRANCH  12  14
ATOM     14  C   UNL     1      34.850 -17.038 -23.044  0.00  0.00    +0.054 C 
ATOM     15  C   UNL     1      35.225 -16.697 -21.761  0.00  0.00    +0.008 C 
ATOM     16  C   UNL     1      34.984 -18.321 -23.533  0.00  0.00    +0.008 C 
ATOM     17  C   UNL     1      35.757 -17.682 -20.930  0.00  0.00    +0.037 C 
ATOM     18  C   UNL     1      35.516 -19.307 -22.702  0.00  0.00    +0.037 C 
ATOM     19  C   UNL     1      35.903 -18.987 -21.400  0.00  0.00    +0.134 C 
BRANCH  19  20
ATOM     20  O   UNL     1      36.420 -19.949 -20.589  0.00  0.00    -0.506 OA
ATOM     21  H   UNL     1      37.330 -19.932 -20.364  0.00  0.00    +0.292 HD
ENDBRANCH  19  20
ENDBRANCH  12  14
ENDBRANCH   2  11
BRANCH   3  22
ATOM     22  O   UNL     1      32.224 -11.698 -23.194  0.00  0.00    -0.448 OA
BRANCH  22  24
ATOM     23  O   UNL     1      31.763 -11.522 -20.946  0.00  0.00    -0.245 OA
ATOM     24  C   UNL     1      31.971 -11.027 -22.043  0.00  0.00    +0.341 C 
BRANCH  24  25
ATOM     25  C   UNL     1      31.975  -9.563 -22.289  0.00  0.00    +0.076 C 
ATOM     26  C   UNL     1      32.727  -8.751 -21.464  0.00  0.00    +0.007 C 
ATOM     27  C   UNL     1      31.226  -9.059 -23.332  0.00  0.00    +0.007 C 
ATOM     28  C   UNL     1      32.729  -7.374 -21.694  0.00  0.00    +0.003 C 
ATOM     29  C   UNL     1      31.229  -7.684 -23.563  0.00  0.00    +0.003 C 
ATOM     30  C   UNL     1      31.981  -6.841 -22.743  0.00  0.00    +0.039 C 
BRANCH  30  32
ATOM     31  O   UNL     1      31.540  -4.629 -22.125  0.00  0.00    -0.286 OA
ATOM     32  C   UNL     1      31.984  -5.407 -22.983  0.00  0.00    +0.198 C 
BRANCH  32  33
ATOM     33  C   UNL     1      32.508  -4.808 -24.247  0.00  0.00    +0.073 C 
ATOM     34  C   UNL     1      31.849  -3.742 -24.818  0.00  0.00    +0.137 C 
ATOM     35  C   UNL     1      33.646  -5.357 -24.793  0.00  0.00    +0.006 C 
ATOM     36  C   UNL     1      32.354  -3.198 -25.997  0.00  0.00    +0.037 C 
ATOM     37  C   UNL     1      34.152  -4.812 -25.973  0.00  0.00    +0.000 C 
ATOM     38  C   UNL     1      33.506  -3.733 -26.575  0.00  0.00    +0.003 C 
BRANCH  34  39
ATOM     39  O   UNL     1      30.723  -3.206 -24.268  0.00  0.00    -0.505 OA
ATOM     40  H   UNL     1      30.094  -3.762 -23.850  0.00  0.00    +0.292 HD
ENDBRANCH  34  39
ENDBRANCH  32  33
ENDBRANCH  30  32
ENDBRANCH  24  25
ENDBRANCH  22  24
ENDBRANCH   3  22
TORSDOF 9
ENDMDL
MODEL 7
REMARK VINA RESULT:      -8.9      1.881      2.494
REMARK  Name = 10050566
REMARK  9 active torsions:
REMARK  status: ('A' for Active; 'I' for Inactive)
REMARK    1  A    between atoms: C_2  and  N_11
REMARK    2  A    between atoms: C_3  and  O_22
REMARK    3  A    between atoms: C_12  and  C_14
REMARK    4  A    between atoms: C_19  and  O_20
REMARK    5  A    between atoms: O_22  and  C_24
REMARK    6  A    between atoms: C_24  and  C_25
REMARK    7  A    between atoms: C_30  and  C_32
REMARK    8  A    between atoms: C_32  and  C_33
REMARK    9  A    between atoms: C_34  and  O_39
REMARK                            x       y       z     vdW  Elec       q    Type
REMARK                         _______ _______ _______ _____ _____    ______ ____
ROOT
ATOM      1  N   UNL     1      31.514 -23.432 -12.509  0.00  0.00    +0.385 N 
ATOM      2  C   UNL     1      33.360 -23.719 -14.173  0.00  0.00    +0.091 C 
ATOM      3  C   UNL     1      32.422 -24.115 -15.327  0.00  0.00    +0.185 C 
ATOM      4  C   UNL     1      31.383 -25.199 -15.020  0.00  0.00    +0.043 C 
ATOM      5  C   UNL     1      32.848 -23.981 -12.753  0.00  0.00    -0.058 C 
ATOM      6  C   UNL     1      30.180 -24.741 -14.192  0.00  0.00    -0.020 C 
ATOM      7  C   UNL     1      30.473 -24.436 -12.727  0.00  0.00    -0.082 C 
ATOM      8  H   UNL     1      31.357 -22.648 -13.143  0.00  0.00    -0.084 HD
ATOM      9  H   UNL     1      31.466 -23.127 -11.537  0.00  0.00    -0.084 HD
ENDROOT
BRANCH   2  11
ATOM     10  O   UNL     1      35.553 -23.677 -12.324  0.00  0.00    -0.270 OA
ATOM     11  N   UNL     1      34.642 -24.378 -14.336  0.00  0.00    -0.301 N 
ATOM     12  C   UNL     1      35.637 -24.296 -13.381  0.00  0.00    +0.246 C 
ATOM     13  H   UNL     1      34.808 -24.902 -15.153  0.00  0.00    +0.150 HD
BRANCH  12  14
ATOM     14  C   UNL     1      36.901 -25.005 -13.710  0.00  0.00    +0.054 C 
ATOM     15  C   UNL     1      38.055 -24.652 -13.042  0.00  0.00    +0.008 C 
ATOM     16  C   UNL     1      36.880 -25.994 -14.672  0.00  0.00    +0.008 C 
ATOM     17  C   UNL     1      39.241 -25.317 -13.349  0.00  0.00    +0.037 C 
ATOM     18  C   UNL     1      38.067 -26.659 -14.979  0.00  0.00    +0.037 C 
ATOM     19  C   UNL     1      39.247 -26.321 -14.317  0.00  0.00    +0.134 C 
BRANCH  19  20
ATOM     20  O   UNL     1      40.404 -26.972 -14.616  0.00  0.00    -0.506 OA
ATOM     21  H   UNL     1      41.208 -26.707 -14.213  0.00  0.00    +0.292 HD
ENDBRANCH  19  20
ENDBRANCH  12  14
ENDBRANCH   2  11
BRANCH   3  22
ATOM     22  O   UNL     1      31.772 -22.945 -15.833  0.00  0.00    -0.448 OA
BRANCH  22  24
ATOM     23  O   UNL     1      30.368 -23.342 -17.613  0.00  0.00    -0.245 OA
ATOM     24  C   UNL     1      31.438 -22.982 -17.147  0.00  0.00    +0.341 C 
BRANCH  24  25
ATOM     25  C   UNL     1      32.574 -22.516 -17.981  0.00  0.00    +0.076 C 
ATOM     26  C   UNL     1      32.323 -21.651 -19.027  0.00  0.00    +0.007 C 
ATOM     27  C   UNL     1      33.846 -22.963 -17.687  0.00  0.00    +0.007 C 
ATOM     28  C   UNL     1      33.391 -21.214 -19.812  0.00  0.00    +0.003 C 
ATOM     29  C   UNL     1      34.913 -22.527 -18.471  0.00  0.00    +0.003 C 
ATOM     30  C   UNL     1      34.686 -21.651 -19.534  0.00  0.00    +0.039 C 
BRANCH  30  32
ATOM     31  O   UNL     1      36.908 -21.741 -20.256  0.00  0.00    -0.286 OA
ATOM     32  C   UNL     1      35.798 -21.197 -20.352  0.00  0.00    +0.198 C 
BRANCH  32  33
ATOM     33  C   UNL     1      35.667 -20.073 -21.328  0.00  0.00    +0.073 C 
ATOM     34  C   UNL     1      36.661 -19.125 -21.411  0.00  0.00    +0.137 C 
ATOM     35  C   UNL     1      34.538 -20.037 -22.116  0.00  0.00    +0.006 C 
ATOM     36  C   UNL     1      36.519 -18.086 -22.328  0.00  0.00    +0.037 C 
ATOM     37  C   UNL     1      34.396 -18.997 -23.035  0.00  0.00    +0.000 C 
ATOM     38  C   UNL     1      35.386 -18.021 -23.140  0.00  0.00    +0.003 C 
BRANCH  34  39
ATOM     39  O   UNL     1      37.774 -19.171 -20.626  0.00  0.00    -0.505 OA
ATOM     40  H   UNL     1      38.095 -18.388 -20.221  0.00  0.00    +0.292 HD
ENDBRANCH  34  39
ENDBRANCH  32  33
ENDBRANCH  30  32
ENDBRANCH  24  25
ENDBRANCH  22  24
ENDBRANCH   3  22
TORSDOF 9
ENDMDL
MODEL 8
REMARK VINA RESULT:      -8.9      1.470      2.350
REMARK  Name = 10050566
REMARK  9 active torsions:
REMARK  status: ('A' for Active; 'I' for Inactive)
REMARK    1  A    between atoms: C_2  and  N_11
REMARK    2  A    between atoms: C_3  and  O_22
REMARK    3  A    between atoms: C_12  and  C_14
REMARK    4  A    between atoms: C_19  and  O_20
REMARK    5  A    between atoms: O_22  and  C_24
REMARK    6  A    between atoms: C_24  and  C_25
REMARK    7  A    between atoms: C_30  and  C_32
REMARK    8  A    between atoms: C_32  and  C_33
REMARK    9  A    between atoms: C_34  and  O_39
REMARK                            x       y       z     vdW  Elec       q    Type
REMARK                         _______ _______ _______ _____ _____    ______ ____
ROOT
ATOM      1  N   UNL     1      32.980 -22.526 -15.163  0.00  0.00    +0.385 N 
ATOM      2  C   UNL     1      35.267 -23.173 -15.941  0.00  0.00    +0.091 C 
ATOM      3  C   UNL     1      34.827 -23.462 -17.387  0.00  0.00    +0.185 C 
ATOM      4  C   UNL     1      33.591 -24.352 -17.559  0.00  0.00    +0.043 C 
ATOM      5  C   UNL     1      34.189 -23.291 -14.860  0.00  0.00    -0.058 C 
ATOM      6  C   UNL     1      32.248 -23.673 -17.278  0.00  0.00    -0.020 C 
ATOM      7  C   UNL     1      31.968 -23.359 -15.813  0.00  0.00    -0.082 C 
ATOM      8  H   UNL     1      33.223 -21.754 -15.785  0.00  0.00    -0.084 HD
ATOM      9  H   UNL     1      32.593 -22.177 -14.286  0.00  0.00    -0.084 HD
ENDROOT
BRANCH   2  11
ATOM     10  O   UNL     1      37.502 -22.490 -14.276  0.00  0.00    -0.270 OA
ATOM     11  N   UNL     1      36.379 -24.036 -15.587  0.00  0.00    -0.301 N 
ATOM     12  C   UNL     1      37.411 -23.609 -14.774  0.00  0.00    +0.246 C 
ATOM     13  H   UNL     1      36.399 -24.956 -15.938  0.00  0.00    +0.150 HD
BRANCH  12  14
ATOM     14  C   UNL     1      38.487 -24.603 -14.528  0.00  0.00    +0.054 C 
ATOM     15  C   UNL     1      39.489 -24.745 -15.466  0.00  0.00    +0.008 C 
ATOM     16  C   UNL     1      38.451 -25.353 -13.371  0.00  0.00    +0.008 C 
ATOM     17  C   UNL     1      40.500 -25.678 -15.236  0.00  0.00    +0.037 C 
ATOM     18  C   UNL     1      39.462 -26.285 -13.140  0.00  0.00    +0.037 C 
ATOM     19  C   UNL     1      40.487 -26.448 -14.074  0.00  0.00    +0.134 C 
BRANCH  19  20
ATOM     20  O   UNL     1      41.474 -27.357 -13.848  0.00  0.00    -0.506 OA
ATOM     21  H   UNL     1      41.311 -28.269 -13.989  0.00  0.00    +0.292 HD
ENDBRANCH  19  20
ENDBRANCH  12  14
ENDBRANCH   2  11
BRANCH   3  22
ATOM     22  O   UNL     1      34.638 -22.225 -18.081  0.00  0.00    -0.448 OA
BRANCH  22  24
ATOM     23  O   UNL     1      36.849 -21.604 -17.926  0.00  0.00    -0.245 OA
ATOM     24  C   UNL     1      35.771 -21.610 -18.501  0.00  0.00    +0.341 C 
BRANCH  24  25
ATOM     25  C   UNL     1      35.534 -20.918 -19.792  0.00  0.00    +0.076 C 
ATOM     26  C   UNL     1      36.606 -20.350 -20.451  0.00  0.00    +0.007 C 
ATOM     27  C   UNL     1      34.250 -20.861 -20.293  0.00  0.00    +0.007 C 
ATOM     28  C   UNL     1      36.382 -19.697 -21.664  0.00  0.00    +0.003 C 
ATOM     29  C   UNL     1      34.026 -20.210 -21.506  0.00  0.00    +0.003 C 
ATOM     30  C   UNL     1      35.093 -19.628 -22.192  0.00  0.00    +0.039 C 
BRANCH  30  32
ATOM     31  O   UNL     1      34.811 -19.594 -24.513  0.00  0.00    -0.286 OA
ATOM     32  C   UNL     1      34.860 -18.948 -23.456  0.00  0.00    +0.198 C 
BRANCH  32  33
ATOM     33  C   UNL     1      34.674 -17.468 -23.546  0.00  0.00    +0.073 C 
ATOM     34  C   UNL     1      34.218 -16.912 -24.719  0.00  0.00    +0.137 C 
ATOM     35  C   UNL     1      34.972 -16.715 -22.433  0.00  0.00    +0.006 C 
ATOM     36  C   UNL     1      34.051 -15.529 -24.782  0.00  0.00    +0.037 C 
ATOM     37  C   UNL     1      34.805 -15.332 -22.495  0.00  0.00    +0.000 C 
ATOM     38  C   UNL     1      34.345 -14.739 -23.671  0.00  0.00    +0.003 C 
BRANCH  34  39
ATOM     39  O   UNL     1      33.926 -17.666 -25.816  0.00  0.00    -0.505 OA
ATOM     40  H   UNL     1      34.090 -18.589 -25.807  0.00  0.00    +0.292 HD
ENDBRANCH  34  39
ENDBRANCH  32  33
ENDBRANCH  30  32
ENDBRANCH  24  25
ENDBRANCH  22  24
ENDBRANCH   3  22
TORSDOF 9
ENDMDL
MODEL 9
REMARK VINA RESULT:      -8.7      9.782     16.408
REMARK  Name = 10050566
REMARK  9 active torsions:
REMARK  status: ('A' for Active; 'I' for Inactive)
REMARK    1  A    between atoms: C_2  and  N_11
REMARK    2  A    between atoms: C_3  and  O_22
REMARK    3  A    between atoms: C_12  and  C_14
REMARK    4  A    between atoms: C_19  and  O_20
REMARK    5  A    between atoms: O_22  and  C_24
REMARK    6  A    between atoms: C_24  and  C_25
REMARK    7  A    between atoms: C_30  and  C_32
REMARK    8  A    between atoms: C_32  and  C_33
REMARK    9  A    between atoms: C_34  and  O_39
REMARK                            x       y       z     vdW  Elec       q    Type
REMARK                         _______ _______ _______ _____ _____    ______ ____
ROOT
ATOM      1  N   UNL     1      31.261  -5.743 -21.109  0.00  0.00    +0.385 N 
ATOM      2  C   UNL     1      32.239  -6.648 -23.225  0.00  0.00    +0.091 C 
ATOM      3  C   UNL     1      32.786  -7.928 -22.569  0.00  0.00    +0.185 C 
ATOM      4  C   UNL     1      33.590  -7.742 -21.277  0.00  0.00    +0.043 C 
ATOM      5  C   UNL     1      32.041  -5.438 -22.307  0.00  0.00    -0.058 C 
ATOM      6  C   UNL     1      32.761  -7.446 -20.025  0.00  0.00    -0.020 C 
ATOM      7  C   UNL     1      32.127  -6.061 -19.973  0.00  0.00    -0.082 C 
ATOM      8  H   UNL     1      30.658  -6.543 -21.300  0.00  0.00    -0.084 HD
ATOM      9  H   UNL     1      30.707  -4.920 -20.869  0.00  0.00    -0.084 HD
ENDROOT
BRANCH   2  11
ATOM     10  O   UNL     1      31.968  -4.307 -24.862  0.00  0.00    -0.270 OA
ATOM     11  N   UNL     1      33.096  -6.261 -24.330  0.00  0.00    -0.301 N 
ATOM     12  C   UNL     1      32.878  -5.107 -25.059  0.00  0.00    +0.246 C 
ATOM     13  H   UNL     1      33.857  -6.839 -24.569  0.00  0.00    +0.150 HD
BRANCH  12  14
ATOM     14  C   UNL     1      33.829  -4.866 -26.176  0.00  0.00    +0.054 C 
ATOM     15  C   UNL     1      33.345  -4.353 -27.362  0.00  0.00    +0.008 C 
ATOM     16  C   UNL     1      35.163  -5.162 -25.992  0.00  0.00    +0.008 C 
ATOM     17  C   UNL     1      34.236  -4.127 -28.410  0.00  0.00    +0.037 C 
ATOM     18  C   UNL     1      36.054  -4.935 -27.040  0.00  0.00    +0.037 C 
ATOM     19  C   UNL     1      35.590  -4.417 -28.250  0.00  0.00    +0.134 C 
BRANCH  19  20
ATOM     20  O   UNL     1      36.461  -4.194 -29.272  0.00  0.00    -0.506 OA
ATOM     21  H   UNL     1      36.534  -4.816 -29.969  0.00  0.00    +0.292 HD
ENDBRANCH  19  20
ENDBRANCH  12  14
ENDBRANCH   2  11
BRANCH   3  22
ATOM     22  O   UNL     1      31.709  -8.844 -22.347  0.00  0.00    -0.448 OA
BRANCH  22  24
ATOM     23  O   UNL     1      31.979 -10.014 -20.383  0.00  0.00    -0.245 OA
ATOM     24  C   UNL     1      32.013  -9.936 -21.601  0.00  0.00    +0.341 C 
BRANCH  24  25
ATOM     25  C   UNL     1      32.410 -11.065 -22.479  0.00  0.00    +0.076 C 
ATOM     26  C   UNL     1      32.050 -12.348 -22.119  0.00  0.00    +0.007 C 
ATOM     27  C   UNL     1      33.128 -10.798 -23.627  0.00  0.00    +0.007 C 
ATOM     28  C   UNL     1      32.424 -13.410 -22.944  0.00  0.00    +0.003 C 
ATOM     29  C   UNL     1      33.502 -11.859 -24.451  0.00  0.00    +0.003 C 
ATOM     30  C   UNL     1      33.149 -13.166 -24.110  0.00  0.00    +0.039 C 
BRANCH  30  32
ATOM     31  O   UNL     1      33.396 -14.190 -26.197  0.00  0.00    -0.286 OA
ATOM     32  C   UNL     1      33.539 -14.272 -24.969  0.00  0.00    +0.198 C 
BRANCH  32  33
ATOM     33  C   UNL     1      34.119 -15.539 -24.428  0.00  0.00    +0.073 C 
ATOM     34  C   UNL     1      33.971 -16.709 -25.136  0.00  0.00    +0.137 C 
ATOM     35  C   UNL     1      34.789 -15.476 -23.227  0.00  0.00    +0.006 C 
ATOM     36  C   UNL     1      34.520 -17.880 -24.615  0.00  0.00    +0.037 C 
ATOM     37  C   UNL     1      35.339 -16.647 -22.705  0.00  0.00    +0.000 C 
ATOM     38  C   UNL     1      35.204 -17.849 -23.399  0.00  0.00    +0.003 C 
BRANCH  34  39
ATOM     39  O   UNL     1      33.306 -16.760 -26.325  0.00  0.00    -0.505 OA
ATOM     40  H   UNL     1      33.785 -16.838 -27.127  0.00  0.00    +0.292 HD
ENDBRANCH  34  39
ENDBRANCH  32  33
ENDBRANCH  30  32
ENDBRANCH  24  25
ENDBRANCH  22  24
ENDBRANCH   3  22
TORSDOF 9
ENDMDL
