MODEL 1
REMARK VINA RESULT:     -11.3      0.000      0.000
REMARK  Name = 449162
REMARK  12 active torsions:
REMARK  status: ('A' for Active; 'I' for Inactive)
REMARK    1  A    between atoms: C_1  and  C_9
REMARK    2  A    between atoms: C_3  and  C_19
REMARK    3  A    between atoms: C_10  and  C_16
REMARK    4  A    between atoms: C_11  and  C_13
REMARK    5  A    between atoms: C_13  and  O_14
REMARK    6  A    between atoms: C_16  and  O_17
REMARK    7  A    between atoms: C_20  and  C_21
REMARK    8  A    between atoms: C_21  and  O_22
REMARK    9  A    between atoms: O_22  and  C_23
REMARK   10  A    between atoms: C_24  and  C_32
REMARK   11  A    between atoms: C_25  and  O_29
REMARK   12  A    between atoms: C_32  and  O_33
REMARK                            x       y       z     vdW  Elec       q    Type
REMARK                         _______ _______ _______ _____ _____    ______ ____
ROOT
ATOM      1  C   UNL     1      35.298 -18.772 -22.552  0.00  0.00    +0.037 C 
ATOM      2  C   UNL     1      34.476 -19.632 -21.824  0.00  0.00    +0.003 C 
ATOM      3  C   UNL     1      35.001 -20.362 -20.758  0.00  0.00    -0.000 C 
ATOM      4  C   UNL     1      36.645 -18.642 -22.214  0.00  0.00    +0.003 C 
ATOM      5  C   UNL     1      36.348 -20.233 -20.419  0.00  0.00    -0.000 C 
ATOM      6  C   UNL     1      37.169 -19.373 -21.147  0.00  0.00    +0.000 C 
ENDROOT
BRANCH   1   9
ATOM      7  O   UNL     1      34.304 -18.759 -24.695  0.00  0.00    -0.353 OA
ATOM      8  N   UNL     1      33.816 -17.909 -25.678  0.00  0.00    -0.071 NA
ATOM      9  C   UNL     1      34.756 -18.017 -23.655  0.00  0.00    +0.175 A 
ATOM     10  C   UNL     1      34.584 -16.689 -23.916  0.00  0.00    +0.071 A 
ATOM     11  C   UNL     1      33.993 -16.678 -25.191  0.00  0.00    +0.196 A 
BRANCH  11  13
ATOM     12  O   UNL     1      34.055 -15.229 -27.072  0.00  0.00    -0.243 OA
ATOM     13  C   UNL     1      33.587 -15.541 -25.967  0.00  0.00    +0.359 C 
BRANCH  13  14
ATOM     14  O   UNL     1      32.603 -14.771 -25.398  0.00  0.00    -0.476 OA
ATOM     15  H   UNL     1      32.668 -14.519 -24.499  0.00  0.00    +0.295 HD
ENDBRANCH  13  14
ENDBRANCH  11  13
BRANCH  10  16
ATOM     16  C   UNL     1      34.935 -15.541 -23.063  0.00  0.00    +0.169 C 
BRANCH  16  17
ATOM     17  O   UNL     1      33.809 -14.705 -22.775  0.00  0.00    -0.377 OA
ATOM     18  H   UNL     1      33.566 -14.800 -21.840  0.00  0.00    +0.211 HD
ENDBRANCH  16  17
ENDBRANCH  10  16
ENDBRANCH   1   9
BRANCH   3  19
ATOM     19  C   UNL     1      34.143 -21.259 -19.999  0.00  0.00    -0.001 C 
ATOM     20  C   UNL     1      34.556 -22.309 -19.253  0.00  0.00    +0.021 C 
BRANCH  20  21
ATOM     21  C   UNL     1      33.635 -23.194 -18.476  0.00  0.00    +0.232 C 
BRANCH  21  22
ATOM     22  O   UNL     1      34.337 -23.712 -17.354  0.00  0.00    -0.470 OA
BRANCH  22  23
ATOM     23  C   UNL     1      33.658 -23.752 -16.165  0.00  0.00    +0.148 C 
ATOM     24  C   UNL     1      34.261 -24.264 -15.021  0.00  0.00    +0.143 C 
ATOM     25  C   UNL     1      33.550 -24.295 -13.820  0.00  0.00    +0.143 C 
ATOM     26  C   UNL     1      32.353 -23.271 -16.122  0.00  0.00    +0.037 C 
ATOM     27  C   UNL     1      32.242 -23.814 -13.771  0.00  0.00    +0.037 C 
ATOM     28  C   UNL     1      31.644 -23.303 -14.921  0.00  0.00    +0.006 C 
BRANCH  25  29
ATOM     29  O   UNL     1      34.117 -24.790 -12.683  0.00  0.00    -0.505 OA
ATOM     30  H   UNL     1      34.147 -24.266 -11.907  0.00  0.00    +0.292 HD
ENDBRANCH  25  29
BRANCH  24  32
ATOM     31  O   UNL     1      35.950 -25.865 -15.536  0.00  0.00    -0.245 OA
ATOM     32  C   UNL     1      35.629 -24.766 -15.072  0.00  0.00    +0.347 C 
BRANCH  32  33
ATOM     33  O   UNL     1      36.511 -23.867 -14.541  0.00  0.00    -0.441 OA
ATOM     34  C   UNL     1      37.425 -23.248 -15.452  0.00  0.00    +0.256 C 
ENDBRANCH  32  33
ENDBRANCH  24  32
ENDBRANCH  22  23
ENDBRANCH  21  22
ENDBRANCH  20  21
ENDBRANCH   3  19
TORSDOF 12
ENDMDL
MODEL 2
REMARK VINA RESULT:     -10.5      3.013     10.557
REMARK  Name = 449162
REMARK  12 active torsions:
REMARK  status: ('A' for Active; 'I' for Inactive)
REMARK    1  A    between atoms: C_1  and  C_9
REMARK    2  A    between atoms: C_3  and  C_19
REMARK    3  A    between atoms: C_10  and  C_16
REMARK    4  A    between atoms: C_11  and  C_13
REMARK    5  A    between atoms: C_13  and  O_14
REMARK    6  A    between atoms: C_16  and  O_17
REMARK    7  A    between atoms: C_20  and  C_21
REMARK    8  A    between atoms: C_21  and  O_22
REMARK    9  A    between atoms: O_22  and  C_23
REMARK   10  A    between atoms: C_24  and  C_32
REMARK   11  A    between atoms: C_25  and  O_29
REMARK   12  A    between atoms: C_32  and  O_33
REMARK                            x       y       z     vdW  Elec       q    Type
REMARK                         _______ _______ _______ _____ _____    ______ ____
ROOT
ATOM      1  C   UNL     1      34.567 -23.585 -16.127  0.00  0.00    +0.037 C 
ATOM      2  C   UNL     1      34.351 -22.993 -17.371  0.00  0.00    +0.003 C 
ATOM      3  C   UNL     1      33.051 -22.734 -17.804  0.00  0.00    -0.000 C 
ATOM      4  C   UNL     1      33.483 -23.918 -15.315  0.00  0.00    +0.003 C 
ATOM      5  C   UNL     1      31.966 -23.067 -16.992  0.00  0.00    -0.000 C 
ATOM      6  C   UNL     1      32.182 -23.659 -15.749  0.00  0.00    +0.000 C 
ENDROOT
BRANCH   1   9
ATOM      7  O   UNL     1      36.719 -22.769 -15.596  0.00  0.00    -0.353 OA
ATOM      8  N   UNL     1      37.973 -23.171 -15.155  0.00  0.00    -0.071 NA
ATOM      9  C   UNL     1      35.912 -23.854 -15.679  0.00  0.00    +0.175 A 
ATOM     10  C   UNL     1      36.592 -24.976 -15.305  0.00  0.00    +0.071 A 
ATOM     11  C   UNL     1      37.873 -24.493 -14.988  0.00  0.00    +0.196 A 
BRANCH  11  13
ATOM     12  O   UNL     1      39.558 -25.100 -13.427  0.00  0.00    -0.243 OA
ATOM     13  C   UNL     1      39.011 -25.239 -14.530  0.00  0.00    +0.359 C 
BRANCH  13  14
ATOM     14  O   UNL     1      39.493 -26.166 -15.421  0.00  0.00    -0.476 OA
ATOM     15  H   UNL     1      39.431 -26.006 -16.342  0.00  0.00    +0.295 HD
ENDBRANCH  13  14
ENDBRANCH  11  13
BRANCH  10  16
ATOM     16  C   UNL     1      36.100 -26.363 -15.249  0.00  0.00    +0.169 C 
BRANCH  16  17
ATOM     17  O   UNL     1      36.790 -27.228 -16.158  0.00  0.00    -0.377 OA
ATOM     18  H   UNL     1      37.070 -28.031 -15.691  0.00  0.00    +0.211 HD
ENDBRANCH  16  17
ENDBRANCH  10  16
ENDBRANCH   1   9
BRANCH   3  19
ATOM     19  C   UNL     1      32.826 -22.116 -19.102  0.00  0.00    -0.001 C 
ATOM     20  C   UNL     1      33.574 -21.132 -19.651  0.00  0.00    +0.021 C 
BRANCH  20  21
ATOM     21  C   UNL     1      33.312 -20.539 -20.998  0.00  0.00    +0.232 C 
BRANCH  21  22
ATOM     22  O   UNL     1      34.553 -20.356 -21.667  0.00  0.00    -0.470 OA
BRANCH  22  23
ATOM     23  C   UNL     1      34.586 -19.416 -22.663  0.00  0.00    +0.148 C 
ATOM     24  C   UNL     1      35.140 -18.161 -22.436  0.00  0.00    +0.143 C 
ATOM     25  C   UNL     1      35.162 -17.219 -23.465  0.00  0.00    +0.143 C 
ATOM     26  C   UNL     1      34.055 -19.740 -23.907  0.00  0.00    +0.037 C 
ATOM     27  C   UNL     1      34.631 -17.537 -24.714  0.00  0.00    +0.037 C 
ATOM     28  C   UNL     1      34.078 -18.798 -24.935  0.00  0.00    +0.006 C 
BRANCH  25  29
ATOM     29  O   UNL     1      35.700 -15.981 -23.270  0.00  0.00    -0.505 OA
ATOM     30  H   UNL     1      36.629 -15.879 -23.200  0.00  0.00    +0.292 HD
ENDBRANCH  25  29
BRANCH  24  32
ATOM     31  O   UNL     1      35.308 -16.887 -20.427  0.00  0.00    -0.245 OA
ATOM     32  C   UNL     1      35.695 -17.827 -21.129  0.00  0.00    +0.347 C 
BRANCH  32  33
ATOM     33  O   UNL     1      36.698 -18.688 -20.779  0.00  0.00    -0.441 OA
ATOM     34  C   UNL     1      37.735 -18.893 -21.745  0.00  0.00    +0.256 C 
ENDBRANCH  32  33
ENDBRANCH  24  32
ENDBRANCH  22  23
ENDBRANCH  21  22
ENDBRANCH  20  21
ENDBRANCH   3  19
TORSDOF 12
ENDMDL
MODEL 3
REMARK VINA RESULT:     -10.5      0.941      1.152
REMARK  Name = 449162
REMARK  12 active torsions:
REMARK  status: ('A' for Active; 'I' for Inactive)
REMARK    1  A    between atoms: C_1  and  C_9
REMARK    2  A    between atoms: C_3  and  C_19
REMARK    3  A    between atoms: C_10  and  C_16
REMARK    4  A    between atoms: C_11  and  C_13
REMARK    5  A    between atoms: C_13  and  O_14
REMARK    6  A    between atoms: C_16  and  O_17
REMARK    7  A    between atoms: C_20  and  C_21
REMARK    8  A    between atoms: C_21  and  O_22
REMARK    9  A    between atoms: O_22  and  C_23
REMARK   10  A    between atoms: C_24  and  C_32
REMARK   11  A    between atoms: C_25  and  O_29
REMARK   12  A    between atoms: C_32  and  O_33
REMARK                            x       y       z     vdW  Elec       q    Type
REMARK                         _______ _______ _______ _____ _____    ______ ____
ROOT
ATOM      1  C   UNL     1      35.355 -18.795 -22.447  0.00  0.00    +0.037 C 
ATOM      2  C   UNL     1      34.560 -19.692 -21.734  0.00  0.00    +0.003 C 
ATOM      3  C   UNL     1      35.113 -20.444 -20.698  0.00  0.00    -0.000 C 
ATOM      4  C   UNL     1      36.704 -18.649 -22.123  0.00  0.00    +0.003 C 
ATOM      5  C   UNL     1      36.462 -20.300 -20.374  0.00  0.00    -0.000 C 
ATOM      6  C   UNL     1      37.257 -19.402 -21.086  0.00  0.00    +0.000 C 
ENDROOT
BRANCH   1   9
ATOM      7  O   UNL     1      34.295 -18.737 -24.556  0.00  0.00    -0.353 OA
ATOM      8  N   UNL     1      33.781 -17.866 -25.508  0.00  0.00    -0.071 NA
ATOM      9  C   UNL     1      34.785 -18.016 -23.518  0.00  0.00    +0.175 A 
ATOM     10  C   UNL     1      34.613 -16.683 -23.749  0.00  0.00    +0.071 A 
ATOM     11  C   UNL     1      33.982 -16.645 -25.005  0.00  0.00    +0.196 A 
BRANCH  11  13
ATOM     12  O   UNL     1      33.160 -14.430 -25.250  0.00  0.00    -0.243 OA
ATOM     13  C   UNL     1      33.560 -15.492 -25.748  0.00  0.00    +0.359 C 
BRANCH  13  14
ATOM     14  O   UNL     1      33.624 -15.627 -27.113  0.00  0.00    -0.476 OA
ATOM     15  H   UNL     1      32.942 -15.275 -27.650  0.00  0.00    +0.295 HD
ENDBRANCH  13  14
ENDBRANCH  11  13
BRANCH  10  16
ATOM     16  C   UNL     1      34.999 -15.552 -22.888  0.00  0.00    +0.169 C 
BRANCH  16  17
ATOM     17  O   UNL     1      34.787 -15.822 -21.498  0.00  0.00    -0.377 OA
ATOM     18  H   UNL     1      35.465 -15.368 -20.973  0.00  0.00    +0.211 HD
ENDBRANCH  16  17
ENDBRANCH  10  16
ENDBRANCH   1   9
BRANCH   3  19
ATOM     19  C   UNL     1      34.283 -21.380 -19.956  0.00  0.00    -0.001 C 
ATOM     20  C   UNL     1      34.728 -22.341 -19.116  0.00  0.00    +0.021 C 
BRANCH  20  21
ATOM     21  C   UNL     1      33.833 -23.271 -18.361  0.00  0.00    +0.232 C 
BRANCH  21  22
ATOM     22  O   UNL     1      34.047 -23.083 -16.969  0.00  0.00    -0.470 OA
BRANCH  22  23
ATOM     23  C   UNL     1      33.046 -23.495 -16.129  0.00  0.00    +0.148 C 
ATOM     24  C   UNL     1      33.337 -24.244 -14.994  0.00  0.00    +0.143 C 
ATOM     25  C   UNL     1      32.302 -24.654 -14.152  0.00  0.00    +0.143 C 
ATOM     26  C   UNL     1      31.733 -23.151 -16.432  0.00  0.00    +0.037 C 
ATOM     27  C   UNL     1      30.983 -24.312 -14.450  0.00  0.00    +0.037 C 
ATOM     28  C   UNL     1      30.699 -23.561 -15.590  0.00  0.00    +0.006 C 
BRANCH  25  29
ATOM     29  O   UNL     1      32.558 -25.388 -13.032  0.00  0.00    -0.505 OA
ATOM     30  H   UNL     1      33.282 -25.164 -12.480  0.00  0.00    +0.292 HD
ENDBRANCH  25  29
BRANCH  24  32
ATOM     31  O   UNL     1      35.411 -25.360 -15.365  0.00  0.00    -0.245 OA
ATOM     32  C   UNL     1      34.716 -24.602 -14.681  0.00  0.00    +0.347 C 
BRANCH  32  33
ATOM     33  O   UNL     1      35.142 -23.990 -13.535  0.00  0.00    -0.441 OA
ATOM     34  C   UNL     1      35.991 -24.757 -12.675  0.00  0.00    +0.256 C 
ENDBRANCH  32  33
ENDBRANCH  24  32
ENDBRANCH  22  23
ENDBRANCH  21  22
ENDBRANCH  20  21
ENDBRANCH   3  19
TORSDOF 12
ENDMDL
MODEL 4
REMARK VINA RESULT:     -10.3      1.735      2.972
REMARK  Name = 449162
REMARK  12 active torsions:
REMARK  status: ('A' for Active; 'I' for Inactive)
REMARK    1  A    between atoms: C_1  and  C_9
REMARK    2  A    between atoms: C_3  and  C_19
REMARK    3  A    between atoms: C_10  and  C_16
REMARK    4  A    between atoms: C_11  and  C_13
REMARK    5  A    between atoms: C_13  and  O_14
REMARK    6  A    between atoms: C_16  and  O_17
REMARK    7  A    between atoms: C_20  and  C_21
REMARK    8  A    between atoms: C_21  and  O_22
REMARK    9  A    between atoms: O_22  and  C_23
REMARK   10  A    between atoms: C_24  and  C_32
REMARK   11  A    between atoms: C_25  and  O_29
REMARK   12  A    between atoms: C_32  and  O_33
REMARK                            x       y       z     vdW  Elec       q    Type
REMARK                         _______ _______ _______ _____ _____    ______ ____
ROOT
ATOM      1  C   UNL     1      35.514 -18.817 -21.851  0.00  0.00    +0.037 C 
ATOM      2  C   UNL     1      34.615 -19.716 -21.277  0.00  0.00    +0.003 C 
ATOM      3  C   UNL     1      35.072 -20.692 -20.392  0.00  0.00    -0.000 C 
ATOM      4  C   UNL     1      36.872 -18.895 -21.539  0.00  0.00    +0.003 C 
ATOM      5  C   UNL     1      36.430 -20.770 -20.080  0.00  0.00    -0.000 C 
ATOM      6  C   UNL     1      37.329 -19.871 -20.654  0.00  0.00    +0.000 C 
ENDROOT
BRANCH   1   9
ATOM      7  O   UNL     1      35.208 -16.529 -22.349  0.00  0.00    -0.353 OA
ATOM      8  N   UNL     1      34.713 -15.669 -23.320  0.00  0.00    -0.071 NA
ATOM      9  C   UNL     1      35.042 -17.808 -22.767  0.00  0.00    +0.175 A 
ATOM     10  C   UNL     1      34.448 -17.828 -23.994  0.00  0.00    +0.071 A 
ATOM     11  C   UNL     1      34.264 -16.467 -24.294  0.00  0.00    +0.196 A 
BRANCH  11  13
ATOM     12  O   UNL     1      33.779 -16.354 -26.616  0.00  0.00    -0.243 OA
ATOM     13  C   UNL     1      33.679 -15.892 -25.471  0.00  0.00    +0.359 C 
BRANCH  13  14
ATOM     14  O   UNL     1      32.962 -14.740 -25.258  0.00  0.00    -0.476 OA
ATOM     15  H   UNL     1      32.027 -14.754 -25.315  0.00  0.00    +0.295 HD
ENDBRANCH  13  14
ENDBRANCH  11  13
BRANCH  10  16
ATOM     16  C   UNL     1      34.085 -18.999 -24.811  0.00  0.00    +0.169 C 
BRANCH  16  17
ATOM     17  O   UNL     1      32.805 -18.856 -25.437  0.00  0.00    -0.377 OA
ATOM     18  H   UNL     1      32.148 -18.591 -24.774  0.00  0.00    +0.211 HD
ENDBRANCH  16  17
ENDBRANCH  10  16
ENDBRANCH   1   9
BRANCH   3  19
ATOM     19  C   UNL     1      34.133 -21.628 -19.794  0.00  0.00    -0.001 C 
ATOM     20  C   UNL     1      34.435 -22.580 -18.882  0.00  0.00    +0.021 C 
BRANCH  20  21
ATOM     21  C   UNL     1      33.431 -23.510 -18.283  0.00  0.00    +0.232 C 
BRANCH  21  22
ATOM     22  O   UNL     1      32.874 -22.900 -17.126  0.00  0.00    -0.470 OA
BRANCH  22  23
ATOM     23  C   UNL     1      33.246 -23.419 -15.914  0.00  0.00    +0.148 C 
ATOM     24  C   UNL     1      32.311 -24.028 -15.085  0.00  0.00    +0.143 C 
ATOM     25  C   UNL     1      32.712 -24.549 -13.854  0.00  0.00    +0.143 C 
ATOM     26  C   UNL     1      34.579 -23.324 -15.526  0.00  0.00    +0.037 C 
ATOM     27  C   UNL     1      34.047 -24.457 -13.460  0.00  0.00    +0.037 C 
ATOM     28  C   UNL     1      34.980 -23.844 -14.295  0.00  0.00    +0.006 C 
BRANCH  25  29
ATOM     29  O   UNL     1      31.816 -25.153 -13.023  0.00  0.00    -0.505 OA
ATOM     30  H   UNL     1      31.879 -26.072 -12.854  0.00  0.00    +0.292 HD
ENDBRANCH  25  29
BRANCH  24  32
ATOM     31  O   UNL     1      30.389 -25.151 -15.941  0.00  0.00    -0.245 OA
ATOM     32  C   UNL     1      30.915 -24.125 -15.498  0.00  0.00    +0.347 C 
BRANCH  32  33
ATOM     33  O   UNL     1      30.262 -22.935 -15.330  0.00  0.00    -0.441 OA
ATOM     34  C   UNL     1      28.938 -22.848 -15.866  0.00  0.00    +0.256 C 
ENDBRANCH  32  33
ENDBRANCH  24  32
ENDBRANCH  22  23
ENDBRANCH  21  22
ENDBRANCH  20  21
ENDBRANCH   3  19
TORSDOF 12
ENDMDL
MODEL 5
REMARK VINA RESULT:     -10.2      3.061     11.402
REMARK  Name = 449162
REMARK  12 active torsions:
REMARK  status: ('A' for Active; 'I' for Inactive)
REMARK    1  A    between atoms: C_1  and  C_9
REMARK    2  A    between atoms: C_3  and  C_19
REMARK    3  A    between atoms: C_10  and  C_16
REMARK    4  A    between atoms: C_11  and  C_13
REMARK    5  A    between atoms: C_13  and  O_14
REMARK    6  A    between atoms: C_16  and  O_17
REMARK    7  A    between atoms: C_20  and  C_21
REMARK    8  A    between atoms: C_21  and  O_22
REMARK    9  A    between atoms: O_22  and  C_23
REMARK   10  A    between atoms: C_24  and  C_32
REMARK   11  A    between atoms: C_25  and  O_29
REMARK   12  A    between atoms: C_32  and  O_33
REMARK                            x       y       z     vdW  Elec       q    Type
REMARK                         _______ _______ _______ _____ _____    ______ ____
ROOT
ATOM      1  C   UNL     1      35.521 -23.170 -16.701  0.00  0.00    +0.037 C 
ATOM      2  C   UNL     1      36.111 -22.432 -17.726  0.00  0.00    +0.003 C 
ATOM      3  C   UNL     1      35.345 -22.007 -18.812  0.00  0.00    -0.000 C 
ATOM      4  C   UNL     1      34.163 -23.484 -16.761  0.00  0.00    +0.003 C 
ATOM      5  C   UNL     1      33.987 -22.321 -18.872  0.00  0.00    -0.000 C 
ATOM      6  C   UNL     1      33.397 -23.059 -17.847  0.00  0.00    +0.000 C 
ENDROOT
BRANCH   1   9
ATOM      7  O   UNL     1      36.938 -22.623 -14.894  0.00  0.00    -0.353 OA
ATOM      8  N   UNL     1      37.659 -23.186 -13.848  0.00  0.00    -0.071 NA
ATOM      9  C   UNL     1      36.312 -23.610 -15.578  0.00  0.00    +0.175 A 
ATOM     10  C   UNL     1      36.592 -24.822 -15.019  0.00  0.00    +0.071 A 
ATOM     11  C   UNL     1      37.437 -24.500 -13.942  0.00  0.00    +0.196 A 
BRANCH  11  13
ATOM     12  O   UNL     1      38.852 -26.289 -13.278  0.00  0.00    -0.243 OA
ATOM     13  C   UNL     1      38.043 -25.393 -12.996  0.00  0.00    +0.359 C 
BRANCH  13  14
ATOM     14  O   UNL     1      37.664 -25.198 -11.691  0.00  0.00    -0.476 OA
ATOM     15  H   UNL     1      36.832 -24.814 -11.497  0.00  0.00    +0.295 HD
ENDBRANCH  13  14
ENDBRANCH  11  13
BRANCH  10  16
ATOM     16  C   UNL     1      36.123 -26.152 -15.443  0.00  0.00    +0.169 C 
BRANCH  16  17
ATOM     17  O   UNL     1      37.192 -27.000 -15.878  0.00  0.00    -0.377 OA
ATOM     18  H   UNL     1      37.902 -26.990 -15.217  0.00  0.00    +0.211 HD
ENDBRANCH  16  17
ENDBRANCH  10  16
ENDBRANCH   1   9
BRANCH   3  19
ATOM     19  C   UNL     1      35.963 -21.237 -19.880  0.00  0.00    -0.001 C 
ATOM     20  C   UNL     1      35.449 -20.127 -20.456  0.00  0.00    +0.021 C 
BRANCH  20  21
ATOM     21  C   UNL     1      36.129 -19.359 -21.543  0.00  0.00    +0.232 C 
BRANCH  21  22
ATOM     22  O   UNL     1      35.232 -18.375 -22.039  0.00  0.00    -0.470 OA
BRANCH  22  23
ATOM     23  C   UNL     1      34.837 -18.501 -23.345  0.00  0.00    +0.148 C 
ATOM     24  C   UNL     1      34.586 -17.376 -24.123  0.00  0.00    +0.143 C 
ATOM     25  C   UNL     1      34.184 -17.528 -25.451  0.00  0.00    +0.143 C 
ATOM     26  C   UNL     1      34.691 -19.777 -23.880  0.00  0.00    +0.037 C 
ATOM     27  C   UNL     1      34.036 -18.805 -25.992  0.00  0.00    +0.037 C 
ATOM     28  C   UNL     1      34.290 -19.929 -25.207  0.00  0.00    +0.006 C 
BRANCH  25  29
ATOM     29  O   UNL     1      33.933 -16.443 -26.235  0.00  0.00    -0.505 OA
ATOM     30  H   UNL     1      33.253 -15.842 -26.001  0.00  0.00    +0.292 HD
ENDBRANCH  25  29
BRANCH  24  32
ATOM     31  O   UNL     1      35.658 -15.708 -22.798  0.00  0.00    -0.245 OA
ATOM     32  C   UNL     1      34.741 -16.041 -23.556  0.00  0.00    +0.347 C 
BRANCH  32  33
ATOM     33  O   UNL     1      33.742 -15.205 -23.971  0.00  0.00    -0.441 OA
ATOM     34  C   UNL     1      33.724 -13.892 -23.400  0.00  0.00    +0.256 C 
ENDBRANCH  32  33
ENDBRANCH  24  32
ENDBRANCH  22  23
ENDBRANCH  21  22
ENDBRANCH  20  21
ENDBRANCH   3  19
TORSDOF 12
ENDMDL
MODEL 6
REMARK VINA RESULT:     -10.2      2.477     10.777
REMARK  Name = 449162
REMARK  12 active torsions:
REMARK  status: ('A' for Active; 'I' for Inactive)
REMARK    1  A    between atoms: C_1  and  C_9
REMARK    2  A    between atoms: C_3  and  C_19
REMARK    3  A    between atoms: C_10  and  C_16
REMARK    4  A    between atoms: C_11  and  C_13
REMARK    5  A    between atoms: C_13  and  O_14
REMARK    6  A    between atoms: C_16  and  O_17
REMARK    7  A    between atoms: C_20  and  C_21
REMARK    8  A    between atoms: C_21  and  O_22
REMARK    9  A    between atoms: O_22  and  C_23
REMARK   10  A    between atoms: C_24  and  C_32
REMARK   11  A    between atoms: C_25  and  O_29
REMARK   12  A    between atoms: C_32  and  O_33
REMARK                            x       y       z     vdW  Elec       q    Type
REMARK                         _______ _______ _______ _____ _____    ______ ____
ROOT
ATOM      1  C   UNL     1      35.341 -20.316 -20.756  0.00  0.00    +0.037 C 
ATOM      2  C   UNL     1      34.636 -19.771 -21.829  0.00  0.00    +0.003 C 
ATOM      3  C   UNL     1      35.274 -18.904 -22.715  0.00  0.00    -0.000 C 
ATOM      4  C   UNL     1      36.685 -19.993 -20.569  0.00  0.00    +0.003 C 
ATOM      5  C   UNL     1      36.618 -18.580 -22.528  0.00  0.00    -0.000 C 
ATOM      6  C   UNL     1      37.323 -19.124 -21.455  0.00  0.00    +0.000 C 
ENDROOT
BRANCH   1   9
ATOM      7  O   UNL     1      33.347 -21.348 -20.024  0.00  0.00    -0.353 OA
ATOM      8  N   UNL     1      32.847 -22.234 -19.079  0.00  0.00    -0.071 NA
ATOM      9  C   UNL     1      34.682 -21.214 -19.839  0.00  0.00    +0.175 A 
ATOM     10  C   UNL     1      35.092 -21.987 -18.793  0.00  0.00    +0.071 A 
ATOM     11  C   UNL     1      33.907 -22.603 -18.354  0.00  0.00    +0.196 A 
BRANCH  11  13
ATOM     12  O   UNL     1      34.655 -24.177 -16.740  0.00  0.00    -0.243 OA
ATOM     13  C   UNL     1      33.741 -23.531 -17.272  0.00  0.00    +0.359 C 
BRANCH  13  14
ATOM     14  O   UNL     1      32.450 -23.679 -16.829  0.00  0.00    -0.476 OA
ATOM     15  H   UNL     1      31.918 -24.375 -17.160  0.00  0.00    +0.295 HD
ENDBRANCH  13  14
ENDBRANCH  11  13
BRANCH  10  16
ATOM     16  C   UNL     1      36.453 -22.139 -18.251  0.00  0.00    +0.169 C 
BRANCH  16  17
ATOM     17  O   UNL     1      36.580 -21.609 -16.927  0.00  0.00    -0.377 OA
ATOM     18  H   UNL     1      37.264 -20.920 -16.918  0.00  0.00    +0.211 HD
ENDBRANCH  16  17
ENDBRANCH  10  16
ENDBRANCH   1   9
BRANCH   3  19
ATOM     19  C   UNL     1      34.537 -18.336 -23.834  0.00  0.00    -0.001 C 
ATOM     20  C   UNL     1      34.754 -17.124 -24.392  0.00  0.00    +0.021 C 
BRANCH  20  21
ATOM     21  C   UNL     1      33.979 -16.589 -25.553  0.00  0.00    +0.232 C 
BRANCH  21  22
ATOM     22  O   UNL     1      33.033 -15.643 -25.076  0.00  0.00    -0.470 OA
BRANCH  22  23
ATOM     23  C   UNL     1      33.316 -14.321 -25.296  0.00  0.00    +0.148 C 
ATOM     24  C   UNL     1      33.589 -13.467 -24.233  0.00  0.00    +0.143 C 
ATOM     25  C   UNL     1      33.874 -12.123 -24.481  0.00  0.00    +0.143 C 
ATOM     26  C   UNL     1      33.324 -13.846 -26.604  0.00  0.00    +0.037 C 
ATOM     27  C   UNL     1      33.884 -11.642 -25.790  0.00  0.00    +0.037 C 
ATOM     28  C   UNL     1      33.609 -12.504 -26.851  0.00  0.00    +0.006 C 
BRANCH  25  29
ATOM     29  O   UNL     1      34.147 -11.264 -23.457  0.00  0.00    -0.505 OA
ATOM     30  H   UNL     1      33.483 -11.059 -22.828  0.00  0.00    +0.292 HD
ENDBRANCH  25  29
BRANCH  24  32
ATOM     31  O   UNL     1      34.550 -14.491 -22.307  0.00  0.00    -0.245 OA
ATOM     32  C   UNL     1      33.579 -13.970 -22.864  0.00  0.00    +0.347 C 
BRANCH  32  33
ATOM     33  O   UNL     1      32.358 -13.790 -22.276  0.00  0.00    -0.441 OA
ATOM     34  C   UNL     1      32.352 -13.186 -20.978  0.00  0.00    +0.256 C 
ENDBRANCH  32  33
ENDBRANCH  24  32
ENDBRANCH  22  23
ENDBRANCH  21  22
ENDBRANCH  20  21
ENDBRANCH   3  19
TORSDOF 12
ENDMDL
MODEL 7
REMARK VINA RESULT:     -10.1      3.091     11.282
REMARK  Name = 449162
REMARK  12 active torsions:
REMARK  status: ('A' for Active; 'I' for Inactive)
REMARK    1  A    between atoms: C_1  and  C_9
REMARK    2  A    between atoms: C_3  and  C_19
REMARK    3  A    between atoms: C_10  and  C_16
REMARK    4  A    between atoms: C_11  and  C_13
REMARK    5  A    between atoms: C_13  and  O_14
REMARK    6  A    between atoms: C_16  and  O_17
REMARK    7  A    between atoms: C_20  and  C_21
REMARK    8  A    between atoms: C_21  and  O_22
REMARK    9  A    between atoms: O_22  and  C_23
REMARK   10  A    between atoms: C_24  and  C_32
REMARK   11  A    between atoms: C_25  and  O_29
REMARK   12  A    between atoms: C_32  and  O_33
REMARK                            x       y       z     vdW  Elec       q    Type
REMARK                         _______ _______ _______ _____ _____    ______ ____
ROOT
ATOM      1  C   UNL     1      35.682 -23.101 -16.717  0.00  0.00    +0.037 C 
ATOM      2  C   UNL     1      36.336 -22.324 -17.672  0.00  0.00    +0.003 C 
ATOM      3  C   UNL     1      35.649 -21.882 -18.802  0.00  0.00    -0.000 C 
ATOM      4  C   UNL     1      34.339 -23.435 -16.891  0.00  0.00    +0.003 C 
ATOM      5  C   UNL     1      34.306 -22.216 -18.977  0.00  0.00    -0.000 C 
ATOM      6  C   UNL     1      33.651 -22.993 -18.022  0.00  0.00    +0.000 C 
ENDROOT
BRANCH   1   9
ATOM      7  O   UNL     1      37.029 -22.592 -14.845  0.00  0.00    -0.353 OA
ATOM      8  N   UNL     1      37.666 -23.171 -13.755  0.00  0.00    -0.071 NA
ATOM      9  C   UNL     1      36.392 -23.560 -15.548  0.00  0.00    +0.175 A 
ATOM     10  C   UNL     1      36.584 -24.774 -14.957  0.00  0.00    +0.071 A 
ATOM     11  C   UNL     1      37.386 -24.474 -13.842  0.00  0.00    +0.196 A 
BRANCH  11  13
ATOM     12  O   UNL     1      37.667 -25.312 -11.637  0.00  0.00    -0.243 OA
ATOM     13  C   UNL     1      37.898 -25.379 -12.853  0.00  0.00    +0.359 C 
BRANCH  13  14
ATOM     14  O   UNL     1      38.703 -26.378 -13.343  0.00  0.00    -0.476 OA
ATOM     15  H   UNL     1      38.506 -26.776 -14.168  0.00  0.00    +0.295 HD
ENDBRANCH  13  14
ENDBRANCH  11  13
BRANCH  10  16
ATOM     16  C   UNL     1      36.074 -26.087 -15.387  0.00  0.00    +0.169 C 
BRANCH  16  17
ATOM     17  O   UNL     1      37.105 -26.935 -15.905  0.00  0.00    -0.377 OA
ATOM     18  H   UNL     1      37.197 -27.717 -15.338  0.00  0.00    +0.211 HD
ENDBRANCH  16  17
ENDBRANCH  10  16
ENDBRANCH   1   9
BRANCH   3  19
ATOM     19  C   UNL     1      36.333 -21.072 -19.798  0.00  0.00    -0.001 C 
ATOM     20  C   UNL     1      35.771 -20.101 -20.553  0.00  0.00    +0.021 C 
BRANCH  20  21
ATOM     21  C   UNL     1      36.520 -19.283 -21.555  0.00  0.00    +0.232 C 
BRANCH  21  22
ATOM     22  O   UNL     1      35.599 -18.775 -22.511  0.00  0.00    -0.470 OA
BRANCH  22  23
ATOM     23  C   UNL     1      35.221 -17.466 -22.369  0.00  0.00    +0.148 C 
ATOM     24  C   UNL     1      34.789 -16.729 -23.466  0.00  0.00    +0.143 C 
ATOM     25  C   UNL     1      34.409 -15.396 -23.299  0.00  0.00    +0.143 C 
ATOM     26  C   UNL     1      35.276 -16.886 -21.105  0.00  0.00    +0.037 C 
ATOM     27  C   UNL     1      34.462 -14.810 -22.035  0.00  0.00    +0.037 C 
ATOM     28  C   UNL     1      34.896 -15.554 -20.939  0.00  0.00    +0.006 C 
BRANCH  25  29
ATOM     29  O   UNL     1      33.981 -14.651 -24.357  0.00  0.00    -0.505 OA
ATOM     30  H   UNL     1      33.244 -14.081 -24.262  0.00  0.00    +0.292 HD
ENDBRANCH  25  29
BRANCH  24  32
ATOM     31  O   UNL     1      35.068 -16.776 -25.834  0.00  0.00    -0.245 OA
ATOM     32  C   UNL     1      34.733 -17.342 -24.789  0.00  0.00    +0.347 C 
BRANCH  32  33
ATOM     33  O   UNL     1      34.265 -18.625 -24.723  0.00  0.00    -0.441 OA
ATOM     34  C   UNL     1      33.106 -18.927 -25.507  0.00  0.00    +0.256 C 
ENDBRANCH  32  33
ENDBRANCH  24  32
ENDBRANCH  22  23
ENDBRANCH  21  22
ENDBRANCH  20  21
ENDBRANCH   3  19
TORSDOF 12
ENDMDL
MODEL 8
REMARK VINA RESULT:     -10.1      2.618     10.776
REMARK  Name = 449162
REMARK  12 active torsions:
REMARK  status: ('A' for Active; 'I' for Inactive)
REMARK    1  A    between atoms: C_1  and  C_9
REMARK    2  A    between atoms: C_3  and  C_19
REMARK    3  A    between atoms: C_10  and  C_16
REMARK    4  A    between atoms: C_11  and  C_13
REMARK    5  A    between atoms: C_13  and  O_14
REMARK    6  A    between atoms: C_16  and  O_17
REMARK    7  A    between atoms: C_20  and  C_21
REMARK    8  A    between atoms: C_21  and  O_22
REMARK    9  A    between atoms: O_22  and  C_23
REMARK   10  A    between atoms: C_24  and  C_32
REMARK   11  A    between atoms: C_25  and  O_29
REMARK   12  A    between atoms: C_32  and  O_33
REMARK                            x       y       z     vdW  Elec       q    Type
REMARK                         _______ _______ _______ _____ _____    ______ ____
ROOT
ATOM      1  C   UNL     1      33.977 -22.276 -18.279  0.00  0.00    +0.037 C 
ATOM      2  C   UNL     1      33.664 -21.541 -19.423  0.00  0.00    +0.003 C 
ATOM      3  C   UNL     1      34.684 -21.018 -20.217  0.00  0.00    -0.000 C 
ATOM      4  C   UNL     1      35.311 -22.489 -17.930  0.00  0.00    +0.003 C 
ATOM      5  C   UNL     1      36.018 -21.231 -19.869  0.00  0.00    -0.000 C 
ATOM      6  C   UNL     1      36.331 -21.966 -18.725  0.00  0.00    +0.000 C 
ENDROOT
BRANCH   1   9
ATOM      7  O   UNL     1      31.665 -22.547 -17.882  0.00  0.00    -0.353 OA
ATOM      8  N   UNL     1      30.757 -23.123 -17.002  0.00  0.00    -0.071 NA
ATOM      9  C   UNL     1      32.923 -22.817 -17.457  0.00  0.00    +0.175 A 
ATOM     10  C   UNL     1      32.883 -23.560 -16.314  0.00  0.00    +0.071 A 
ATOM     11  C   UNL     1      31.508 -23.723 -16.074  0.00  0.00    +0.196 A 
BRANCH  11  13
ATOM     12  O   UNL     1      30.339 -25.542 -15.090  0.00  0.00    -0.243 OA
ATOM     13  C   UNL     1      30.876 -24.429 -14.996  0.00  0.00    +0.359 C 
BRANCH  13  14
ATOM     14  O   UNL     1      30.895 -23.777 -13.787  0.00  0.00    -0.476 OA
ATOM     15  H   UNL     1      31.691 -23.723 -13.297  0.00  0.00    +0.295 HD
ENDBRANCH  13  14
ENDBRANCH  11  13
BRANCH  10  16
ATOM     16  C   UNL     1      34.014 -24.070 -15.519  0.00  0.00    +0.169 C 
BRANCH  16  17
ATOM     17  O   UNL     1      34.402 -23.170 -14.475  0.00  0.00    -0.377 OA
ATOM     18  H   UNL     1      35.268 -22.784 -14.685  0.00  0.00    +0.211 HD
ENDBRANCH  16  17
ENDBRANCH  10  16
ENDBRANCH   1   9
BRANCH   3  19
ATOM     19  C   UNL     1      34.357 -20.251 -21.409  0.00  0.00    -0.001 C 
ATOM     20  C   UNL     1      35.131 -19.299 -21.976  0.00  0.00    +0.021 C 
BRANCH  20  21
ATOM     21  C   UNL     1      34.758 -18.548 -23.213  0.00  0.00    +0.232 C 
BRANCH  21  22
ATOM     22  O   UNL     1      35.507 -17.341 -23.259  0.00  0.00    -0.470 OA
BRANCH  22  23
ATOM     23  C   UNL     1      34.793 -16.172 -23.312  0.00  0.00    +0.148 C 
ATOM     24  C   UNL     1      34.083 -15.825 -24.456  0.00  0.00    +0.143 C 
ATOM     25  C   UNL     1      33.364 -14.630 -24.488  0.00  0.00    +0.143 C 
ATOM     26  C   UNL     1      34.792 -15.337 -22.199  0.00  0.00    +0.037 C 
ATOM     27  C   UNL     1      33.359 -13.789 -23.375  0.00  0.00    +0.037 C 
ATOM     28  C   UNL     1      34.074 -14.143 -22.231  0.00  0.00    +0.006 C 
BRANCH  25  29
ATOM     29  O   UNL     1      32.658 -14.266 -25.596  0.00  0.00    -0.505 OA
ATOM     30  H   UNL     1      33.105 -13.927 -26.346  0.00  0.00    +0.292 HD
ENDBRANCH  25  29
BRANCH  24  32
ATOM     31  O   UNL     1      35.095 -16.982 -26.279  0.00  0.00    -0.245 OA
ATOM     32  C   UNL     1      34.088 -16.705 -25.620  0.00  0.00    +0.347 C 
BRANCH  32  33
ATOM     33  O   UNL     1      32.836 -17.184 -25.887  0.00  0.00    -0.441 OA
ATOM     34  C   UNL     1      32.677 -18.607 -25.878  0.00  0.00    +0.256 C 
ENDBRANCH  32  33
ENDBRANCH  24  32
ENDBRANCH  22  23
ENDBRANCH  21  22
ENDBRANCH  20  21
ENDBRANCH   3  19
TORSDOF 12
ENDMDL
MODEL 9
REMARK VINA RESULT:     -10.0      6.184     13.175
REMARK  Name = 449162
REMARK  12 active torsions:
REMARK  status: ('A' for Active; 'I' for Inactive)
REMARK    1  A    between atoms: C_1  and  C_9
REMARK    2  A    between atoms: C_3  and  C_19
REMARK    3  A    between atoms: C_10  and  C_16
REMARK    4  A    between atoms: C_11  and  C_13
REMARK    5  A    between atoms: C_13  and  O_14
REMARK    6  A    between atoms: C_16  and  O_17
REMARK    7  A    between atoms: C_20  and  C_21
REMARK    8  A    between atoms: C_21  and  O_22
REMARK    9  A    between atoms: O_22  and  C_23
REMARK   10  A    between atoms: C_24  and  C_32
REMARK   11  A    between atoms: C_25  and  O_29
REMARK   12  A    between atoms: C_32  and  O_33
REMARK                            x       y       z     vdW  Elec       q    Type
REMARK                         _______ _______ _______ _____ _____    ______ ____
ROOT
ATOM      1  C   UNL     1      34.114 -14.587 -23.748  0.00  0.00    +0.037 C 
ATOM      2  C   UNL     1      34.192 -13.235 -23.416  0.00  0.00    +0.003 C 
ATOM      3  C   UNL     1      33.748 -12.268 -24.318  0.00  0.00    -0.000 C 
ATOM      4  C   UNL     1      33.591 -14.973 -24.983  0.00  0.00    +0.003 C 
ATOM      5  C   UNL     1      33.226 -12.653 -25.553  0.00  0.00    -0.000 C 
ATOM      6  C   UNL     1      33.148 -14.005 -25.885  0.00  0.00    +0.000 C 
ENDROOT
BRANCH   1   9
ATOM      7  O   UNL     1      34.648 -15.182 -21.526  0.00  0.00    -0.353 OA
ATOM      8  N   UNL     1      35.101 -16.239 -20.746  0.00  0.00    -0.071 NA
ATOM      9  C   UNL     1      34.573 -15.588 -22.817  0.00  0.00    +0.175 A 
ATOM     10  C   UNL     1      34.964 -16.891 -22.924  0.00  0.00    +0.071 A 
ATOM     11  C   UNL     1      35.283 -17.248 -21.603  0.00  0.00    +0.196 A 
BRANCH  11  13
ATOM     12  O   UNL     1      36.872 -18.717 -20.623  0.00  0.00    -0.243 OA
ATOM     13  C   UNL     1      35.754 -18.514 -21.118  0.00  0.00    +0.359 C 
BRANCH  13  14
ATOM     14  O   UNL     1      34.859 -19.549 -21.236  0.00  0.00    -0.476 OA
ATOM     15  H   UNL     1      34.750 -20.156 -20.531  0.00  0.00    +0.295 HD
ENDBRANCH  13  14
ENDBRANCH  11  13
BRANCH  10  16
ATOM     16  C   UNL     1      35.036 -17.723 -24.137  0.00  0.00    +0.169 C 
BRANCH  16  17
ATOM     17  O   UNL     1      34.103 -18.809 -24.114  0.00  0.00    -0.377 OA
ATOM     18  H   UNL     1      34.098 -19.214 -23.233  0.00  0.00    +0.211 HD
ENDBRANCH  16  17
ENDBRANCH  10  16
ENDBRANCH   1   9
BRANCH   3  19
ATOM     19  C   UNL     1      33.830 -10.858 -23.970  0.00  0.00    -0.001 C 
ATOM     20  C   UNL     1      34.834 -10.016 -24.304  0.00  0.00    +0.021 C 
BRANCH  20  21
ATOM     21  C   UNL     1      34.867  -8.567 -23.936  0.00  0.00    +0.232 C 
BRANCH  21  22
ATOM     22  O   UNL     1      33.949  -8.345 -22.874  0.00  0.00    -0.470 OA
BRANCH  22  23
ATOM     23  C   UNL     1      33.223  -7.184 -22.918  0.00  0.00    +0.148 C 
ATOM     24  C   UNL     1      32.451  -6.788 -21.831  0.00  0.00    +0.143 C 
ATOM     25  C   UNL     1      31.719  -5.602 -21.897  0.00  0.00    +0.143 C 
ATOM     26  C   UNL     1      33.271  -6.406 -24.071  0.00  0.00    +0.037 C 
ATOM     27  C   UNL     1      31.763  -4.819 -23.050  0.00  0.00    +0.037 C 
ATOM     28  C   UNL     1      32.539  -5.221 -24.137  0.00  0.00    +0.006 C 
BRANCH  25  29
ATOM     29  O   UNL     1      30.955  -5.190 -20.846  0.00  0.00    -0.505 OA
ATOM     30  H   UNL     1      30.022  -5.281 -20.880  0.00  0.00    +0.292 HD
ENDBRANCH  25  29
BRANCH  24  32
ATOM     31  O   UNL     1      32.932  -7.297 -19.551  0.00  0.00    -0.245 OA
ATOM     32  C   UNL     1      32.404  -7.608 -20.625  0.00  0.00    +0.347 C 
BRANCH  32  33
ATOM     33  O   UNL     1      31.703  -8.762 -20.833  0.00  0.00    -0.441 OA
ATOM     34  C   UNL     1      31.852  -9.792 -19.850  0.00  0.00    +0.256 C 
ENDBRANCH  32  33
ENDBRANCH  24  32
ENDBRANCH  22  23
ENDBRANCH  21  22
ENDBRANCH  20  21
ENDBRANCH   3  19
TORSDOF 12
ENDMDL
