MODEL 1
REMARK VINA RESULT:     -10.9      0.000      0.000
REMARK  Name = 9890801
REMARK  11 active torsions:
REMARK  status: ('A' for Active; 'I' for Inactive)
REMARK    1  A    between atoms: N_1  and  S_2
REMARK    2  A    between atoms: N_1  and  C_11
REMARK    3  A    between atoms: N_1  and  C_22
REMARK    4  A    between atoms: S_2  and  C_6
REMARK    5  A    between atoms: C_11  and  C_13
REMARK    6  A    between atoms: C_12  and  C_18
REMARK    7  A    between atoms: C_22  and  C_23
REMARK    8  A    between atoms: C_26  and  O_29
REMARK    9  A    between atoms: O_29  and  C_30
REMARK   10  A    between atoms: C_30  and  C_32
REMARK   11  A    between atoms: C_32  and  O_33
REMARK                            x       y       z     vdW  Elec       q    Type
REMARK                         _______ _______ _______ _____ _____    ______ ____
ROOT
ATOM      1  N   UNL     1      34.515 -23.373 -16.029  0.00  0.00    -0.147 NA
ENDROOT
BRANCH   1   2
ATOM      2  S   UNL     1      35.788 -24.438 -15.558  0.00  0.00    +0.065 S 
ATOM      3  O   UNL     1      37.051 -23.939 -16.073  0.00  0.00    -0.153 OA
ATOM      4  O   UNL     1      35.398 -25.809 -15.832  0.00  0.00    -0.153 OA
BRANCH   2   6
ATOM      5  N   UNL     1      34.943 -24.860 -11.634  0.00  0.00    -0.241 NA
ATOM      6  C   UNL     1      35.825 -24.243 -13.798  0.00  0.00    +0.141 C 
ATOM      7  C   UNL     1      36.716 -23.364 -13.193  0.00  0.00    +0.023 C 
ATOM      8  C   UNL     1      34.967 -24.962 -12.981  0.00  0.00    +0.119 C 
ATOM      9  C   UNL     1      36.722 -23.232 -11.808  0.00  0.00    +0.022 C 
ATOM     10  C   UNL     1      35.823 -23.996 -11.081  0.00  0.00    +0.099 C 
ENDBRANCH   2   6
ENDBRANCH   1   2
BRANCH   1  11
ATOM     11  C   UNL     1      33.886 -23.590 -17.355  0.00  0.00    +0.122 C 
BRANCH  11  13
ATOM     12  C   UNL     1      35.080 -20.668 -20.247  0.00  0.00    -0.023 C 
ATOM     13  C   UNL     1      34.301 -22.572 -18.362  0.00  0.00    -0.004 C 
ATOM     14  C   UNL     1      36.042 -21.311 -19.466  0.00  0.00    -0.005 C 
ATOM     15  C   UNL     1      33.730 -20.977 -20.085  0.00  0.00    -0.005 C 
ATOM     16  C   UNL     1      35.652 -22.262 -18.524  0.00  0.00    -0.003 C 
ATOM     17  C   UNL     1      33.340 -21.930 -19.142  0.00  0.00    -0.003 C 
BRANCH  12  18
ATOM     18  C   UNL     1      35.509 -19.617 -21.284  0.00  0.00    +0.019 C 
ATOM     19  C   UNL     1      35.054 -20.059 -22.691  0.00  0.00    +0.004 C 
ATOM     20  C   UNL     1      37.046 -19.470 -21.270  0.00  0.00    +0.004 C 
ATOM     21  C   UNL     1      34.915 -18.213 -21.032  0.00  0.00    +0.004 C 
ENDBRANCH  12  18
ENDBRANCH  11  13
ENDBRANCH   1  11
BRANCH   1  22
ATOM     22  C   UNL     1      33.520 -22.987 -14.996  0.00  0.00    +0.123 C 
BRANCH  22  23
ATOM     23  C   UNL     1      32.161 -23.564 -15.271  0.00  0.00    -0.001 C 
ATOM     24  C   UNL     1      31.266 -22.882 -16.095  0.00  0.00    +0.034 C 
ATOM     25  C   UNL     1      31.794 -24.783 -14.700  0.00  0.00    -0.003 C 
ATOM     26  C   UNL     1      30.004 -23.419 -16.349  0.00  0.00    +0.139 C 
ATOM     27  C   UNL     1      30.531 -25.320 -14.954  0.00  0.00    +0.003 C 
ATOM     28  C   UNL     1      29.636 -24.638 -15.778  0.00  0.00    +0.037 C 
BRANCH  26  29
ATOM     29  O   UNL     1      29.129 -22.754 -17.152  0.00  0.00    -0.464 OA
BRANCH  29  30
ATOM     30  C   UNL     1      27.822 -23.310 -17.289  0.00  0.00    +0.314 C 
BRANCH  30  32
ATOM     31  O   UNL     1      26.120 -22.420 -15.800  0.00  0.00    -0.246 OA
ATOM     32  C   UNL     1      26.795 -22.320 -16.813  0.00  0.00    +0.359 C 
BRANCH  32  33
ATOM     33  O   UNL     1      26.718 -21.276 -17.676  0.00  0.00    -0.478 OA
ATOM     34  H   UNL     1      26.717 -21.430 -18.600  0.00  0.00    +0.295 HD
ENDBRANCH  32  33
ENDBRANCH  30  32
ENDBRANCH  29  30
ENDBRANCH  26  29
ENDBRANCH  22  23
ENDBRANCH   1  22
TORSDOF 11
ENDMDL
MODEL 2
REMARK VINA RESULT:      -9.9      1.381      1.866
REMARK  Name = 9890801
REMARK  11 active torsions:
REMARK  status: ('A' for Active; 'I' for Inactive)
REMARK    1  A    between atoms: N_1  and  S_2
REMARK    2  A    between atoms: N_1  and  C_11
REMARK    3  A    between atoms: N_1  and  C_22
REMARK    4  A    between atoms: S_2  and  C_6
REMARK    5  A    between atoms: C_11  and  C_13
REMARK    6  A    between atoms: C_12  and  C_18
REMARK    7  A    between atoms: C_22  and  C_23
REMARK    8  A    between atoms: C_26  and  O_29
REMARK    9  A    between atoms: O_29  and  C_30
REMARK   10  A    between atoms: C_30  and  C_32
REMARK   11  A    between atoms: C_32  and  O_33
REMARK                            x       y       z     vdW  Elec       q    Type
REMARK                         _______ _______ _______ _____ _____    ______ ____
ROOT
ATOM      1  N   UNL     1      34.638 -23.286 -16.851  0.00  0.00    -0.147 NA
ENDROOT
BRANCH   1   2
ATOM      2  S   UNL     1      36.155 -22.747 -16.232  0.00  0.00    +0.065 S 
ATOM      3  O   UNL     1      36.013 -21.400 -15.708  0.00  0.00    -0.153 OA
ATOM      4  O   UNL     1      37.200 -23.030 -17.199  0.00  0.00    -0.153 OA
BRANCH   2   6
ATOM      5  N   UNL     1      37.258 -25.921 -13.996  0.00  0.00    -0.241 NA
ATOM      6  C   UNL     1      36.414 -23.823 -14.849  0.00  0.00    +0.141 C 
ATOM      7  C   UNL     1      36.003 -23.460 -13.571  0.00  0.00    +0.023 C 
ATOM      8  C   UNL     1      37.031 -25.054 -15.007  0.00  0.00    +0.119 C 
ATOM      9  C   UNL     1      36.220 -24.326 -12.505  0.00  0.00    +0.022 C 
ATOM     10  C   UNL     1      36.846 -25.534 -12.768  0.00  0.00    +0.099 C 
ENDBRANCH   2   6
ENDBRANCH   1   2
BRANCH   1  11
ATOM     11  C   UNL     1      34.546 -23.578 -18.303  0.00  0.00    +0.122 C 
BRANCH  11  13
ATOM     12  C   UNL     1      35.275 -20.126 -20.728  0.00  0.00    -0.023 C 
ATOM     13  C   UNL     1      34.801 -22.376 -19.148  0.00  0.00    -0.004 C 
ATOM     14  C   UNL     1      33.966 -20.504 -20.429  0.00  0.00    -0.005 C 
ATOM     15  C   UNL     1      36.347 -20.872 -20.237  0.00  0.00    -0.005 C 
ATOM     16  C   UNL     1      33.729 -21.629 -19.639  0.00  0.00    -0.003 C 
ATOM     17  C   UNL     1      36.110 -21.997 -19.447  0.00  0.00    -0.003 C 
BRANCH  12  18
ATOM     18  C   UNL     1      35.537 -18.887 -21.601  0.00  0.00    +0.019 C 
ATOM     19  C   UNL     1      34.787 -19.029 -22.942  0.00  0.00    +0.004 C 
ATOM     20  C   UNL     1      37.051 -18.758 -21.876  0.00  0.00    +0.004 C 
ATOM     21  C   UNL     1      35.075 -17.561 -20.957  0.00  0.00    +0.004 C 
ENDBRANCH  12  18
ENDBRANCH  11  13
ENDBRANCH   1  11
BRANCH   1  22
ATOM     22  C   UNL     1      33.866 -24.259 -16.037  0.00  0.00    +0.123 C 
BRANCH  22  23
ATOM     23  C   UNL     1      32.511 -23.735 -15.656  0.00  0.00    -0.001 C 
ATOM     24  C   UNL     1      31.566 -23.460 -16.644  0.00  0.00    +0.034 C 
ATOM     25  C   UNL     1      32.198 -23.522 -14.313  0.00  0.00    -0.003 C 
ATOM     26  C   UNL     1      30.308 -22.972 -16.290  0.00  0.00    +0.139 C 
ATOM     27  C   UNL     1      30.940 -23.034 -13.959  0.00  0.00    +0.003 C 
ATOM     28  C   UNL     1      29.995 -22.759 -14.947  0.00  0.00    +0.037 C 
BRANCH  26  29
ATOM     29  O   UNL     1      29.385 -22.702 -17.253  0.00  0.00    -0.464 OA
BRANCH  29  30
ATOM     30  C   UNL     1      28.129 -23.373 -17.156  0.00  0.00    +0.314 C 
BRANCH  30  32
ATOM     31  O   UNL     1      26.701 -21.474 -17.665  0.00  0.00    -0.246 OA
ATOM     32  C   UNL     1      27.035 -22.372 -16.907  0.00  0.00    +0.359 C 
BRANCH  32  33
ATOM     33  O   UNL     1      26.454 -22.604 -15.703  0.00  0.00    -0.478 OA
ATOM     34  H   UNL     1      26.916 -22.403 -14.913  0.00  0.00    +0.295 HD
ENDBRANCH  32  33
ENDBRANCH  30  32
ENDBRANCH  29  30
ENDBRANCH  26  29
ENDBRANCH  22  23
ENDBRANCH   1  22
TORSDOF 11
ENDMDL
MODEL 3
REMARK VINA RESULT:      -9.5      2.142      2.872
REMARK  Name = 9890801
REMARK  11 active torsions:
REMARK  status: ('A' for Active; 'I' for Inactive)
REMARK    1  A    between atoms: N_1  and  S_2
REMARK    2  A    between atoms: N_1  and  C_11
REMARK    3  A    between atoms: N_1  and  C_22
REMARK    4  A    between atoms: S_2  and  C_6
REMARK    5  A    between atoms: C_11  and  C_13
REMARK    6  A    between atoms: C_12  and  C_18
REMARK    7  A    between atoms: C_22  and  C_23
REMARK    8  A    between atoms: C_26  and  O_29
REMARK    9  A    between atoms: O_29  and  C_30
REMARK   10  A    between atoms: C_30  and  C_32
REMARK   11  A    between atoms: C_32  and  O_33
REMARK                            x       y       z     vdW  Elec       q    Type
REMARK                         _______ _______ _______ _____ _____    ______ ____
ROOT
ATOM      1  N   UNL     1      34.483 -23.727 -13.605  0.00  0.00    -0.147 NA
ENDROOT
BRANCH   1   2
ATOM      2  S   UNL     1      35.608 -24.256 -12.409  0.00  0.00    +0.065 S 
ATOM      3  O   UNL     1      34.999 -25.296 -11.600  0.00  0.00    -0.153 OA
ATOM      4  O   UNL     1      36.202 -23.102 -11.760  0.00  0.00    -0.153 OA
BRANCH   2   6
ATOM      5  N   UNL     1      38.953 -24.812 -14.599  0.00  0.00    -0.241 NA
ATOM      6  C   UNL     1      36.875 -25.021 -13.382  0.00  0.00    +0.141 C 
ATOM      7  C   UNL     1      36.818 -26.375 -13.696  0.00  0.00    +0.023 C 
ATOM      8  C   UNL     1      37.955 -24.291 -13.853  0.00  0.00    +0.119 C 
ATOM      9  C   UNL     1      37.828 -26.948 -14.462  0.00  0.00    +0.022 C 
ATOM     10  C   UNL     1      38.864 -26.130 -14.884  0.00  0.00    +0.099 C 
ENDBRANCH   2   6
ENDBRANCH   1   2
BRANCH   1  11
ATOM     11  C   UNL     1      34.315 -24.565 -14.818  0.00  0.00    +0.122 C 
BRANCH  11  13
ATOM     12  C   UNL     1      35.081 -22.408 -18.435  0.00  0.00    -0.023 C 
ATOM     13  C   UNL     1      34.582 -23.813 -16.078  0.00  0.00    -0.004 C 
ATOM     14  C   UNL     1      36.026 -22.407 -17.409  0.00  0.00    -0.005 C 
ATOM     15  C   UNL     1      33.886 -23.111 -18.283  0.00  0.00    -0.005 C 
ATOM     16  C   UNL     1      35.777 -23.109 -16.231  0.00  0.00    -0.003 C 
ATOM     17  C   UNL     1      33.637 -23.815 -17.104  0.00  0.00    -0.003 C 
BRANCH  12  18
ATOM     18  C   UNL     1      35.355 -21.631 -19.734  0.00  0.00    +0.019 C 
ATOM     19  C   UNL     1      34.092 -20.845 -20.146  0.00  0.00    +0.004 C 
ATOM     20  C   UNL     1      35.729 -22.619 -20.860  0.00  0.00    +0.004 C 
ATOM     21  C   UNL     1      36.511 -20.612 -19.620  0.00  0.00    +0.004 C 
ENDBRANCH  12  18
ENDBRANCH  11  13
ENDBRANCH   1  11
BRANCH   1  22
ATOM     22  C   UNL     1      33.193 -23.159 -13.138  0.00  0.00    +0.123 C 
BRANCH  22  23
ATOM     23  C   UNL     1      32.014 -23.767 -13.844  0.00  0.00    -0.001 C 
ATOM     24  C   UNL     1      31.199 -22.973 -14.651  0.00  0.00    +0.034 C 
ATOM     25  C   UNL     1      31.735 -25.125 -13.691  0.00  0.00    -0.003 C 
ATOM     26  C   UNL     1      30.105 -23.538 -15.306  0.00  0.00    +0.139 C 
ATOM     27  C   UNL     1      30.639 -25.689 -14.347  0.00  0.00    +0.003 C 
ATOM     28  C   UNL     1      29.825 -24.896 -15.154  0.00  0.00    +0.037 C 
BRANCH  26  29
ATOM     29  O   UNL     1      29.308 -22.764 -16.093  0.00  0.00    -0.464 OA
BRANCH  29  30
ATOM     30  C   UNL     1      27.911 -22.762 -15.799  0.00  0.00    +0.314 C 
BRANCH  30  32
ATOM     31  O   UNL     1      27.438 -23.280 -18.125  0.00  0.00    -0.246 OA
ATOM     32  C   UNL     1      27.122 -22.735 -17.079  0.00  0.00    +0.359 C 
BRANCH  32  33
ATOM     33  O   UNL     1      25.987 -22.011 -16.912  0.00  0.00    -0.478 OA
ATOM     34  H   UNL     1      25.309 -22.324 -16.346  0.00  0.00    +0.295 HD
ENDBRANCH  32  33
ENDBRANCH  30  32
ENDBRANCH  29  30
ENDBRANCH  26  29
ENDBRANCH  22  23
ENDBRANCH   1  22
TORSDOF 11
ENDMDL
MODEL 4
REMARK VINA RESULT:      -9.5     12.587     16.916
REMARK  Name = 9890801
REMARK  11 active torsions:
REMARK  status: ('A' for Active; 'I' for Inactive)
REMARK    1  A    between atoms: N_1  and  S_2
REMARK    2  A    between atoms: N_1  and  C_11
REMARK    3  A    between atoms: N_1  and  C_22
REMARK    4  A    between atoms: S_2  and  C_6
REMARK    5  A    between atoms: C_11  and  C_13
REMARK    6  A    between atoms: C_12  and  C_18
REMARK    7  A    between atoms: C_22  and  C_23
REMARK    8  A    between atoms: C_26  and  O_29
REMARK    9  A    between atoms: O_29  and  C_30
REMARK   10  A    between atoms: C_30  and  C_32
REMARK   11  A    between atoms: C_32  and  O_33
REMARK                            x       y       z     vdW  Elec       q    Type
REMARK                         _______ _______ _______ _____ _____    ______ ____
ROOT
ATOM      1  N   UNL     1      33.281  -7.806 -23.394  0.00  0.00    -0.147 NA
ENDROOT
BRANCH   1   2
ATOM      2  S   UNL     1      31.628  -8.021 -22.948  0.00  0.00    +0.065 S 
ATOM      3  O   UNL     1      30.948  -8.793 -23.972  0.00  0.00    -0.153 OA
ATOM      4  O   UNL     1      31.072  -6.749 -22.526  0.00  0.00    -0.153 OA
BRANCH   2   6
ATOM      5  N   UNL     1      32.361  -9.278 -19.183  0.00  0.00    -0.241 NA
ATOM      6  C   UNL     1      31.746  -9.047 -21.509  0.00  0.00    +0.141 C 
ATOM      7  C   UNL     1      31.341 -10.377 -21.542  0.00  0.00    +0.023 C 
ATOM      8  C   UNL     1      32.244  -8.549 -20.315  0.00  0.00    +0.119 C 
ATOM      9  C   UNL     1      31.445 -11.158 -20.396  0.00  0.00    +0.022 C 
ATOM     10  C   UNL     1      31.957 -10.566 -19.252  0.00  0.00    +0.099 C 
ENDBRANCH   2   6
ENDBRANCH   1   2
BRANCH   1  11
ATOM     11  C   UNL     1      33.866  -6.450 -23.250  0.00  0.00    +0.122 C 
BRANCH  11  13
ATOM     12  C   UNL     1      33.898  -4.267 -26.932  0.00  0.00    -0.023 C 
ATOM     13  C   UNL     1      33.877  -5.689 -24.532  0.00  0.00    -0.004 C 
ATOM     14  C   UNL     1      34.998  -5.046 -26.574  0.00  0.00    -0.005 C 
ATOM     15  C   UNL     1      32.787  -4.199 -26.091  0.00  0.00    -0.005 C 
ATOM     16  C   UNL     1      34.988  -5.756 -25.374  0.00  0.00    -0.003 C 
ATOM     17  C   UNL     1      32.776  -4.911 -24.891  0.00  0.00    -0.003 C 
BRANCH  12  18
ATOM     18  C   UNL     1      33.910  -3.480 -28.254  0.00  0.00    +0.019 C 
ATOM     19  C   UNL     1      35.094  -2.490 -28.259  0.00  0.00    +0.004 C 
ATOM     20  C   UNL     1      32.589  -2.695 -28.402  0.00  0.00    +0.004 C 
ATOM     21  C   UNL     1      34.054  -4.371 -29.508  0.00  0.00    +0.004 C 
ENDBRANCH  12  18
ENDBRANCH  11  13
ENDBRANCH   1  11
BRANCH   1  22
ATOM     22  C   UNL     1      34.243  -8.872 -23.015  0.00  0.00    +0.123 C 
BRANCH  22  23
ATOM     23  C   UNL     1      34.380  -9.920 -24.082  0.00  0.00    -0.001 C 
ATOM     24  C   UNL     1      33.676 -11.120 -23.976  0.00  0.00    +0.034 C 
ATOM     25  C   UNL     1      35.212  -9.695 -25.179  0.00  0.00    -0.003 C 
ATOM     26  C   UNL     1      33.804 -12.093 -24.967  0.00  0.00    +0.139 C 
ATOM     27  C   UNL     1      35.341 -10.669 -26.169  0.00  0.00    +0.003 C 
ATOM     28  C   UNL     1      34.637 -11.868 -26.063  0.00  0.00    +0.037 C 
BRANCH  26  29
ATOM     29  O   UNL     1      33.119 -13.265 -24.863  0.00  0.00    -0.464 OA
BRANCH  29  30
ATOM     30  C   UNL     1      33.067 -14.091 -26.027  0.00  0.00    +0.314 C 
BRANCH  30  32
ATOM     31  O   UNL     1      33.284 -16.486 -26.377  0.00  0.00    -0.246 OA
ATOM     32  C   UNL     1      33.426 -15.505 -25.663  0.00  0.00    +0.359 C 
BRANCH  32  33
ATOM     33  O   UNL     1      33.941 -15.548 -24.408  0.00  0.00    -0.478 OA
ATOM     34  H   UNL     1      34.404 -14.810 -24.066  0.00  0.00    +0.295 HD
ENDBRANCH  32  33
ENDBRANCH  30  32
ENDBRANCH  29  30
ENDBRANCH  26  29
ENDBRANCH  22  23
ENDBRANCH   1  22
TORSDOF 11
ENDMDL
MODEL 5
REMARK VINA RESULT:      -9.4      2.501      6.845
REMARK  Name = 9890801
REMARK  11 active torsions:
REMARK  status: ('A' for Active; 'I' for Inactive)
REMARK    1  A    between atoms: N_1  and  S_2
REMARK    2  A    between atoms: N_1  and  C_11
REMARK    3  A    between atoms: N_1  and  C_22
REMARK    4  A    between atoms: S_2  and  C_6
REMARK    5  A    between atoms: C_11  and  C_13
REMARK    6  A    between atoms: C_12  and  C_18
REMARK    7  A    between atoms: C_22  and  C_23
REMARK    8  A    between atoms: C_26  and  O_29
REMARK    9  A    between atoms: O_29  and  C_30
REMARK   10  A    between atoms: C_30  and  C_32
REMARK   11  A    between atoms: C_32  and  O_33
REMARK                            x       y       z     vdW  Elec       q    Type
REMARK                         _______ _______ _______ _____ _____    ______ ____
ROOT
ATOM      1  N   UNL     1      33.639 -23.706 -16.490  0.00  0.00    -0.147 NA
ENDROOT
BRANCH   1   2
ATOM      2  S   UNL     1      32.616 -23.727 -15.101  0.00  0.00    +0.065 S 
ATOM      3  O   UNL     1      32.706 -22.451 -14.415  0.00  0.00    -0.153 OA
ATOM      4  O   UNL     1      32.835 -24.954 -14.358  0.00  0.00    -0.153 OA
BRANCH   2   6
ATOM      5  N   UNL     1      29.249 -22.786 -17.119  0.00  0.00    -0.241 NA
ATOM      6  C   UNL     1      30.997 -23.827 -15.815  0.00  0.00    +0.141 C 
ATOM      7  C   UNL     1      30.212 -24.963 -15.654  0.00  0.00    +0.023 C 
ATOM      8  C   UNL     1      30.474 -22.775 -16.550  0.00  0.00    +0.119 C 
ATOM      9  C   UNL     1      28.945 -25.012 -16.226  0.00  0.00    +0.022 C 
ATOM     10  C   UNL     1      28.514 -23.907 -16.942  0.00  0.00    +0.099 C 
ENDBRANCH   2   6
ENDBRANCH   1   2
BRANCH   1  11
ATOM     11  C   UNL     1      32.997 -23.587 -17.822  0.00  0.00    +0.122 C 
BRANCH  11  13
ATOM     12  C   UNL     1      34.895 -20.671 -20.316  0.00  0.00    -0.023 C 
ATOM     13  C   UNL     1      33.658 -22.571 -18.690  0.00  0.00    -0.004 C 
ATOM     14  C   UNL     1      35.667 -21.600 -19.617  0.00  0.00    -0.005 C 
ATOM     15  C   UNL     1      33.505 -20.692 -20.201  0.00  0.00    -0.005 C 
ATOM     16  C   UNL     1      35.048 -22.549 -18.805  0.00  0.00    -0.003 C 
ATOM     17  C   UNL     1      32.886 -21.643 -19.389  0.00  0.00    -0.003 C 
BRANCH  12  18
ATOM     18  C   UNL     1      35.577 -19.622 -21.210  0.00  0.00    +0.019 C 
ATOM     19  C   UNL     1      35.285 -19.935 -22.693  0.00  0.00    +0.004 C 
ATOM     20  C   UNL     1      37.103 -19.653 -20.975  0.00  0.00    +0.004 C 
ATOM     21  C   UNL     1      35.104 -18.175 -20.946  0.00  0.00    +0.004 C 
ENDBRANCH  12  18
ENDBRANCH  11  13
ENDBRANCH   1  11
BRANCH   1  22
ATOM     22  C   UNL     1      34.900 -22.926 -16.408  0.00  0.00    +0.123 C 
BRANCH  22  23
ATOM     23  C   UNL     1      35.845 -23.477 -15.378  0.00  0.00    -0.001 C 
ATOM     24  C   UNL     1      36.522 -24.673 -15.621  0.00  0.00    +0.034 C 
ATOM     25  C   UNL     1      36.045 -22.794 -14.179  0.00  0.00    -0.003 C 
ATOM     26  C   UNL     1      37.398 -25.185 -14.665  0.00  0.00    +0.139 C 
ATOM     27  C   UNL     1      36.922 -23.307 -13.222  0.00  0.00    +0.003 C 
ATOM     28  C   UNL     1      37.599 -24.502 -13.465  0.00  0.00    +0.037 C 
BRANCH  26  29
ATOM     29  O   UNL     1      38.058 -26.352 -14.900  0.00  0.00    -0.464 OA
BRANCH  29  30
ATOM     30  C   UNL     1      39.305 -26.539 -14.231  0.00  0.00    +0.314 C 
BRANCH  30  32
ATOM     31  O   UNL     1      41.036 -24.844 -14.420  0.00  0.00    -0.246 OA
ATOM     32  C   UNL     1      40.378 -25.743 -14.921  0.00  0.00    +0.359 C 
BRANCH  32  33
ATOM     33  O   UNL     1      40.522 -26.166 -16.202  0.00  0.00    -0.478 OA
ATOM     34  H   UNL     1      40.461 -27.078 -16.404  0.00  0.00    +0.295 HD
ENDBRANCH  32  33
ENDBRANCH  30  32
ENDBRANCH  29  30
ENDBRANCH  26  29
ENDBRANCH  22  23
ENDBRANCH   1  22
TORSDOF 11
ENDMDL
MODEL 6
REMARK VINA RESULT:      -9.3      2.498      6.355
REMARK  Name = 9890801
REMARK  11 active torsions:
REMARK  status: ('A' for Active; 'I' for Inactive)
REMARK    1  A    between atoms: N_1  and  S_2
REMARK    2  A    between atoms: N_1  and  C_11
REMARK    3  A    between atoms: N_1  and  C_22
REMARK    4  A    between atoms: S_2  and  C_6
REMARK    5  A    between atoms: C_11  and  C_13
REMARK    6  A    between atoms: C_12  and  C_18
REMARK    7  A    between atoms: C_22  and  C_23
REMARK    8  A    between atoms: C_26  and  O_29
REMARK    9  A    between atoms: O_29  and  C_30
REMARK   10  A    between atoms: C_30  and  C_32
REMARK   11  A    between atoms: C_32  and  O_33
REMARK                            x       y       z     vdW  Elec       q    Type
REMARK                         _______ _______ _______ _____ _____    ______ ____
ROOT
ATOM      1  N   UNL     1      33.528 -23.662 -16.400  0.00  0.00    -0.147 NA
ENDROOT
BRANCH   1   2
ATOM      2  S   UNL     1      32.455 -23.794 -15.056  0.00  0.00    +0.065 S 
ATOM      3  O   UNL     1      32.528 -22.584 -14.258  0.00  0.00    -0.153 OA
ATOM      4  O   UNL     1      32.638 -25.083 -14.416  0.00  0.00    -0.153 OA
BRANCH   2   6
ATOM      5  N   UNL     1      29.171 -22.647 -17.105  0.00  0.00    -0.241 NA
ATOM      6  C   UNL     1      30.863 -23.815 -15.833  0.00  0.00    +0.141 C 
ATOM      7  C   UNL     1      30.064 -24.952 -15.799  0.00  0.00    +0.023 C 
ATOM      8  C   UNL     1      30.375 -22.698 -16.494  0.00  0.00    +0.119 C 
ATOM      9  C   UNL     1      28.818 -24.938 -16.419  0.00  0.00    +0.022 C 
ATOM     10  C   UNL     1      28.422 -23.771 -17.053  0.00  0.00    +0.099 C 
ENDBRANCH   2   6
ENDBRANCH   1   2
BRANCH   1  11
ATOM     11  C   UNL     1      32.936 -23.633 -17.760  0.00  0.00    +0.122 C 
BRANCH  11  13
ATOM     12  C   UNL     1      34.784 -20.728 -20.303  0.00  0.00    -0.023 C 
ATOM     13  C   UNL     1      33.580 -22.622 -18.646  0.00  0.00    -0.004 C 
ATOM     14  C   UNL     1      33.405 -20.697 -20.097  0.00  0.00    -0.005 C 
ATOM     15  C   UNL     1      35.561 -21.705 -19.682  0.00  0.00    -0.005 C 
ATOM     16  C   UNL     1      32.803 -21.643 -19.269  0.00  0.00    -0.003 C 
ATOM     17  C   UNL     1      34.959 -22.652 -18.853  0.00  0.00    -0.003 C 
BRANCH  12  18
ATOM     18  C   UNL     1      35.448 -19.685 -21.219  0.00  0.00    +0.019 C 
ATOM     19  C   UNL     1      35.180 -20.045 -22.696  0.00  0.00    +0.004 C 
ATOM     20  C   UNL     1      36.971 -19.670 -20.968  0.00  0.00    +0.004 C 
ATOM     21  C   UNL     1      34.935 -18.245 -20.999  0.00  0.00    +0.004 C 
ENDBRANCH  12  18
ENDBRANCH  11  13
ENDBRANCH   1  11
BRANCH   1  22
ATOM     22  C   UNL     1      34.682 -22.735 -16.275  0.00  0.00    +0.123 C 
BRANCH  22  23
ATOM     23  C   UNL     1      35.912 -23.423 -15.755  0.00  0.00    -0.001 C 
ATOM     24  C   UNL     1      35.790 -24.552 -14.944  0.00  0.00    +0.034 C 
ATOM     25  C   UNL     1      37.176 -22.934 -16.084  0.00  0.00    -0.003 C 
ATOM     26  C   UNL     1      36.933 -25.190 -14.462  0.00  0.00    +0.139 C 
ATOM     27  C   UNL     1      38.319 -23.572 -15.601  0.00  0.00    +0.003 C 
ATOM     28  C   UNL     1      38.197 -24.701 -14.790  0.00  0.00    +0.037 C 
BRANCH  26  29
ATOM     29  O   UNL     1      36.816 -26.290 -13.669  0.00  0.00    -0.464 OA
BRANCH  29  30
ATOM     30  C   UNL     1      37.377 -26.208 -12.359  0.00  0.00    +0.314 C 
BRANCH  30  32
ATOM     31  O   UNL     1      35.368 -25.242 -11.391  0.00  0.00    -0.246 OA
ATOM     32  C   UNL     1      36.582 -25.242 -11.525  0.00  0.00    +0.359 C 
BRANCH  32  33
ATOM     33  O   UNL     1      37.412 -24.350 -10.926  0.00  0.00    -0.478 OA
ATOM     34  H   UNL     1      37.075 -23.748 -10.292  0.00  0.00    +0.295 HD
ENDBRANCH  32  33
ENDBRANCH  30  32
ENDBRANCH  29  30
ENDBRANCH  26  29
ENDBRANCH  22  23
ENDBRANCH   1  22
TORSDOF 11
ENDMDL
MODEL 7
REMARK VINA RESULT:      -9.3      2.069      6.386
REMARK  Name = 9890801
REMARK  11 active torsions:
REMARK  status: ('A' for Active; 'I' for Inactive)
REMARK    1  A    between atoms: N_1  and  S_2
REMARK    2  A    between atoms: N_1  and  C_11
REMARK    3  A    between atoms: N_1  and  C_22
REMARK    4  A    between atoms: S_2  and  C_6
REMARK    5  A    between atoms: C_11  and  C_13
REMARK    6  A    between atoms: C_12  and  C_18
REMARK    7  A    between atoms: C_22  and  C_23
REMARK    8  A    between atoms: C_26  and  O_29
REMARK    9  A    between atoms: O_29  and  C_30
REMARK   10  A    between atoms: C_30  and  C_32
REMARK   11  A    between atoms: C_32  and  O_33
REMARK                            x       y       z     vdW  Elec       q    Type
REMARK                         _______ _______ _______ _____ _____    ______ ____
ROOT
ATOM      1  N   UNL     1      34.246 -23.127 -17.398  0.00  0.00    -0.147 NA
ENDROOT
BRANCH   1   2
ATOM      2  S   UNL     1      33.677 -22.992 -19.021  0.00  0.00    +0.065 S 
ATOM      3  O   UNL     1      32.317 -22.486 -19.016  0.00  0.00    -0.153 OA
ATOM      4  O   UNL     1      33.981 -24.214 -19.743  0.00  0.00    -0.153 OA
BRANCH   2   6
ATOM      5  N   UNL     1      36.911 -20.742 -19.899  0.00  0.00    -0.241 NA
ATOM      6  C   UNL     1      34.710 -21.717 -19.688  0.00  0.00    +0.141 C 
ATOM      7  C   UNL     1      34.180 -20.715 -20.495  0.00  0.00    +0.023 C 
ATOM      8  C   UNL     1      36.069 -21.685 -19.423  0.00  0.00    +0.119 C 
ATOM      9  C   UNL     1      35.016 -19.727 -21.004  0.00  0.00    +0.022 C 
ATOM     10  C   UNL     1      36.362 -19.785 -20.679  0.00  0.00    +0.099 C 
ENDBRANCH   2   6
ENDBRANCH   1   2
BRANCH   1  11
ATOM     11  C   UNL     1      35.704 -22.986 -17.161  0.00  0.00    +0.122 C 
BRANCH  11  13
ATOM     12  C   UNL     1      36.899 -24.437 -13.314  0.00  0.00    -0.023 C 
ATOM     13  C   UNL     1      36.121 -23.492 -15.821  0.00  0.00    -0.004 C 
ATOM     14  C   UNL     1      36.955 -23.071 -13.593  0.00  0.00    -0.005 C 
ATOM     15  C   UNL     1      36.454 -25.330 -14.289  0.00  0.00    -0.005 C 
ATOM     16  C   UNL     1      36.566 -22.599 -14.846  0.00  0.00    -0.003 C 
ATOM     17  C   UNL     1      36.064 -24.858 -15.543  0.00  0.00    -0.003 C 
BRANCH  12  18
ATOM     18  C   UNL     1      37.330 -24.959 -11.933  0.00  0.00    +0.019 C 
ATOM     19  C   UNL     1      38.584 -24.195 -11.458  0.00  0.00    +0.004 C 
ATOM     20  C   UNL     1      37.657 -26.464 -12.027  0.00  0.00    +0.004 C 
ATOM     21  C   UNL     1      36.252 -24.793 -10.839  0.00  0.00    +0.004 C 
ENDBRANCH  12  18
ENDBRANCH  11  13
ENDBRANCH   1  11
BRANCH   1  22
ATOM     22  C   UNL     1      33.443 -22.483 -16.328  0.00  0.00    +0.123 C 
BRANCH  22  23
ATOM     23  C   UNL     1      32.472 -23.436 -15.692  0.00  0.00    -0.001 C 
ATOM     24  C   UNL     1      31.147 -23.476 -16.125  0.00  0.00    +0.034 C 
ATOM     25  C   UNL     1      32.896 -24.282 -14.667  0.00  0.00    -0.003 C 
ATOM     26  C   UNL     1      30.246 -24.361 -15.534  0.00  0.00    +0.139 C 
ATOM     27  C   UNL     1      31.994 -25.167 -14.075  0.00  0.00    +0.003 C 
ATOM     28  C   UNL     1      30.669 -25.207 -14.508  0.00  0.00    +0.037 C 
BRANCH  26  29
ATOM     29  O   UNL     1      28.952 -24.399 -15.955  0.00  0.00    -0.464 OA
BRANCH  29  30
ATOM     30  C   UNL     1      28.162 -23.231 -15.731  0.00  0.00    +0.314 C 
BRANCH  30  32
ATOM     31  O   UNL     1      27.093 -21.682 -17.268  0.00  0.00    -0.246 OA
ATOM     32  C   UNL     1      27.515 -22.801 -17.019  0.00  0.00    +0.359 C 
BRANCH  32  33
ATOM     33  O   UNL     1      27.464 -23.843 -17.887  0.00  0.00    -0.478 OA
ATOM     34  H   UNL     1      27.149 -24.677 -17.601  0.00  0.00    +0.295 HD
ENDBRANCH  32  33
ENDBRANCH  30  32
ENDBRANCH  29  30
ENDBRANCH  26  29
ENDBRANCH  22  23
ENDBRANCH   1  22
TORSDOF 11
ENDMDL
MODEL 8
REMARK VINA RESULT:      -9.3     12.615     16.946
REMARK  Name = 9890801
REMARK  11 active torsions:
REMARK  status: ('A' for Active; 'I' for Inactive)
REMARK    1  A    between atoms: N_1  and  S_2
REMARK    2  A    between atoms: N_1  and  C_11
REMARK    3  A    between atoms: N_1  and  C_22
REMARK    4  A    between atoms: S_2  and  C_6
REMARK    5  A    between atoms: C_11  and  C_13
REMARK    6  A    between atoms: C_12  and  C_18
REMARK    7  A    between atoms: C_22  and  C_23
REMARK    8  A    between atoms: C_26  and  O_29
REMARK    9  A    between atoms: O_29  and  C_30
REMARK   10  A    between atoms: C_30  and  C_32
REMARK   11  A    between atoms: C_32  and  O_33
REMARK                            x       y       z     vdW  Elec       q    Type
REMARK                         _______ _______ _______ _____ _____    ______ ____
ROOT
ATOM      1  N   UNL     1      33.270  -7.623 -23.470  0.00  0.00    -0.147 NA
ENDROOT
BRANCH   1   2
ATOM      2  S   UNL     1      31.617  -7.902 -23.066  0.00  0.00    +0.065 S 
ATOM      3  O   UNL     1      31.000  -8.723 -24.092  0.00  0.00    -0.153 OA
ATOM      4  O   UNL     1      30.994  -6.647 -22.686  0.00  0.00    -0.153 OA
BRANCH   2   6
ATOM      5  N   UNL     1      32.370  -9.072 -19.277  0.00  0.00    -0.241 NA
ATOM      6  C   UNL     1      31.737  -8.893 -21.602  0.00  0.00    +0.141 C 
ATOM      7  C   UNL     1      31.321 -10.220 -21.600  0.00  0.00    +0.023 C 
ATOM      8  C   UNL     1      32.250  -8.371 -20.425  0.00  0.00    +0.119 C 
ATOM      9  C   UNL     1      31.428 -10.973 -20.435  0.00  0.00    +0.022 C 
ATOM     10  C   UNL     1      31.954 -10.357 -19.311  0.00  0.00    +0.099 C 
ENDBRANCH   2   6
ENDBRANCH   1   2
BRANCH   1  11
ATOM     11  C   UNL     1      33.789  -6.238 -23.348  0.00  0.00    +0.122 C 
BRANCH  11  13
ATOM     12  C   UNL     1      33.886  -4.176 -27.098  0.00  0.00    -0.023 C 
ATOM     13  C   UNL     1      33.823  -5.521 -24.655  0.00  0.00    -0.004 C 
ATOM     14  C   UNL     1      32.773  -4.057 -26.266  0.00  0.00    -0.005 C 
ATOM     15  C   UNL     1      34.967  -4.967 -26.710  0.00  0.00    -0.005 C 
ATOM     16  C   UNL     1      32.742  -4.729 -25.045  0.00  0.00    -0.003 C 
ATOM     17  C   UNL     1      34.936  -5.639 -25.487  0.00  0.00    -0.003 C 
BRANCH  12  18
ATOM     18  C   UNL     1      33.920  -3.437 -28.447  0.00  0.00    +0.019 C 
ATOM     19  C   UNL     1      32.629  -2.610 -28.619  0.00  0.00    +0.004 C 
ATOM     20  C   UNL     1      34.025  -4.461 -29.597  0.00  0.00    +0.004 C 
ATOM     21  C   UNL     1      35.110  -2.462 -28.594  0.00  0.00    +0.004 C 
ENDBRANCH  12  18
ENDBRANCH  11  13
ENDBRANCH   1  11
BRANCH   1  22
ATOM     22  C   UNL     1      34.268  -8.632 -23.033  0.00  0.00    +0.123 C 
BRANCH  22  23
ATOM     23  C   UNL     1      34.374  -9.782 -23.994  0.00  0.00    -0.001 C 
ATOM     24  C   UNL     1      33.770 -11.002 -23.692  0.00  0.00    +0.034 C 
ATOM     25  C   UNL     1      35.077  -9.629 -25.189  0.00  0.00    -0.003 C 
ATOM     26  C   UNL     1      33.869 -12.069 -24.584  0.00  0.00    +0.139 C 
ATOM     27  C   UNL     1      35.176 -10.697 -26.081  0.00  0.00    +0.003 C 
ATOM     28  C   UNL     1      34.572 -11.917 -25.779  0.00  0.00    +0.037 C 
BRANCH  26  29
ATOM     29  O   UNL     1      33.281 -13.261 -24.290  0.00  0.00    -0.464 OA
BRANCH  29  30
ATOM     30  C   UNL     1      33.132 -13.588 -22.908  0.00  0.00    +0.314 C 
BRANCH  30  32
ATOM     31  O   UNL     1      34.989 -15.122 -23.230  0.00  0.00    -0.246 OA
ATOM     32  C   UNL     1      34.238 -14.514 -22.483  0.00  0.00    +0.359 C 
BRANCH  32  33
ATOM     33  O   UNL     1      34.294 -14.584 -21.129  0.00  0.00    -0.478 OA
ATOM     34  H   UNL     1      35.051 -14.942 -20.708  0.00  0.00    +0.295 HD
ENDBRANCH  32  33
ENDBRANCH  30  32
ENDBRANCH  29  30
ENDBRANCH  26  29
ENDBRANCH  22  23
ENDBRANCH   1  22
TORSDOF 11
ENDMDL
MODEL 9
REMARK VINA RESULT:      -8.7      3.353      7.722
REMARK  Name = 9890801
REMARK  11 active torsions:
REMARK  status: ('A' for Active; 'I' for Inactive)
REMARK    1  A    between atoms: N_1  and  S_2
REMARK    2  A    between atoms: N_1  and  C_11
REMARK    3  A    between atoms: N_1  and  C_22
REMARK    4  A    between atoms: S_2  and  C_6
REMARK    5  A    between atoms: C_11  and  C_13
REMARK    6  A    between atoms: C_12  and  C_18
REMARK    7  A    between atoms: C_22  and  C_23
REMARK    8  A    between atoms: C_26  and  O_29
REMARK    9  A    between atoms: O_29  and  C_30
REMARK   10  A    between atoms: C_30  and  C_32
REMARK   11  A    between atoms: C_32  and  O_33
REMARK                            x       y       z     vdW  Elec       q    Type
REMARK                         _______ _______ _______ _____ _____    ______ ____
ROOT
ATOM      1  N   UNL     1      32.948 -23.506 -16.313  0.00  0.00    -0.147 NA
ENDROOT
BRANCH   1   2
ATOM      2  S   UNL     1      31.854 -23.616 -14.983  0.00  0.00    +0.065 S 
ATOM      3  O   UNL     1      31.935 -22.404 -14.189  0.00  0.00    -0.153 OA
ATOM      4  O   UNL     1      32.008 -24.905 -14.335  0.00  0.00    -0.153 OA
BRANCH   2   6
ATOM      5  N   UNL     1      28.383 -22.361 -16.618  0.00  0.00    -0.241 NA
ATOM      6  C   UNL     1      30.273 -23.615 -15.782  0.00  0.00    +0.141 C 
ATOM      7  C   UNL     1      29.677 -24.802 -16.193  0.00  0.00    +0.023 C 
ATOM      8  C   UNL     1      29.591 -22.431 -16.015  0.00  0.00    +0.119 C 
ATOM      9  C   UNL     1      28.435 -24.770 -16.818  0.00  0.00    +0.022 C 
ATOM     10  C   UNL     1      27.835 -23.534 -17.005  0.00  0.00    +0.099 C 
ENDBRANCH   2   6
ENDBRANCH   1   2
BRANCH   1  11
ATOM     11  C   UNL     1      33.845 -24.660 -16.568  0.00  0.00    +0.122 C 
BRANCH  11  13
ATOM     12  C   UNL     1      37.021 -24.946 -13.712  0.00  0.00    -0.023 C 
ATOM     13  C   UNL     1      34.951 -24.759 -15.573  0.00  0.00    -0.004 C 
ATOM     14  C   UNL     1      36.715 -26.036 -14.526  0.00  0.00    -0.005 C 
ATOM     15  C   UNL     1      36.292 -23.762 -13.827  0.00  0.00    -0.005 C 
ATOM     16  C   UNL     1      35.681 -25.943 -15.456  0.00  0.00    -0.003 C 
ATOM     17  C   UNL     1      35.257 -23.669 -14.758  0.00  0.00    -0.003 C 
BRANCH  12  18
ATOM     18  C   UNL     1      38.161 -25.050 -12.684  0.00  0.00    +0.019 C 
ATOM     19  C   UNL     1      39.485 -25.373 -13.407  0.00  0.00    +0.004 C 
ATOM     20  C   UNL     1      37.846 -26.173 -11.672  0.00  0.00    +0.004 C 
ATOM     21  C   UNL     1      38.388 -23.755 -11.872  0.00  0.00    +0.004 C 
ENDBRANCH  12  18
ENDBRANCH  11  13
ENDBRANCH   1  11
BRANCH   1  22
ATOM     22  C   UNL     1      32.446 -22.901 -17.573  0.00  0.00    +0.123 C 
BRANCH  22  23
ATOM     23  C   UNL     1      33.552 -22.314 -18.403  0.00  0.00    -0.001 C 
ATOM     24  C   UNL     1      33.249 -21.521 -19.509  0.00  0.00    +0.034 C 
ATOM     25  C   UNL     1      34.883 -22.563 -18.066  0.00  0.00    -0.003 C 
ATOM     26  C   UNL     1      34.277 -20.977 -20.280  0.00  0.00    +0.139 C 
ATOM     27  C   UNL     1      35.911 -22.019 -18.838  0.00  0.00    +0.003 C 
ATOM     28  C   UNL     1      35.608 -21.226 -19.944  0.00  0.00    +0.037 C 
BRANCH  26  29
ATOM     29  O   UNL     1      33.982 -20.205 -21.361  0.00  0.00    -0.464 OA
BRANCH  29  30
ATOM     30  C   UNL     1      34.811 -19.064 -21.589  0.00  0.00    +0.314 C 
BRANCH  30  32
ATOM     31  O   UNL     1      34.853 -19.785 -23.909  0.00  0.00    -0.246 OA
ATOM     32  C   UNL     1      35.188 -18.992 -23.042  0.00  0.00    +0.359 C 
BRANCH  32  33
ATOM     33  O   UNL     1      35.967 -17.905 -23.269  0.00  0.00    -0.478 OA
ATOM     34  H   UNL     1      35.965 -17.493 -24.110  0.00  0.00    +0.295 HD
ENDBRANCH  32  33
ENDBRANCH  30  32
ENDBRANCH  29  30
ENDBRANCH  26  29
ENDBRANCH  22  23
ENDBRANCH   1  22
TORSDOF 11
ENDMDL
