MODEL 1
REMARK VINA RESULT:     -11.6      0.000      0.000
REMARK  Name = 10224714
REMARK  8 active torsions:
REMARK  status: ('A' for Active; 'I' for Inactive)
REMARK    1  A    between atoms: N_1  and  C_12
REMARK    2  A    between atoms: N_2  and  CA_30
REMARK    3  A    between atoms: N_15  and  C_17
REMARK    4  A    between atoms: C_17  and  C_18
REMARK    5  A    between atoms: C_21  and  C_25
REMARK    6  A    between atoms: CA_30  and  C_31
REMARK    7  A    between atoms: CA_30  and  C_33
REMARK    8  A    between atoms: C_33  and  O_34
REMARK                            x       y       z     vdW  Elec       q    Type
REMARK                         _______ _______ _______ _____ _____    ______ ____
ROOT
ATOM      1  N   UNL     1      31.437 -24.360 -15.064  0.00  0.00    -0.262 N 
ATOM      2  N   UNL     1      36.124 -24.368 -14.289  0.00  0.00    -0.258 N 
ATOM      3  N   UNL     1      33.794 -24.460 -14.485  0.00  0.00    -0.311 NA
ATOM      4  N   UNL     1      31.573 -23.359 -17.051  0.00  0.00    -0.240 NA
ATOM      5  N   UNL     1      35.178 -23.474 -16.237  0.00  0.00    -0.311 NA
ATOM      6  C   UNL     1      32.767 -24.142 -15.287  0.00  0.00    +0.220 C 
ATOM      7  C   UNL     1      32.829 -23.520 -16.523  0.00  0.00    +0.167 C 
ATOM      8  C   UNL     1      34.094 -23.183 -16.995  0.00  0.00    +0.215 C 
ATOM      9  C   UNL     1      34.991 -24.091 -15.029  0.00  0.00    +0.202 C 
ATOM     10  C   UNL     1      30.761 -23.873 -16.150  0.00  0.00    +0.222 C 
ATOM     11  H   UNL     1      36.998 -24.113 -14.662  0.00  0.00    +0.160 HD
ATOM     12  N   UNL     1      34.252 -22.548 -18.239  0.00  0.00    -0.302 N 
ATOM     13  H   UNL     1      33.446 -22.349 -18.770  0.00  0.00    +0.150 HD
ENDROOT
BRANCH   1  14
ATOM     14  C   UNL     1      30.846 -24.986 -13.905  0.00  0.00    +0.077 C 
ATOM     15  C   UNL     1      30.657 -23.996 -12.754  0.00  0.00    +0.022 C 
ATOM     16  C   UNL     1      29.542 -25.708 -14.247  0.00  0.00    +0.022 C 
ENDBRANCH   1  14
BRANCH  12  17
ATOM     17  C   UNL     1      35.530 -22.180 -18.772  0.00  0.00    +0.116 C 
BRANCH  17  18
ATOM     18  C   UNL     1      35.369 -21.168 -19.874  0.00  0.00    -0.003 C 
ATOM     19  C   UNL     1      34.110 -20.932 -20.409  0.00  0.00    -0.003 C 
ATOM     20  C   UNL     1      36.483 -20.484 -20.342  0.00  0.00    -0.003 C 
ATOM     21  C   UNL     1      35.074 -19.301 -21.908  0.00  0.00    +0.018 C 
ATOM     22  C   UNL     1      33.962 -19.995 -21.431  0.00  0.00    +0.001 C 
ATOM     23  C   UNL     1      36.335 -19.546 -21.364  0.00  0.00    +0.001 C 
BRANCH  21  25
ATOM     24  N   UNL     1      35.234 -17.061 -22.625  0.00  0.00    -0.244 NA
ATOM     25  C   UNL     1      34.919 -18.329 -22.968  0.00  0.00    +0.081 C 
ATOM     26  C   UNL     1      34.478 -18.711 -24.223  0.00  0.00    +0.019 C 
ATOM     27  C   UNL     1      34.352 -17.724 -25.194  0.00  0.00    +0.003 C 
ATOM     28  C   UNL     1      35.099 -16.129 -23.595  0.00  0.00    +0.099 C 
ATOM     29  C   UNL     1      34.667 -16.405 -24.883  0.00  0.00    +0.021 C 
ENDBRANCH  21  25
ENDBRANCH  17  18
ENDBRANCH  12  17
BRANCH   2  30
ATOM     30  CA  UNL     1      36.094 -25.014 -12.990  0.00  0.00    +0.109 C 
BRANCH  30  31
ATOM     31  C   UNL     1      36.277 -23.968 -11.883  0.00  0.00    +0.023 C 
ATOM     32  C   UNL     1      37.570 -23.177 -12.029  0.00  0.00    +0.002 C 
ENDBRANCH  30  31
BRANCH  30  33
ATOM     33  C   UNL     1      37.204 -26.063 -12.937  0.00  0.00    +0.157 C 
BRANCH  33  34
ATOM     34  O   UNL     1      37.199 -26.692 -11.660  0.00  0.00    -0.380 OA
ATOM     35  H   UNL     1      37.133 -26.017 -10.967  0.00  0.00    +0.211 HD
ENDBRANCH  33  34
ENDBRANCH  30  33
ENDBRANCH   2  30
TORSDOF 8
ENDMDL
MODEL 2
REMARK VINA RESULT:     -10.4      1.530      4.151
REMARK  Name = 10224714
REMARK  8 active torsions:
REMARK  status: ('A' for Active; 'I' for Inactive)
REMARK    1  A    between atoms: N_1  and  C_12
REMARK    2  A    between atoms: N_2  and  CA_30
REMARK    3  A    between atoms: N_15  and  C_17
REMARK    4  A    between atoms: C_17  and  C_18
REMARK    5  A    between atoms: C_21  and  C_25
REMARK    6  A    between atoms: CA_30  and  C_31
REMARK    7  A    between atoms: CA_30  and  C_33
REMARK    8  A    between atoms: C_33  and  O_34
REMARK                            x       y       z     vdW  Elec       q    Type
REMARK                         _______ _______ _______ _____ _____    ______ ____
ROOT
ATOM      1  N   UNL     1      36.442 -23.544 -13.742  0.00  0.00    -0.262 N 
ATOM      2  N   UNL     1      31.887 -24.225 -14.906  0.00  0.00    -0.258 N 
ATOM      3  N   UNL     1      34.079 -23.940 -14.136  0.00  0.00    -0.311 NA
ATOM      4  N   UNL     1      37.085 -22.982 -15.802  0.00  0.00    -0.240 NA
ATOM      5  N   UNL     1      33.497 -23.569 -16.477  0.00  0.00    -0.311 NA
ATOM      6  C   UNL     1      35.321 -23.609 -14.519  0.00  0.00    +0.220 C 
ATOM      7  C   UNL     1      35.741 -23.258 -15.792  0.00  0.00    +0.167 C 
ATOM      8  C   UNL     1      34.774 -23.245 -16.792  0.00  0.00    +0.215 C 
ATOM      9  C   UNL     1      33.201 -23.899 -15.182  0.00  0.00    +0.202 C 
ATOM     10  C   UNL     1      37.475 -23.164 -14.557  0.00  0.00    +0.222 C 
ATOM     11  H   UNL     1      31.236 -24.201 -15.645  0.00  0.00    +0.160 HD
ATOM     12  N   UNL     1      35.111 -22.902 -18.113  0.00  0.00    -0.302 N 
ATOM     13  H   UNL     1      36.047 -22.670 -18.314  0.00  0.00    +0.150 HD
ENDROOT
BRANCH   1  14
ATOM     14  C   UNL     1      36.532 -23.820 -12.329  0.00  0.00    +0.077 C 
ATOM     15  C   UNL     1      36.747 -25.309 -12.049  0.00  0.00    +0.022 C 
ATOM     16  C   UNL     1      37.594 -22.959 -11.643  0.00  0.00    +0.022 C 
ENDBRANCH   1  14
BRANCH  12  17
ATOM     17  C   UNL     1      34.155 -22.872 -19.180  0.00  0.00    +0.116 C 
BRANCH  17  18
ATOM     18  C   UNL     1      34.328 -21.627 -20.007  0.00  0.00    -0.003 C 
ATOM     19  C   UNL     1      33.208 -20.974 -20.504  0.00  0.00    -0.003 C 
ATOM     20  C   UNL     1      35.605 -21.148 -20.263  0.00  0.00    -0.003 C 
ATOM     21  C   UNL     1      34.647 -19.330 -21.534  0.00  0.00    +0.018 C 
ATOM     22  C   UNL     1      33.368 -19.821 -21.271  0.00  0.00    +0.001 C 
ATOM     23  C   UNL     1      35.766 -19.993 -21.031  0.00  0.00    +0.001 C 
BRANCH  21  25
ATOM     24  N   UNL     1      35.018 -17.003 -21.619  0.00  0.00    -0.244 NA
ATOM     25  C   UNL     1      34.812 -18.133 -22.329  0.00  0.00    +0.081 C 
ATOM     26  C   UNL     1      34.755 -18.185 -23.712  0.00  0.00    +0.019 C 
ATOM     27  C   UNL     1      34.923 -16.997 -24.413  0.00  0.00    +0.003 C 
ATOM     28  C   UNL     1      35.176 -15.867 -22.334  0.00  0.00    +0.099 C 
ATOM     29  C   UNL     1      35.138 -15.811 -23.719  0.00  0.00    +0.021 C 
ENDBRANCH  21  25
ENDBRANCH  17  18
ENDBRANCH  12  17
BRANCH   2  30
ATOM     30  CA  UNL     1      31.415 -24.600 -13.587  0.00  0.00    +0.109 C 
BRANCH  30  31
ATOM     31  C   UNL     1      30.214 -25.546 -13.713  0.00  0.00    +0.023 C 
ATOM     32  C   UNL     1      29.339 -25.228 -14.918  0.00  0.00    +0.002 C 
ENDBRANCH  30  31
BRANCH  30  33
ATOM     33  C   UNL     1      31.032 -23.332 -12.823  0.00  0.00    +0.157 C 
BRANCH  33  34
ATOM     34  O   UNL     1      32.199 -22.765 -12.237  0.00  0.00    -0.380 OA
ATOM     35  H   UNL     1      32.081 -22.706 -11.275  0.00  0.00    +0.211 HD
ENDBRANCH  33  34
ENDBRANCH  30  33
ENDBRANCH   2  30
TORSDOF 8
ENDMDL
MODEL 3
REMARK VINA RESULT:     -10.3      1.278      1.639
REMARK  Name = 10224714
REMARK  8 active torsions:
REMARK  status: ('A' for Active; 'I' for Inactive)
REMARK    1  A    between atoms: N_1  and  C_12
REMARK    2  A    between atoms: N_2  and  CA_30
REMARK    3  A    between atoms: N_15  and  C_17
REMARK    4  A    between atoms: C_17  and  C_18
REMARK    5  A    between atoms: C_21  and  C_25
REMARK    6  A    between atoms: CA_30  and  C_31
REMARK    7  A    between atoms: CA_30  and  C_33
REMARK    8  A    between atoms: C_33  and  O_34
REMARK                            x       y       z     vdW  Elec       q    Type
REMARK                         _______ _______ _______ _____ _____    ______ ____
ROOT
ATOM      1  N   UNL     1      32.340 -23.847 -15.709  0.00  0.00    -0.262 N 
ATOM      2  N   UNL     1      37.089 -23.881 -15.584  0.00  0.00    -0.258 N 
ATOM      3  N   UNL     1      34.753 -23.968 -15.463  0.00  0.00    -0.311 NA
ATOM      4  N   UNL     1      32.207 -22.755 -17.648  0.00  0.00    -0.240 NA
ATOM      5  N   UNL     1      35.890 -22.901 -17.342  0.00  0.00    -0.311 NA
ATOM      6  C   UNL     1      33.628 -23.616 -16.101  0.00  0.00    +0.220 C 
ATOM      7  C   UNL     1      33.523 -22.938 -17.305  0.00  0.00    +0.167 C 
ATOM      8  C   UNL     1      34.713 -22.577 -17.929  0.00  0.00    +0.215 C 
ATOM      9  C   UNL     1      35.867 -23.573 -16.149  0.00  0.00    +0.202 C 
ATOM     10  C   UNL     1      31.524 -23.311 -16.669  0.00  0.00    +0.222 C 
ATOM     11  H   UNL     1      37.905 -23.608 -16.062  0.00  0.00    +0.160 HD
ATOM     12  N   UNL     1      34.702 -21.886 -19.153  0.00  0.00    -0.302 N 
ATOM     13  H   UNL     1      33.832 -21.664 -19.559  0.00  0.00    +0.150 HD
ENDROOT
BRANCH   1  14
ATOM     14  C   UNL     1      31.911 -24.526 -14.510  0.00  0.00    +0.077 C 
ATOM     15  C   UNL     1      31.951 -23.609 -13.286  0.00  0.00    +0.022 C 
ATOM     16  C   UNL     1      30.537 -25.176 -14.681  0.00  0.00    +0.022 C 
ENDBRANCH   1  14
BRANCH  12  17
ATOM     17  C   UNL     1      35.896 -21.491 -19.839  0.00  0.00    +0.116 C 
BRANCH  17  18
ATOM     18  C   UNL     1      35.604 -20.379 -20.809  0.00  0.00    -0.003 C 
ATOM     19  C   UNL     1      36.384 -19.231 -20.791  0.00  0.00    -0.003 C 
ATOM     20  C   UNL     1      34.556 -20.515 -21.710  0.00  0.00    -0.003 C 
ATOM     21  C   UNL     1      35.062 -18.327 -22.600  0.00  0.00    +0.018 C 
ATOM     22  C   UNL     1      36.112 -18.200 -21.690  0.00  0.00    +0.001 C 
ATOM     23  C   UNL     1      34.284 -19.484 -22.610  0.00  0.00    +0.001 C 
BRANCH  21  25
ATOM     24  N   UNL     1      34.831 -16.015 -23.005  0.00  0.00    -0.244 NA
ATOM     25  C   UNL     1      34.781 -17.257 -23.533  0.00  0.00    +0.081 C 
ATOM     26  C   UNL     1      34.485 -17.531 -24.858  0.00  0.00    +0.019 C 
ATOM     27  C   UNL     1      34.225 -16.455 -25.699  0.00  0.00    +0.003 C 
ATOM     28  C   UNL     1      34.573 -14.995 -23.853  0.00  0.00    +0.099 C 
ATOM     29  C   UNL     1      34.267 -15.159 -25.195  0.00  0.00    +0.021 C 
ENDBRANCH  21  25
ENDBRANCH  17  18
ENDBRANCH  12  17
BRANCH   2  30
ATOM     30  CA  UNL     1      37.234 -24.586 -14.324  0.00  0.00    +0.109 C 
BRANCH  30  31
ATOM     31  C   UNL     1      37.395 -23.579 -13.179  0.00  0.00    +0.023 C 
ATOM     32  C   UNL     1      37.850 -24.232 -11.880  0.00  0.00    +0.002 C 
ENDBRANCH  30  31
BRANCH  30  33
ATOM     33  C   UNL     1      38.450 -25.508 -14.415  0.00  0.00    +0.157 C 
BRANCH  33  34
ATOM     34  O   UNL     1      38.030 -26.860 -14.269  0.00  0.00    -0.380 OA
ATOM     35  H   UNL     1      38.665 -27.445 -14.711  0.00  0.00    +0.211 HD
ENDBRANCH  33  34
ENDBRANCH  30  33
ENDBRANCH   2  30
TORSDOF 8
ENDMDL
MODEL 4
REMARK VINA RESULT:      -9.4      2.184      4.581
REMARK  Name = 10224714
REMARK  8 active torsions:
REMARK  status: ('A' for Active; 'I' for Inactive)
REMARK    1  A    between atoms: N_1  and  C_12
REMARK    2  A    between atoms: N_2  and  CA_30
REMARK    3  A    between atoms: N_15  and  C_17
REMARK    4  A    between atoms: C_17  and  C_18
REMARK    5  A    between atoms: C_21  and  C_25
REMARK    6  A    between atoms: CA_30  and  C_31
REMARK    7  A    between atoms: CA_30  and  C_33
REMARK    8  A    between atoms: C_33  and  O_34
REMARK                            x       y       z     vdW  Elec       q    Type
REMARK                         _______ _______ _______ _____ _____    ______ ____
ROOT
ATOM      1  N   UNL     1      36.078 -23.295 -13.945  0.00  0.00    -0.262 N 
ATOM      2  N   UNL     1      31.839 -23.617 -16.065  0.00  0.00    -0.258 N 
ATOM      3  N   UNL     1      33.829 -23.495 -14.839  0.00  0.00    -0.311 NA
ATOM      4  N   UNL     1      37.202 -22.885 -15.826  0.00  0.00    -0.240 NA
ATOM      5  N   UNL     1      33.806 -23.177 -17.259  0.00  0.00    -0.311 NA
ATOM      6  C   UNL     1      35.150 -23.294 -14.948  0.00  0.00    +0.220 C 
ATOM      7  C   UNL     1      35.868 -23.038 -16.105  0.00  0.00    +0.167 C 
ATOM      8  C   UNL     1      35.146 -22.983 -17.293  0.00  0.00    +0.215 C 
ATOM      9  C   UNL     1      33.207 -23.423 -16.053  0.00  0.00    +0.202 C 
ATOM     10  C   UNL     1      37.295 -23.045 -14.522  0.00  0.00    +0.222 C 
ATOM     11  H   UNL     1      31.369 -23.568 -16.928  0.00  0.00    +0.160 HD
ATOM     12  N   UNL     1      35.792 -22.730 -18.516  0.00  0.00    -0.302 N 
ATOM     13  H   UNL     1      36.767 -22.592 -18.511  0.00  0.00    +0.150 HD
ENDROOT
BRANCH   1  14
ATOM     14  C   UNL     1      35.833 -23.516 -12.541  0.00  0.00    +0.077 C 
ATOM     15  C   UNL     1      35.389 -24.953 -12.256  0.00  0.00    +0.022 C 
ATOM     16  C   UNL     1      37.032 -23.117 -11.680  0.00  0.00    +0.022 C 
ENDBRANCH   1  14
BRANCH  12  17
ATOM     17  C   UNL     1      35.098 -22.662 -19.767  0.00  0.00    +0.116 C 
BRANCH  17  18
ATOM     18  C   UNL     1      35.055 -21.245 -20.270  0.00  0.00    -0.003 C 
ATOM     19  C   UNL     1      36.239 -20.534 -20.415  0.00  0.00    -0.003 C 
ATOM     20  C   UNL     1      33.832 -20.666 -20.581  0.00  0.00    -0.003 C 
ATOM     21  C   UNL     1      34.976 -18.628 -21.197  0.00  0.00    +0.018 C 
ATOM     22  C   UNL     1      36.199 -19.219 -20.880  0.00  0.00    +0.001 C 
ATOM     23  C   UNL     1      33.792 -19.351 -21.047  0.00  0.00    +0.001 C 
BRANCH  21  25
ATOM     24  N   UNL     1      35.018 -17.136 -23.022  0.00  0.00    -0.244 NA
ATOM     25  C   UNL     1      34.935 -17.265 -21.680  0.00  0.00    +0.081 C 
ATOM     26  C   UNL     1      34.821 -16.203 -20.799  0.00  0.00    +0.019 C 
ATOM     27  C   UNL     1      34.787 -14.920 -21.333  0.00  0.00    +0.003 C 
ATOM     28  C   UNL     1      34.983 -15.873 -23.503  0.00  0.00    +0.099 C 
ATOM     29  C   UNL     1      34.870 -14.743 -22.710  0.00  0.00    +0.021 C 
ENDBRANCH  21  25
ENDBRANCH  17  18
ENDBRANCH  12  17
BRANCH   2  30
ATOM     30  CA  UNL     1      31.058 -23.890 -14.873  0.00  0.00    +0.109 C 
BRANCH  30  31
ATOM     31  C   UNL     1      30.797 -25.397 -14.754  0.00  0.00    +0.023 C 
ATOM     32  C   UNL     1      29.317 -25.729 -14.621  0.00  0.00    +0.002 C 
ENDBRANCH  30  31
BRANCH  30  33
ATOM     33  C   UNL     1      29.744 -23.114 -14.958  0.00  0.00    +0.157 C 
BRANCH  33  34
ATOM     34  O   UNL     1      29.480 -22.781 -16.317  0.00  0.00    -0.380 OA
ATOM     35  H   UNL     1      30.317 -22.722 -16.803  0.00  0.00    +0.211 HD
ENDBRANCH  33  34
ENDBRANCH  30  33
ENDBRANCH   2  30
TORSDOF 8
ENDMDL
