MODEL 1
REMARK VINA RESULT:     -11.5      0.000      0.000
REMARK  Name = 6852168
REMARK  5 active torsions:
REMARK  status: ('A' for Active; 'I' for Inactive)
REMARK    1  A    between atoms: N_1  and  C_5
REMARK    2  A    between atoms: N_1  and  S_19
REMARK    3  A    between atoms: N_4  and  C_9
REMARK    4  A    between atoms: C_9  and  C_14
REMARK    5  A    between atoms: S_19  and  C_23
REMARK                            x       y       z     vdW  Elec       q    Type
REMARK                         _______ _______ _______ _____ _____    ______ ____
ROOT
ATOM      1  N   UNL     1      34.750 -17.379 -22.579  0.00  0.00    -0.172 NA
ATOM      2  H   UNL     1      34.719 -17.191 -21.577  0.00  0.00    +0.149 HD
ENDROOT
BRANCH   1   5
ATOM      3  O   UNL     1      34.958 -14.588 -21.405  0.00  0.00    -0.273 OA
ATOM      4  N   UNL     1      33.616 -14.515 -23.337  0.00  0.00    -0.272 N 
ATOM      5  C   UNL     1      35.270 -16.160 -23.223  0.00  0.00    +0.153 C 
ATOM      6  C   UNL     1      34.774 -16.037 -24.660  0.00  0.00    +0.048 C 
ATOM      7  C   UNL     1      33.453 -15.300 -24.538  0.00  0.00    +0.096 C 
ATOM      8  C   UNL     1      34.638 -14.988 -22.515  0.00  0.00    +0.242 C 
BRANCH   4   9
ATOM      9  C   UNL     1      32.689 -13.459 -22.993  0.00  0.00    +0.152 C 
ATOM     10  C   UNL     1      32.418 -13.392 -21.508  0.00  0.00    +0.031 C 
BRANCH   9  14
ATOM     11  O   UNL     1      31.556  -8.565 -22.479  0.00  0.00    -0.350 OA
ATOM     12  O   UNL     1      34.274 -12.274 -24.299  0.00  0.00    -0.273 OA
ATOM     13  N   UNL     1      32.899 -11.001 -22.929  0.00  0.00    -0.273 N 
ATOM     14  C   UNL     1      33.364 -12.197 -23.469  0.00  0.00    +0.244 C 
ATOM     15  C   UNL     1      31.912 -10.882 -21.850  0.00  0.00    +0.126 C 
ATOM     16  C   UNL     1      33.496  -9.730 -23.339  0.00  0.00    +0.126 C 
ATOM     17  C   UNL     1      30.894  -9.798 -22.185  0.00  0.00    +0.164 C 
ATOM     18  C   UNL     1      32.411  -8.700 -23.617  0.00  0.00    +0.164 C 
ENDBRANCH   9  14
ENDBRANCH   4   9
ENDBRANCH   1   5
BRANCH   1  19
ATOM     19  S   UNL     1      35.564 -18.862 -22.775  0.00  0.00    +0.061 S 
ATOM     20  O   UNL     1      36.959 -18.693 -22.413  0.00  0.00    -0.153 OA
ATOM     21  O   UNL     1      35.209 -19.431 -24.061  0.00  0.00    -0.153 OA
BRANCH  19  23
ATOM     22 CL   UNL     1      33.024 -23.917 -16.478  0.00  0.00    -0.082 Cl
ATOM     23  C   UNL     1      34.796 -19.863 -21.538  0.00  0.00    +0.122 C 
ATOM     24  C   UNL     1      35.590 -20.552 -20.638  0.00  0.00    +0.020 C 
ATOM     25  C   UNL     1      33.418 -19.940 -21.495  0.00  0.00    +0.020 C 
ATOM     26  C   UNL     1      34.994 -21.352 -19.649  0.00  0.00    +0.001 C 
ATOM     27  C   UNL     1      33.583 -21.442 -19.588  0.00  0.00    +0.001 C 
ATOM     28  C   UNL     1      32.809 -20.729 -20.519  0.00  0.00    +0.001 C 
ATOM     29  C   UNL     1      35.768 -22.063 -18.718  0.00  0.00    +0.001 C 
ATOM     30  C   UNL     1      32.988 -22.242 -18.600  0.00  0.00    +0.011 C 
ATOM     31  C   UNL     1      35.160 -22.853 -17.742  0.00  0.00    +0.011 C 
ATOM     32  C   UNL     1      33.772 -22.942 -17.683  0.00  0.00    +0.058 C 
ENDBRANCH  19  23
ENDBRANCH   1  19
TORSDOF 5
ENDMDL
MODEL 2
REMARK VINA RESULT:     -11.2      7.191     12.128
REMARK  Name = 6852168
REMARK  5 active torsions:
REMARK  status: ('A' for Active; 'I' for Inactive)
REMARK    1  A    between atoms: N_1  and  C_5
REMARK    2  A    between atoms: N_1  and  S_19
REMARK    3  A    between atoms: N_4  and  C_9
REMARK    4  A    between atoms: C_9  and  C_14
REMARK    5  A    between atoms: S_19  and  C_23
REMARK                            x       y       z     vdW  Elec       q    Type
REMARK                         _______ _______ _______ _____ _____    ______ ____
ROOT
ATOM      1  N   UNL     1      35.322 -23.080 -17.399  0.00  0.00    -0.172 NA
ATOM      2  H   UNL     1      35.778 -22.234 -17.741  0.00  0.00    +0.149 HD
ENDROOT
BRANCH   1   5
ATOM      3  O   UNL     1      37.666 -23.639 -15.554  0.00  0.00    -0.273 OA
ATOM      4  N   UNL     1      35.897 -25.094 -15.017  0.00  0.00    -0.272 N 
ATOM      5  C   UNL     1      35.355 -23.013 -15.927  0.00  0.00    +0.153 C 
ATOM      6  C   UNL     1      34.107 -23.640 -15.315  0.00  0.00    +0.048 C 
ATOM      7  C   UNL     1      34.460 -25.109 -15.166  0.00  0.00    +0.096 C 
ATOM      8  C   UNL     1      36.477 -23.913 -15.474  0.00  0.00    +0.242 C 
BRANCH   4   9
ATOM      9  C   UNL     1      36.623 -26.268 -14.583  0.00  0.00    +0.152 C 
ATOM     10  C   UNL     1      37.052 -27.140 -15.741  0.00  0.00    +0.031 C 
BRANCH   9  14
ATOM     11  O   UNL     1      37.109 -23.131 -10.657  0.00  0.00    -0.350 OA
ATOM     12  O   UNL     1      38.947 -25.861 -14.348  0.00  0.00    -0.273 OA
ATOM     13  N   UNL     1      37.577 -25.066 -12.651  0.00  0.00    -0.273 N 
ATOM     14  C   UNL     1      37.824 -25.718 -13.856  0.00  0.00    +0.244 C 
ATOM     15  C   UNL     1      36.277 -24.989 -11.977  0.00  0.00    +0.126 C 
ATOM     16  C   UNL     1      38.686 -24.498 -11.883  0.00  0.00    +0.126 C 
ATOM     17  C   UNL     1      36.025 -23.571 -11.478  0.00  0.00    +0.164 C 
ATOM     18  C   UNL     1      38.333 -23.101 -11.395  0.00  0.00    +0.164 C 
ENDBRANCH   9  14
ENDBRANCH   4   9
ENDBRANCH   1   5
BRANCH   1  19
ATOM     19  S   UNL     1      33.832 -23.199 -18.215  0.00  0.00    +0.061 S 
ATOM     20  O   UNL     1      32.757 -22.865 -17.300  0.00  0.00    -0.153 OA
ATOM     21  O   UNL     1      33.797 -24.445 -18.957  0.00  0.00    -0.153 OA
BRANCH  19  23
ATOM     22 CL   UNL     1      35.671 -17.000 -23.680  0.00  0.00    -0.082 Cl
ATOM     23  C   UNL     1      33.964 -21.896 -19.401  0.00  0.00    +0.122 C 
ATOM     24  C   UNL     1      35.213 -21.378 -19.700  0.00  0.00    +0.020 C 
ATOM     25  C   UNL     1      32.818 -21.417 -20.006  0.00  0.00    +0.020 C 
ATOM     26  C   UNL     1      35.334 -20.342 -20.640  0.00  0.00    +0.001 C 
ATOM     27  C   UNL     1      34.171 -19.840 -21.271  0.00  0.00    +0.001 C 
ATOM     28  C   UNL     1      32.920 -20.389 -20.943  0.00  0.00    +0.001 C 
ATOM     29  C   UNL     1      36.584 -19.793 -20.969  0.00  0.00    +0.001 C 
ATOM     30  C   UNL     1      34.292 -18.803 -22.211  0.00  0.00    +0.011 C 
ATOM     31  C   UNL     1      36.686 -18.764 -21.905  0.00  0.00    +0.011 C 
ATOM     32  C   UNL     1      35.542 -18.270 -22.525  0.00  0.00    +0.058 C 
ENDBRANCH  19  23
ENDBRANCH   1  19
TORSDOF 5
ENDMDL
MODEL 3
REMARK VINA RESULT:     -10.9      3.827      6.027
REMARK  Name = 6852168
REMARK  5 active torsions:
REMARK  status: ('A' for Active; 'I' for Inactive)
REMARK    1  A    between atoms: N_1  and  C_5
REMARK    2  A    between atoms: N_1  and  S_19
REMARK    3  A    between atoms: N_4  and  C_9
REMARK    4  A    between atoms: C_9  and  C_14
REMARK    5  A    between atoms: S_19  and  C_23
REMARK                            x       y       z     vdW  Elec       q    Type
REMARK                         _______ _______ _______ _____ _____    ______ ____
ROOT
ATOM      1  N   UNL     1      33.107 -11.727 -22.314  0.00  0.00    -0.172 NA
ATOM      2  H   UNL     1      33.791 -10.973 -22.375  0.00  0.00    +0.149 HD
ENDROOT
BRANCH   1   5
ATOM      3  O   UNL     1      31.998  -9.365 -23.864  0.00  0.00    -0.273 OA
ATOM      4  N   UNL     1      32.006  -8.847 -21.568  0.00  0.00    -0.272 N 
ATOM      5  C   UNL     1      31.785 -11.091 -22.176  0.00  0.00    +0.153 C 
ATOM      6  C   UNL     1      31.401 -10.922 -20.710  0.00  0.00    +0.048 C 
ATOM      7  C   UNL     1      31.987  -9.577 -20.322  0.00  0.00    +0.096 C 
ATOM      8  C   UNL     1      31.925  -9.678 -22.684  0.00  0.00    +0.242 C 
BRANCH   4   9
ATOM      9  C   UNL     1      32.246  -7.421 -21.605  0.00  0.00    +0.152 C 
ATOM     10  C   UNL     1      32.419  -6.830 -20.225  0.00  0.00    +0.031 C 
BRANCH   9  14
ATOM     11  O   UNL     1      33.321  -4.965 -25.883  0.00  0.00    -0.350 OA
ATOM     12  O   UNL     1      34.479  -8.000 -22.154  0.00  0.00    -0.273 OA
ATOM     13  N   UNL     1      33.504  -6.312 -23.416  0.00  0.00    -0.273 N 
ATOM     14  C   UNL     1      33.513  -7.275 -22.410  0.00  0.00    +0.244 C 
ATOM     15  C   UNL     1      32.424  -5.351 -23.662  0.00  0.00    +0.126 C 
ATOM     16  C   UNL     1      34.691  -6.108 -24.247  0.00  0.00    +0.126 C 
ATOM     17  C   UNL     1      32.128  -5.263 -25.154  0.00  0.00    +0.164 C 
ATOM     18  C   UNL     1      34.298  -5.995 -25.713  0.00  0.00    +0.164 C 
ENDBRANCH   9  14
ENDBRANCH   4   9
ENDBRANCH   1   5
BRANCH   1  19
ATOM     19  S   UNL     1      33.418 -12.777 -23.618  0.00  0.00    +0.061 S 
ATOM     20  O   UNL     1      34.474 -12.219 -24.440  0.00  0.00    -0.153 OA
ATOM     21  O   UNL     1      32.157 -13.172 -24.219  0.00  0.00    -0.153 OA
BRANCH  19  23
ATOM     22 CL   UNL     1      36.596 -20.091 -20.777  0.00  0.00    -0.082 Cl
ATOM     23  C   UNL     1      34.063 -14.199 -22.792  0.00  0.00    +0.122 C 
ATOM     24  C   UNL     1      34.428 -15.307 -23.538  0.00  0.00    +0.020 C 
ATOM     25  C   UNL     1      34.189 -14.180 -21.417  0.00  0.00    +0.020 C 
ATOM     26  C   UNL     1      34.942 -16.445 -22.896  0.00  0.00    +0.001 C 
ATOM     27  C   UNL     1      35.080 -16.443 -21.488  0.00  0.00    +0.001 C 
ATOM     28  C   UNL     1      34.699 -15.301 -20.762  0.00  0.00    +0.001 C 
ATOM     29  C   UNL     1      35.324 -17.585 -23.621  0.00  0.00    +0.001 C 
ATOM     30  C   UNL     1      35.594 -17.581 -20.846  0.00  0.00    +0.011 C 
ATOM     31  C   UNL     1      35.834 -18.708 -22.967  0.00  0.00    +0.011 C 
ATOM     32  C   UNL     1      35.968 -18.705 -21.582  0.00  0.00    +0.058 C 
ENDBRANCH  19  23
ENDBRANCH   1  19
TORSDOF 5
ENDMDL
MODEL 4
REMARK VINA RESULT:     -10.5      3.838      6.588
REMARK  Name = 6852168
REMARK  5 active torsions:
REMARK  status: ('A' for Active; 'I' for Inactive)
REMARK    1  A    between atoms: N_1  and  C_5
REMARK    2  A    between atoms: N_1  and  S_19
REMARK    3  A    between atoms: N_4  and  C_9
REMARK    4  A    between atoms: C_9  and  C_14
REMARK    5  A    between atoms: S_19  and  C_23
REMARK                            x       y       z     vdW  Elec       q    Type
REMARK                         _______ _______ _______ _____ _____    ______ ____
ROOT
ATOM      1  N   UNL     1      33.700 -21.750 -18.740  0.00  0.00    -0.172 NA
ATOM      2  H   UNL     1      34.622 -21.455 -18.418  0.00  0.00    +0.149 HD
ENDROOT
BRANCH   1   5
ATOM      3  O   UNL     1      36.135 -21.479 -20.531  0.00  0.00    -0.273 OA
ATOM      4  N   UNL     1      34.609 -19.761 -21.039  0.00  0.00    -0.272 N 
ATOM      5  C   UNL     1      33.750 -21.770 -20.212  0.00  0.00    +0.153 C 
ATOM      6  C   UNL     1      32.620 -20.945 -20.817  0.00  0.00    +0.048 C 
ATOM      7  C   UNL     1      33.187 -19.541 -20.908  0.00  0.00    +0.096 C 
ATOM      8  C   UNL     1      35.001 -21.030 -20.617  0.00  0.00    +0.242 C 
BRANCH   4   9
ATOM      9  C   UNL     1      35.507 -18.693 -21.419  0.00  0.00    +0.152 C 
ATOM     10  C   UNL     1      36.956 -19.045 -21.175  0.00  0.00    +0.031 C 
BRANCH   9  14
ATOM     11  O   UNL     1      34.031 -14.689 -24.118  0.00  0.00    -0.350 OA
ATOM     12  O   UNL     1      35.183 -19.474 -23.634  0.00  0.00    -0.273 OA
ATOM     13  N   UNL     1      35.088 -17.176 -23.320  0.00  0.00    -0.273 N 
ATOM     14  C   UNL     1      35.247 -18.491 -22.891  0.00  0.00    +0.244 C 
ATOM     15  C   UNL     1      35.284 -15.981 -22.491  0.00  0.00    +0.126 C 
ATOM     16  C   UNL     1      34.829 -16.891 -24.731  0.00  0.00    +0.126 C 
ATOM     17  C   UNL     1      34.153 -14.987 -22.725  0.00  0.00    +0.164 C 
ATOM     18  C   UNL     1      33.715 -15.864 -24.869  0.00  0.00    +0.164 C 
ENDBRANCH   9  14
ENDBRANCH   4   9
ENDBRANCH   1   5
BRANCH   1  19
ATOM     19  S   UNL     1      33.310 -23.166 -17.879  0.00  0.00    +0.061 S 
ATOM     20  O   UNL     1      33.484 -24.316 -18.746  0.00  0.00    -0.153 OA
ATOM     21  O   UNL     1      32.056 -22.965 -17.178  0.00  0.00    -0.153 OA
BRANCH  19  23
ATOM     22 CL   UNL     1      38.586 -23.925 -11.301  0.00  0.00    -0.082 Cl
ATOM     23  C   UNL     1      34.584 -23.208 -16.655  0.00  0.00    +0.122 C 
ATOM     24  C   UNL     1      34.318 -23.777 -15.421  0.00  0.00    +0.020 C 
ATOM     25  C   UNL     1      35.822 -22.671 -16.952  0.00  0.00    +0.020 C 
ATOM     26  C   UNL     1      35.320 -23.818 -14.438  0.00  0.00    +0.001 C 
ATOM     27  C   UNL     1      36.594 -23.274 -14.725  0.00  0.00    +0.001 C 
ATOM     28  C   UNL     1      36.829 -22.704 -15.988  0.00  0.00    +0.001 C 
ATOM     29  C   UNL     1      35.085 -24.388 -13.176  0.00  0.00    +0.001 C 
ATOM     30  C   UNL     1      37.596 -23.314 -13.742  0.00  0.00    +0.011 C 
ATOM     31  C   UNL     1      36.092 -24.420 -12.211  0.00  0.00    +0.011 C 
ATOM     32  C   UNL     1      37.345 -23.884 -12.494  0.00  0.00    +0.058 C 
ENDBRANCH  19  23
ENDBRANCH   1  19
TORSDOF 5
ENDMDL
MODEL 5
REMARK VINA RESULT:     -10.5      7.440     12.374
REMARK  Name = 6852168
REMARK  5 active torsions:
REMARK  status: ('A' for Active; 'I' for Inactive)
REMARK    1  A    between atoms: N_1  and  C_5
REMARK    2  A    between atoms: N_1  and  S_19
REMARK    3  A    between atoms: N_4  and  C_9
REMARK    4  A    between atoms: C_9  and  C_14
REMARK    5  A    between atoms: S_19  and  C_23
REMARK                            x       y       z     vdW  Elec       q    Type
REMARK                         _______ _______ _______ _____ _____    ______ ____
ROOT
ATOM      1  N   UNL     1      34.950 -23.442 -17.046  0.00  0.00    -0.172 NA
ATOM      2  H   UNL     1      35.697 -23.011 -17.590  0.00  0.00    +0.149 HD
ENDROOT
BRANCH   1   5
ATOM      3  O   UNL     1      37.187 -22.656 -15.152  0.00  0.00    -0.273 OA
ATOM      4  N   UNL     1      35.612 -23.959 -13.987  0.00  0.00    -0.272 N 
ATOM      5  C   UNL     1      34.848 -22.682 -15.787  0.00  0.00    +0.153 C 
ATOM      6  C   UNL     1      33.660 -23.146 -14.953  0.00  0.00    +0.048 C 
ATOM      7  C   UNL     1      34.211 -24.285 -14.115  0.00  0.00    +0.096 C 
ATOM      8  C   UNL     1      36.049 -23.056 -14.954  0.00  0.00    +0.242 C 
BRANCH   4   9
ATOM      9  C   UNL     1      36.464 -24.646 -13.040  0.00  0.00    +0.152 C 
ATOM     10  C   UNL     1      35.700 -25.150 -11.838  0.00  0.00    +0.031 C 
BRANCH   9  14
ATOM     11  O   UNL     1      41.159 -25.749 -14.535  0.00  0.00    -0.350 OA
ATOM     12  O   UNL     1      36.284 -26.575 -14.408  0.00  0.00    -0.273 OA
ATOM     13  N   UNL     1      38.432 -25.901 -13.841  0.00  0.00    -0.273 N 
ATOM     14  C   UNL     1      37.044 -25.796 -13.824  0.00  0.00    +0.244 C 
ATOM     15  C   UNL     1      39.357 -25.073 -13.058  0.00  0.00    +0.126 C 
ATOM     16  C   UNL     1      39.078 -26.985 -14.581  0.00  0.00    +0.126 C 
ATOM     17  C   UNL     1      40.524 -24.622 -13.926  0.00  0.00    +0.164 C 
ATOM     18  C   UNL     1      40.251 -26.451 -15.388  0.00  0.00    +0.164 C 
ENDBRANCH   9  14
ENDBRANCH   4   9
ENDBRANCH   1   5
BRANCH   1  19
ATOM     19  S   UNL     1      33.601 -23.568 -18.078  0.00  0.00    +0.061 S 
ATOM     20  O   UNL     1      32.392 -23.308 -17.320  0.00  0.00    -0.153 OA
ATOM     21  O   UNL     1      33.720 -24.779 -18.867  0.00  0.00    -0.153 OA
BRANCH  19  23
ATOM     22 CL   UNL     1      36.028 -17.188 -23.086  0.00  0.00    -0.082 Cl
ATOM     23  C   UNL     1      33.859 -22.208 -19.177  0.00  0.00    +0.122 C 
ATOM     24  C   UNL     1      35.147 -21.753 -19.398  0.00  0.00    +0.020 C 
ATOM     25  C   UNL     1      32.769 -21.624 -19.793  0.00  0.00    +0.020 C 
ATOM     26  C   UNL     1      35.368 -20.673 -20.269  0.00  0.00    +0.001 C 
ATOM     27  C   UNL     1      34.264 -20.063 -20.910  0.00  0.00    +0.001 C 
ATOM     28  C   UNL     1      32.970 -20.552 -20.662  0.00  0.00    +0.001 C 
ATOM     29  C   UNL     1      36.662 -20.186 -20.518  0.00  0.00    +0.001 C 
ATOM     30  C   UNL     1      34.485 -18.984 -21.780  0.00  0.00    +0.011 C 
ATOM     31  C   UNL     1      36.863 -19.113 -21.386  0.00  0.00    +0.011 C 
ATOM     32  C   UNL     1      35.777 -18.513 -22.016  0.00  0.00    +0.058 C 
ENDBRANCH  19  23
ENDBRANCH   1  19
TORSDOF 5
ENDMDL
MODEL 6
REMARK VINA RESULT:     -10.2      3.677      5.917
REMARK  Name = 6852168
REMARK  5 active torsions:
REMARK  status: ('A' for Active; 'I' for Inactive)
REMARK    1  A    between atoms: N_1  and  C_5
REMARK    2  A    between atoms: N_1  and  S_19
REMARK    3  A    between atoms: N_4  and  C_9
REMARK    4  A    between atoms: C_9  and  C_14
REMARK    5  A    between atoms: S_19  and  C_23
REMARK                            x       y       z     vdW  Elec       q    Type
REMARK                         _______ _______ _______ _____ _____    ______ ____
ROOT
ATOM      1  N   UNL     1      32.809 -12.205 -22.377  0.00  0.00    -0.172 NA
ATOM      2  H   UNL     1      33.582 -11.814 -21.839  0.00  0.00    +0.149 HD
ENDROOT
BRANCH   1   5
ATOM      3  O   UNL     1      33.405  -9.659 -23.917  0.00  0.00    -0.273 OA
ATOM      4  N   UNL     1      32.685  -9.098 -21.748  0.00  0.00    -0.272 N 
ATOM      5  C   UNL     1      31.893 -11.090 -22.676  0.00  0.00    +0.153 C 
ATOM      6  C   UNL     1      31.048 -10.725 -21.461  0.00  0.00    +0.048 C 
ATOM      7  C   UNL     1      31.891  -9.712 -20.709  0.00  0.00    +0.096 C 
ATOM      8  C   UNL     1      32.751  -9.871 -22.906  0.00  0.00    +0.242 C 
BRANCH   4   9
ATOM      9  C   UNL     1      33.441  -7.889 -21.507  0.00  0.00    +0.152 C 
ATOM     10  C   UNL     1      34.099  -7.361 -22.760  0.00  0.00    +0.031 C 
BRANCH   9  14
ATOM     11  O   UNL     1      30.574  -4.403 -23.769  0.00  0.00    -0.350 OA
ATOM     12  O   UNL     1      32.330  -6.720 -19.769  0.00  0.00    -0.273 OA
ATOM     13  N   UNL     1      31.639  -6.259 -21.936  0.00  0.00    -0.273 N 
ATOM     14  C   UNL     1      32.422  -6.907 -20.985  0.00  0.00    +0.244 C 
ATOM     15  C   UNL     1      31.633  -6.549 -23.374  0.00  0.00    +0.126 C 
ATOM     16  C   UNL     1      30.629  -5.288 -21.516  0.00  0.00    +0.126 C 
ATOM     17  C   UNL     1      31.650  -5.252 -24.174  0.00  0.00    +0.164 C 
ATOM     18  C   UNL     1      30.693  -4.044 -22.390  0.00  0.00    +0.164 C 
ENDBRANCH   9  14
ENDBRANCH   4   9
ENDBRANCH   1   5
BRANCH   1  19
ATOM     19  S   UNL     1      33.501 -13.106 -23.646  0.00  0.00    +0.061 S 
ATOM     20  O   UNL     1      34.613 -12.364 -24.208  0.00  0.00    -0.153 OA
ATOM     21  O   UNL     1      32.443 -13.599 -24.508  0.00  0.00    -0.153 OA
BRANCH  19  23
ATOM     22 CL   UNL     1      36.727 -20.323 -20.618  0.00  0.00    -0.082 Cl
ATOM     23  C   UNL     1      34.156 -14.502 -22.784  0.00  0.00    +0.122 C 
ATOM     24  C   UNL     1      34.524 -15.627 -23.501  0.00  0.00    +0.020 C 
ATOM     25  C   UNL     1      34.287 -14.445 -21.410  0.00  0.00    +0.020 C 
ATOM     26  C   UNL     1      35.047 -16.745 -22.830  0.00  0.00    +0.001 C 
ATOM     27  C   UNL     1      35.190 -16.704 -21.422  0.00  0.00    +0.001 C 
ATOM     28  C   UNL     1      34.805 -15.545 -20.727  0.00  0.00    +0.001 C 
ATOM     29  C   UNL     1      35.432 -17.903 -23.525  0.00  0.00    +0.001 C 
ATOM     30  C   UNL     1      35.711 -17.821 -20.752  0.00  0.00    +0.011 C 
ATOM     31  C   UNL     1      35.949 -19.004 -22.842  0.00  0.00    +0.011 C 
ATOM     32  C   UNL     1      36.088 -18.963 -21.458  0.00  0.00    +0.058 C 
ENDBRANCH  19  23
ENDBRANCH   1  19
TORSDOF 5
ENDMDL
MODEL 7
REMARK VINA RESULT:     -10.1      5.846     12.352
REMARK  Name = 6852168
REMARK  5 active torsions:
REMARK  status: ('A' for Active; 'I' for Inactive)
REMARK    1  A    between atoms: N_1  and  C_5
REMARK    2  A    between atoms: N_1  and  S_19
REMARK    3  A    between atoms: N_4  and  C_9
REMARK    4  A    between atoms: C_9  and  C_14
REMARK    5  A    between atoms: S_19  and  C_23
REMARK                            x       y       z     vdW  Elec       q    Type
REMARK                         _______ _______ _______ _____ _____    ______ ____
ROOT
ATOM      1  N   UNL     1      32.035  -9.552 -23.231  0.00  0.00    -0.172 NA
ATOM      2  H   UNL     1      32.412  -9.476 -24.175  0.00  0.00    +0.149 HD
ENDROOT
BRANCH   1   5
ATOM      3  O   UNL     1      34.414 -11.113 -24.288  0.00  0.00    -0.273 OA
ATOM      4  N   UNL     1      32.858 -12.613 -23.356  0.00  0.00    -0.272 N 
ATOM      5  C   UNL     1      32.937 -10.448 -22.485  0.00  0.00    +0.153 C 
ATOM      6  C   UNL     1      32.160 -11.350 -21.533  0.00  0.00    +0.048 C 
ATOM      7  C   UNL     1      31.800 -12.561 -22.374  0.00  0.00    +0.096 C 
ATOM      8  C   UNL     1      33.533 -11.401 -23.489  0.00  0.00    +0.242 C 
BRANCH   4   9
ATOM      9  C   UNL     1      33.050 -13.773 -24.199  0.00  0.00    +0.152 C 
ATOM     10  C   UNL     1      33.527 -13.406 -25.585  0.00  0.00    +0.031 C 
BRANCH   9  14
ATOM     11  O   UNL     1      34.588 -18.557 -24.694  0.00  0.00    -0.350 OA
ATOM     12  O   UNL     1      34.587 -14.158 -22.435  0.00  0.00    -0.273 OA
ATOM     13  N   UNL     1      34.421 -15.820 -24.047  0.00  0.00    -0.273 N 
ATOM     14  C   UNL     1      34.089 -14.593 -23.477  0.00  0.00    +0.244 C 
ATOM     15  C   UNL     1      33.946 -16.310 -25.346  0.00  0.00    +0.126 C 
ATOM     16  C   UNL     1      35.417 -16.680 -23.409  0.00  0.00    +0.126 C 
ATOM     17  C   UNL     1      33.524 -17.770 -25.236  0.00  0.00    +0.164 C 
ATOM     18  C   UNL     1      34.929 -18.121 -23.376  0.00  0.00    +0.164 C 
ENDBRANCH   9  14
ENDBRANCH   4   9
ENDBRANCH   1   5
BRANCH   1  19
ATOM     19  S   UNL     1      31.763  -7.963 -22.682  0.00  0.00    +0.061 S 
ATOM     20  O   UNL     1      32.267  -7.833 -21.328  0.00  0.00    -0.153 OA
ATOM     21  O   UNL     1      30.398  -7.582 -22.992  0.00  0.00    -0.153 OA
BRANCH  19  23
ATOM     22 CL   UNL     1      35.799  -2.827 -28.067  0.00  0.00    -0.082 Cl
ATOM     23  C   UNL     1      32.815  -7.026 -23.748  0.00  0.00    +0.122 C 
ATOM     24  C   UNL     1      32.278  -5.982 -24.481  0.00  0.00    +0.020 C 
ATOM     25  C   UNL     1      34.154  -7.355 -23.832  0.00  0.00    +0.020 C 
ATOM     26  C   UNL     1      33.101  -5.228 -25.333  0.00  0.00    +0.001 C 
ATOM     27  C   UNL     1      34.476  -5.549 -25.430  0.00  0.00    +0.001 C 
ATOM     28  C   UNL     1      34.987  -6.616 -24.672  0.00  0.00    +0.001 C 
ATOM     29  C   UNL     1      32.590  -4.161 -26.090  0.00  0.00    +0.001 C 
ATOM     30  C   UNL     1      35.299  -4.796 -26.283  0.00  0.00    +0.011 C 
ATOM     31  C   UNL     1      33.423  -3.422 -26.931  0.00  0.00    +0.011 C 
ATOM     32  C   UNL     1      34.775  -3.740 -27.028  0.00  0.00    +0.058 C 
ENDBRANCH  19  23
ENDBRANCH   1  19
TORSDOF 5
ENDMDL
MODEL 8
REMARK VINA RESULT:     -10.1      4.548     10.583
REMARK  Name = 6852168
REMARK  5 active torsions:
REMARK  status: ('A' for Active; 'I' for Inactive)
REMARK    1  A    between atoms: N_1  and  C_5
REMARK    2  A    between atoms: N_1  and  S_19
REMARK    3  A    between atoms: N_4  and  C_9
REMARK    4  A    between atoms: C_9  and  C_14
REMARK    5  A    between atoms: S_19  and  C_23
REMARK                            x       y       z     vdW  Elec       q    Type
REMARK                         _______ _______ _______ _____ _____    ______ ____
ROOT
ATOM      1  N   UNL     1      35.187 -19.835 -20.634  0.00  0.00    -0.172 NA
ATOM      2  H   UNL     1      34.238 -19.468 -20.709  0.00  0.00    +0.149 HD
ENDROOT
BRANCH   1   5
ATOM      3  O   UNL     1      32.728 -21.538 -20.119  0.00  0.00    -0.273 OA
ATOM      4  N   UNL     1      34.412 -22.130 -18.586  0.00  0.00    -0.272 N 
ATOM      5  C   UNL     1      35.077 -21.304 -20.666  0.00  0.00    +0.153 C 
ATOM      6  C   UNL     1      36.267 -21.964 -19.978  0.00  0.00    +0.048 C 
ATOM      7  C   UNL     1      35.853 -22.056 -18.521  0.00  0.00    +0.096 C 
ATOM      8  C   UNL     1      33.900 -21.673 -19.799  0.00  0.00    +0.242 C 
BRANCH   4   9
ATOM      9  C   UNL     1      33.621 -22.493 -17.430  0.00  0.00    +0.152 C 
ATOM     10  C   UNL     1      32.140 -22.517 -17.729  0.00  0.00    +0.031 C 
BRANCH   9  14
ATOM     11  O   UNL     1      36.994 -24.125 -14.045  0.00  0.00    -0.350 OA
ATOM     12  O   UNL     1      33.830 -24.829 -17.780  0.00  0.00    -0.273 OA
ATOM     13  N   UNL     1      34.876 -23.964 -15.897  0.00  0.00    -0.273 N 
ATOM     14  C   UNL     1      34.113 -23.869 -17.057  0.00  0.00    +0.244 C 
ATOM     15  C   UNL     1      35.124 -22.871 -14.950  0.00  0.00    +0.126 C 
ATOM     16  C   UNL     1      35.397 -25.262 -15.465  0.00  0.00    +0.126 C 
ATOM     17  C   UNL     1      36.593 -22.847 -14.546  0.00  0.00    +0.164 C 
ATOM     18  C   UNL     1      36.854 -25.136 -15.046  0.00  0.00    +0.164 C 
ENDBRANCH   9  14
ENDBRANCH   4   9
ENDBRANCH   1   5
BRANCH   1  19
ATOM     19  S   UNL     1      36.120 -19.022 -21.804  0.00  0.00    +0.061 S 
ATOM     20  O   UNL     1      35.872 -19.610 -23.106  0.00  0.00    -0.153 OA
ATOM     21  O   UNL     1      37.479 -18.884 -21.313  0.00  0.00    -0.153 OA
BRANCH  19  23
ATOM     22 CL   UNL     1      32.643 -11.388 -22.943  0.00  0.00    -0.082 Cl
ATOM     23  C   UNL     1      35.399 -17.409 -21.786  0.00  0.00    +0.122 C 
ATOM     24  C   UNL     1      35.067 -16.804 -22.986  0.00  0.00    +0.020 C 
ATOM     25  C   UNL     1      35.182 -16.782 -20.575  0.00  0.00    +0.020 C 
ATOM     26  C   UNL     1      34.492 -15.523 -22.989  0.00  0.00    +0.001 C 
ATOM     27  C   UNL     1      34.261 -14.865 -21.757  0.00  0.00    +0.001 C 
ATOM     28  C   UNL     1      34.612 -15.509 -20.559  0.00  0.00    +0.001 C 
ATOM     29  C   UNL     1      34.141 -14.880 -24.187  0.00  0.00    +0.001 C 
ATOM     30  C   UNL     1      33.688 -13.583 -21.760  0.00  0.00    +0.011 C 
ATOM     31  C   UNL     1      33.572 -13.606 -24.171  0.00  0.00    +0.011 C 
ATOM     32  C   UNL     1      33.346 -12.959 -22.960  0.00  0.00    +0.058 C 
ENDBRANCH  19  23
ENDBRANCH   1  19
TORSDOF 5
ENDMDL
MODEL 9
REMARK VINA RESULT:      -9.9      2.175      3.232
REMARK  Name = 6852168
REMARK  5 active torsions:
REMARK  status: ('A' for Active; 'I' for Inactive)
REMARK    1  A    between atoms: N_1  and  C_5
REMARK    2  A    between atoms: N_1  and  S_19
REMARK    3  A    between atoms: N_4  and  C_9
REMARK    4  A    between atoms: C_9  and  C_14
REMARK    5  A    between atoms: S_19  and  C_23
REMARK                            x       y       z     vdW  Elec       q    Type
REMARK                         _______ _______ _______ _____ _____    ______ ____
ROOT
ATOM      1  N   UNL     1      34.506 -15.877 -24.499  0.00  0.00    -0.172 NA
ATOM      2  H   UNL     1      34.734 -15.388 -25.363  0.00  0.00    +0.149 HD
ENDROOT
BRANCH   1   5
ATOM      3  O   UNL     1      32.910 -13.558 -25.633  0.00  0.00    -0.273 OA
ATOM      4  N   UNL     1      34.030 -12.847 -23.690  0.00  0.00    -0.272 N 
ATOM      5  C   UNL     1      33.440 -15.101 -23.840  0.00  0.00    +0.153 C 
ATOM      6  C   UNL     1      33.806 -14.768 -22.399  0.00  0.00    +0.048 C 
ATOM      7  C   UNL     1      34.570 -13.461 -22.499  0.00  0.00    +0.096 C 
ATOM      8  C   UNL     1      33.390 -13.759 -24.526  0.00  0.00    +0.242 C 
BRANCH   4   9
ATOM      9  C   UNL     1      34.294 -11.461 -24.011  0.00  0.00    +0.152 C 
ATOM     10  C   UNL     1      34.408 -11.227 -25.499  0.00  0.00    +0.031 C 
BRANCH   9  14
ATOM     11  O   UNL     1      33.615  -6.640 -22.673  0.00  0.00    -0.350 OA
ATOM     12  O   UNL     1      32.141 -11.348 -23.023  0.00  0.00    -0.273 OA
ATOM     13  N   UNL     1      33.206  -9.324 -23.425  0.00  0.00    -0.273 N 
ATOM     14  C   UNL     1      33.113 -10.714 -23.443  0.00  0.00    +0.244 C 
ATOM     15  C   UNL     1      34.287  -8.537 -24.028  0.00  0.00    +0.126 C 
ATOM     16  C   UNL     1      32.108  -8.523 -22.886  0.00  0.00    +0.126 C 
ATOM     17  C   UNL     1      34.733  -7.436 -23.074  0.00  0.00    +0.164 C 
ATOM     18  C   UNL     1      32.647  -7.428 -21.976  0.00  0.00    +0.164 C 
ENDBRANCH   9  14
ENDBRANCH   4   9
ENDBRANCH   1   5
BRANCH   1  19
ATOM     19  S   UNL     1      34.243 -17.508 -24.913  0.00  0.00    +0.061 S 
ATOM     20  O   UNL     1      35.056 -17.845 -26.066  0.00  0.00    -0.153 OA
ATOM     21  O   UNL     1      32.816 -17.770 -24.926  0.00  0.00    -0.153 OA
BRANCH  19  23
ATOM     22 CL   UNL     1      36.326 -22.049 -18.079  0.00  0.00    -0.082 Cl
ATOM     23  C   UNL     1      34.910 -18.350 -23.510  0.00  0.00    +0.122 C 
ATOM     24  C   UNL     1      34.101 -19.215 -22.794  0.00  0.00    +0.020 C 
ATOM     25  C   UNL     1      36.226 -18.128 -23.154  0.00  0.00    +0.020 C 
ATOM     26  C   UNL     1      34.616 -19.892 -21.676  0.00  0.00    +0.001 C 
ATOM     27  C   UNL     1      35.962 -19.677 -21.297  0.00  0.00    +0.001 C 
ATOM     28  C   UNL     1      36.754 -18.792 -22.047  0.00  0.00    +0.001 C 
ATOM     29  C   UNL     1      33.824 -20.778 -20.927  0.00  0.00    +0.001 C 
ATOM     30  C   UNL     1      36.477 -20.353 -20.179  0.00  0.00    +0.011 C 
ATOM     31  C   UNL     1      34.353 -21.441 -19.819  0.00  0.00    +0.011 C 
ATOM     32  C   UNL     1      35.677 -21.229 -19.446  0.00  0.00    +0.058 C 
ENDBRANCH  19  23
ENDBRANCH   1  19
TORSDOF 5
ENDMDL
