MODEL 1
REMARK VINA RESULT:     -12.5      0.000      0.000
REMARK  Name = 25151352
REMARK  5 active torsions:
REMARK  status: ('A' for Active; 'I' for Inactive)
REMARK    1  A    between atoms: N_1  and  C_21
REMARK    2  A    between atoms: C_3  and  C_9
REMARK    3  A    between atoms: C_9  and  C_13
REMARK    4  A    between atoms: C_21  and  C_23
REMARK    5  A    between atoms: C_27  and  C_31
REMARK                            x       y       z     vdW  Elec       q    Type
REMARK                         _______ _______ _______ _____ _____    ______ ____
ROOT
ATOM      1  N   UNL     1      33.173 -22.309 -18.940  0.00  0.00    -0.314 N 
ATOM      2  N   UNL     1      33.054 -20.641 -20.638  0.00  0.00    -0.230 NA
ATOM      3  C   UNL     1      35.095 -19.688 -21.514  0.00  0.00    +0.002 C 
ATOM      4  C   UNL     1      35.844 -20.494 -20.663  0.00  0.00    +0.000 C 
ATOM      5  C   UNL     1      33.715 -19.799 -21.463  0.00  0.00    +0.096 C 
ATOM      6  C   UNL     1      33.815 -21.407 -19.825  0.00  0.00    +0.129 C 
ATOM      7  C   UNL     1      35.200 -21.372 -19.800  0.00  0.00    +0.034 C 
ATOM      8  H   UNL     1      32.190 -22.351 -18.940  0.00  0.00    +0.149 HD
ENDROOT
BRANCH   3   9
ATOM      9  C   UNL     1      35.771 -18.718 -22.471  0.00  0.00    +0.056 C 
BRANCH   9  13
ATOM     10 CL   UNL     1      33.806 -13.331 -24.019  0.00  0.00    -0.081 Cl
ATOM     11  N   UNL     1      34.039 -18.849 -25.689  0.00  0.00    -0.297 N 
ATOM     12  N   UNL     1      33.284 -16.625 -26.224  0.00  0.00    -0.228 NA
ATOM     13  C   UNL     1      35.036 -18.492 -23.733  0.00  0.00    -0.000 C 
ATOM     14  C   UNL     1      34.521 -17.255 -24.202  0.00  0.00    +0.030 C 
ATOM     15  C   UNL     1      33.906 -17.512 -25.424  0.00  0.00    +0.132 C 
ATOM     16  C   UNL     1      34.723 -19.456 -24.668  0.00  0.00    +0.059 C 
ATOM     17  C   UNL     1      34.502 -15.931 -23.734  0.00  0.00    +0.015 C 
ATOM     18  C   UNL     1      33.871 -14.972 -24.524  0.00  0.00    +0.077 C 
ATOM     19  C   UNL     1      33.296 -15.367 -25.724  0.00  0.00    +0.112 C 
ATOM     20  H   UNL     1      33.696 -19.306 -26.491  0.00  0.00    +0.154 HD
ENDBRANCH   9  13
ENDBRANCH   3   9
BRANCH   1  21
ATOM     21  C   UNL     1      33.895 -23.156 -18.048  0.00  0.00    +0.117 C 
BRANCH  21  23
ATOM     22  N   UNL     1      32.892 -24.452 -14.638  0.00  0.00    -0.240 NA
ATOM     23  C   UNL     1      33.044 -23.520 -16.863  0.00  0.00    +0.017 C 
ATOM     24  C   UNL     1      31.673 -23.283 -16.865  0.00  0.00    +0.000 C 
ATOM     25  C   UNL     1      33.599 -24.101 -15.735  0.00  0.00    +0.096 C 
ATOM     26  C   UNL     1      30.911 -23.632 -15.755  0.00  0.00    +0.023 C 
ATOM     27  C   UNL     1      31.563 -24.207 -14.676  0.00  0.00    +0.153 C 
BRANCH  27  31
ATOM     28  F   UNL     1      31.310 -25.645 -12.781  0.00  0.00    -0.164 F 
ATOM     29  F   UNL     1      30.659 -23.590 -12.549  0.00  0.00    -0.164 F 
ATOM     30  F   UNL     1      29.498 -24.964 -13.770  0.00  0.00    -0.164 F 
ATOM     31  C   UNL     1      30.776 -24.593 -13.468  0.00  0.00    +0.435 C 
ENDBRANCH  27  31
ENDBRANCH  21  23
ENDBRANCH   1  21
TORSDOF 5
ENDMDL
MODEL 2
REMARK VINA RESULT:     -12.0      4.388      6.955
REMARK  Name = 25151352
REMARK  5 active torsions:
REMARK  status: ('A' for Active; 'I' for Inactive)
REMARK    1  A    between atoms: N_1  and  C_21
REMARK    2  A    between atoms: C_3  and  C_9
REMARK    3  A    between atoms: C_9  and  C_13
REMARK    4  A    between atoms: C_21  and  C_23
REMARK    5  A    between atoms: C_27  and  C_31
REMARK                            x       y       z     vdW  Elec       q    Type
REMARK                         _______ _______ _______ _____ _____    ______ ____
ROOT
ATOM      1  N   UNL     1      35.715 -17.792 -23.326  0.00  0.00    -0.314 N 
ATOM      2  N   UNL     1      34.267 -16.394 -24.601  0.00  0.00    -0.230 NA
ATOM      3  C   UNL     1      33.564 -14.267 -23.692  0.00  0.00    +0.002 C 
ATOM      4  C   UNL     1      34.304 -14.507 -22.539  0.00  0.00    +0.000 C 
ATOM      5  C   UNL     1      33.578 -15.233 -24.685  0.00  0.00    +0.096 C 
ATOM      6  C   UNL     1      34.974 -16.592 -23.466  0.00  0.00    +0.129 C 
ATOM      7  C   UNL     1      35.025 -15.689 -22.416  0.00  0.00    +0.034 C 
ATOM      8  H   UNL     1      35.694 -18.448 -24.058  0.00  0.00    +0.149 HD
ENDROOT
BRANCH   3   9
ATOM      9  C   UNL     1      32.766 -12.982 -23.857  0.00  0.00    +0.056 C 
BRANCH   9  13
ATOM     10 CL   UNL     1      31.891  -7.888 -20.932  0.00  0.00    -0.081 Cl
ATOM     11  N   UNL     1      35.121 -10.422 -24.987  0.00  0.00    -0.297 N 
ATOM     12  N   UNL     1      34.685  -8.405 -23.745  0.00  0.00    -0.228 NA
ATOM     13  C   UNL     1      33.587 -11.783 -24.123  0.00  0.00    -0.000 C 
ATOM     14  C   UNL     1      33.468 -10.518 -23.489  0.00  0.00    +0.030 C 
ATOM     15  C   UNL     1      34.438  -9.693 -24.049  0.00  0.00    +0.132 C 
ATOM     16  C   UNL     1      34.612 -11.694 -25.040  0.00  0.00    +0.059 C 
ATOM     17  C   UNL     1      32.644  -9.965 -22.494  0.00  0.00    +0.015 C 
ATOM     18  C   UNL     1      32.857  -8.634 -22.140  0.00  0.00    +0.077 C 
ATOM     19  C   UNL     1      33.863  -7.925 -22.783  0.00  0.00    +0.112 C 
ATOM     20  H   UNL     1      35.864 -10.085 -25.537  0.00  0.00    +0.154 HD
ENDBRANCH   9  13
ENDBRANCH   3   9
BRANCH   1  21
ATOM     21  C   UNL     1      36.490 -18.086 -22.165  0.00  0.00    +0.117 C 
BRANCH  21  23
ATOM     22  N   UNL     1      36.095 -20.993 -19.775  0.00  0.00    -0.240 NA
ATOM     23  C   UNL     1      35.855 -19.197 -21.376  0.00  0.00    +0.017 C 
ATOM     24  C   UNL     1      34.495 -19.472 -21.490  0.00  0.00    +0.000 C 
ATOM     25  C   UNL     1      36.603 -19.980 -20.512  0.00  0.00    +0.096 C 
ATOM     26  C   UNL     1      33.937 -20.507 -20.748  0.00  0.00    +0.023 C 
ATOM     27  C   UNL     1      34.771 -21.230 -19.912  0.00  0.00    +0.153 C 
BRANCH  27  31
ATOM     28  F   UNL     1      34.202 -23.548 -19.750  0.00  0.00    -0.164 F 
ATOM     29  F   UNL     1      34.879 -22.573 -17.935  0.00  0.00    -0.164 F 
ATOM     30  F   UNL     1      32.908 -22.125 -18.736  0.00  0.00    -0.164 F 
ATOM     31  C   UNL     1      34.205 -22.347 -19.100  0.00  0.00    +0.435 C 
ENDBRANCH  27  31
ENDBRANCH  21  23
ENDBRANCH   1  21
TORSDOF 5
ENDMDL
MODEL 3
REMARK VINA RESULT:     -11.8      4.236      6.208
REMARK  Name = 25151352
REMARK  5 active torsions:
REMARK  status: ('A' for Active; 'I' for Inactive)
REMARK    1  A    between atoms: N_1  and  C_21
REMARK    2  A    between atoms: C_3  and  C_9
REMARK    3  A    between atoms: C_9  and  C_13
REMARK    4  A    between atoms: C_21  and  C_23
REMARK    5  A    between atoms: C_27  and  C_31
REMARK                            x       y       z     vdW  Elec       q    Type
REMARK                         _______ _______ _______ _____ _____    ______ ____
ROOT
ATOM      1  N   UNL     1      35.653 -17.863 -20.912  0.00  0.00    -0.314 N 
ATOM      2  N   UNL     1      35.054 -15.557 -20.974  0.00  0.00    -0.230 NA
ATOM      3  C   UNL     1      34.358 -14.566 -23.066  0.00  0.00    +0.002 C 
ATOM      4  C   UNL     1      34.530 -15.786 -23.710  0.00  0.00    +0.000 C 
ATOM      5  C   UNL     1      34.630 -14.504 -21.709  0.00  0.00    +0.096 C 
ATOM      6  C   UNL     1      35.211 -16.726 -21.635  0.00  0.00    +0.129 C 
ATOM      7  C   UNL     1      34.965 -16.891 -22.988  0.00  0.00    +0.034 C 
ATOM      8  H   UNL     1      35.834 -17.769 -19.950  0.00  0.00    +0.149 HD
ENDROOT
BRANCH   3   9
ATOM      9  C   UNL     1      33.882 -13.338 -23.829  0.00  0.00    +0.056 C 
BRANCH   9  13
ATOM     10 CL   UNL     1      34.351  -7.422 -24.075  0.00  0.00    -0.081 Cl
ATOM     11  N   UNL     1      31.361 -11.752 -21.705  0.00  0.00    -0.297 N 
ATOM     12  N   UNL     1      31.636  -9.365 -21.875  0.00  0.00    -0.228 NA
ATOM     13  C   UNL     1      32.979 -12.455 -23.062  0.00  0.00    -0.000 C 
ATOM     14  C   UNL     1      32.999 -11.035 -23.043  0.00  0.00    +0.030 C 
ATOM     15  C   UNL     1      31.978 -10.629 -22.189  0.00  0.00    +0.132 C 
ATOM     16  C   UNL     1      31.961 -12.868 -22.229  0.00  0.00    +0.059 C 
ATOM     17  C   UNL     1      33.768 -10.032 -23.655  0.00  0.00    +0.015 C 
ATOM     18  C   UNL     1      33.456  -8.705 -23.365  0.00  0.00    +0.077 C 
ATOM     19  C   UNL     1      32.409  -8.441 -22.491  0.00  0.00    +0.112 C 
ATOM     20  H   UNL     1      30.603 -11.758 -21.079  0.00  0.00    +0.154 HD
ENDBRANCH   9  13
ENDBRANCH   3   9
BRANCH   1  21
ATOM     21  C   UNL     1      35.846 -19.136 -21.525  0.00  0.00    +0.117 C 
BRANCH  21  23
ATOM     22  N   UNL     1      35.586 -22.057 -19.134  0.00  0.00    -0.240 NA
ATOM     23  C   UNL     1      35.252 -20.225 -20.675  0.00  0.00    +0.017 C 
ATOM     24  C   UNL     1      33.876 -20.424 -20.625  0.00  0.00    +0.000 C 
ATOM     25  C   UNL     1      36.056 -21.060 -19.917  0.00  0.00    +0.096 C 
ATOM     26  C   UNL     1      33.355 -21.440 -19.830  0.00  0.00    +0.023 C 
ATOM     27  C   UNL     1      34.245 -22.221 -19.110  0.00  0.00    +0.153 C 
BRANCH  27  31
ATOM     28  F   UNL     1      33.693 -24.536 -18.866  0.00  0.00    -0.164 F 
ATOM     29  F   UNL     1      34.448 -23.515 -17.108  0.00  0.00    -0.164 F 
ATOM     30  F   UNL     1      32.440 -23.093 -17.829  0.00  0.00    -0.164 F 
ATOM     31  C   UNL     1      33.720 -23.319 -18.247  0.00  0.00    +0.435 C 
ENDBRANCH  27  31
ENDBRANCH  21  23
ENDBRANCH   1  21
TORSDOF 5
ENDMDL
MODEL 4
REMARK VINA RESULT:     -11.7      2.174      2.825
REMARK  Name = 25151352
REMARK  5 active torsions:
REMARK  status: ('A' for Active; 'I' for Inactive)
REMARK    1  A    between atoms: N_1  and  C_21
REMARK    2  A    between atoms: C_3  and  C_9
REMARK    3  A    between atoms: C_9  and  C_13
REMARK    4  A    between atoms: C_21  and  C_23
REMARK    5  A    between atoms: C_27  and  C_31
REMARK                            x       y       z     vdW  Elec       q    Type
REMARK                         _______ _______ _______ _____ _____    ______ ____
ROOT
ATOM      1  N   UNL     1      35.085 -22.038 -19.258  0.00  0.00    -0.314 N 
ATOM      2  N   UNL     1      36.450 -20.301 -20.152  0.00  0.00    -0.230 NA
ATOM      3  C   UNL     1      35.525 -18.791 -21.798  0.00  0.00    +0.002 C 
ATOM      4  C   UNL     1      34.307 -19.459 -21.737  0.00  0.00    +0.000 C 
ATOM      5  C   UNL     1      36.556 -19.247 -20.992  0.00  0.00    +0.096 C 
ATOM      6  C   UNL     1      35.251 -20.926 -20.122  0.00  0.00    +0.129 C 
ATOM      7  C   UNL     1      34.159 -20.548 -20.886  0.00  0.00    +0.034 C 
ATOM      8  H   UNL     1      35.846 -22.325 -18.706  0.00  0.00    +0.149 HD
ENDROOT
BRANCH   3   9
ATOM      9  C   UNL     1      35.717 -17.594 -22.718  0.00  0.00    +0.056 C 
BRANCH   9  13
ATOM     10 CL   UNL     1      32.998 -13.835 -26.425  0.00  0.00    -0.081 Cl
ATOM     11  N   UNL     1      34.387 -14.716 -20.895  0.00  0.00    -0.297 N 
ATOM     12  N   UNL     1      33.309 -13.259 -22.481  0.00  0.00    -0.228 NA
ATOM     13  C   UNL     1      35.090 -16.346 -22.236  0.00  0.00    -0.000 C 
ATOM     14  C   UNL     1      34.417 -15.378 -23.027  0.00  0.00    +0.030 C 
ATOM     15  C   UNL     1      33.990 -14.376 -22.161  0.00  0.00    +0.132 C 
ATOM     16  C   UNL     1      35.056 -15.912 -20.928  0.00  0.00    +0.059 C 
ATOM     17  C   UNL     1      34.112 -15.228 -24.390  0.00  0.00    +0.015 C 
ATOM     18  C   UNL     1      33.407 -14.089 -24.776  0.00  0.00    +0.077 C 
ATOM     19  C   UNL     1      33.044 -13.166 -23.805  0.00  0.00    +0.112 C 
ATOM     20  H   UNL     1      34.217 -14.185 -20.084  0.00  0.00    +0.154 HD
ENDBRANCH   9  13
ENDBRANCH   3   9
BRANCH   1  21
ATOM     21  C   UNL     1      33.857 -22.757 -19.159  0.00  0.00    +0.117 C 
BRANCH  21  23
ATOM     22  N   UNL     1      34.369 -23.589 -15.504  0.00  0.00    -0.240 NA
ATOM     23  C   UNL     1      33.554 -23.087 -17.724  0.00  0.00    +0.017 C 
ATOM     24  C   UNL     1      32.242 -23.197 -17.275  0.00  0.00    +0.000 C 
ATOM     25  C   UNL     1      34.572 -23.290 -16.806  0.00  0.00    +0.096 C 
ATOM     26  C   UNL     1      31.993 -23.503 -15.941  0.00  0.00    +0.023 C 
ATOM     27  C   UNL     1      33.081 -23.688 -15.104  0.00  0.00    +0.153 C 
BRANCH  27  31
ATOM     28  F   UNL     1      32.122 -23.075 -13.000  0.00  0.00    -0.164 F 
ATOM     29  F   UNL     1      32.177 -25.190 -13.476  0.00  0.00    -0.164 F 
ATOM     30  F   UNL     1      34.014 -24.144 -12.964  0.00  0.00    -0.164 F 
ATOM     31  C   UNL     1      32.851 -24.017 -13.667  0.00  0.00    +0.435 C 
ENDBRANCH  27  31
ENDBRANCH  21  23
ENDBRANCH   1  21
TORSDOF 5
ENDMDL
MODEL 5
REMARK VINA RESULT:     -11.6      7.597     12.096
REMARK  Name = 25151352
REMARK  5 active torsions:
REMARK  status: ('A' for Active; 'I' for Inactive)
REMARK    1  A    between atoms: N_1  and  C_21
REMARK    2  A    between atoms: C_3  and  C_9
REMARK    3  A    between atoms: C_9  and  C_13
REMARK    4  A    between atoms: C_21  and  C_23
REMARK    5  A    between atoms: C_27  and  C_31
REMARK                            x       y       z     vdW  Elec       q    Type
REMARK                         _______ _______ _______ _____ _____    ______ ____
ROOT
ATOM      1  N   UNL     1      34.268 -13.674 -22.614  0.00  0.00    -0.314 N 
ATOM      2  N   UNL     1      34.930 -15.503 -21.237  0.00  0.00    -0.230 NA
ATOM      3  C   UNL     1      35.291 -17.674 -22.238  0.00  0.00    +0.002 C 
ATOM      4  C   UNL     1      34.966 -17.159 -23.488  0.00  0.00    +0.000 C 
ATOM      5  C   UNL     1      35.259 -16.812 -21.154  0.00  0.00    +0.096 C 
ATOM      6  C   UNL     1      34.619 -15.040 -22.468  0.00  0.00    +0.129 C 
ATOM      7  C   UNL     1      34.622 -15.818 -23.614  0.00  0.00    +0.034 C 
ATOM      8  H   UNL     1      34.258 -13.102 -21.813  0.00  0.00    +0.149 HD
ENDROOT
BRANCH   3   9
ATOM      9  C   UNL     1      35.673 -19.137 -22.068  0.00  0.00    +0.056 C 
BRANCH   9  13
ATOM     10 CL   UNL     1      37.259 -22.546 -17.471  0.00  0.00    -0.081 Cl
ATOM     11  N   UNL     1      32.765 -20.862 -20.675  0.00  0.00    -0.297 N 
ATOM     12  N   UNL     1      33.512 -22.212 -18.824  0.00  0.00    -0.228 NA
ATOM     13  C   UNL     1      34.685 -19.943 -21.322  0.00  0.00    -0.000 C 
ATOM     14  C   UNL     1      34.949 -20.791 -20.214  0.00  0.00    +0.030 C 
ATOM     15  C   UNL     1      33.731 -21.347 -19.833  0.00  0.00    +0.132 C 
ATOM     16  C   UNL     1      33.333 -20.008 -21.583  0.00  0.00    +0.059 C 
ATOM     17  C   UNL     1      36.086 -21.157 -19.476  0.00  0.00    +0.015 C 
ATOM     18  C   UNL     1      35.916 -22.050 -18.419  0.00  0.00    +0.077 C 
ATOM     19  C   UNL     1      34.641 -22.531 -18.150  0.00  0.00    +0.112 C 
ATOM     20  H   UNL     1      31.809 -21.091 -20.632  0.00  0.00    +0.154 HD
ENDBRANCH   9  13
ENDBRANCH   3   9
BRANCH   1  21
ATOM     21  C   UNL     1      33.926 -13.098 -23.872  0.00  0.00    +0.117 C 
BRANCH  21  23
ATOM     22  N   UNL     1      32.854  -9.599 -22.910  0.00  0.00    -0.240 NA
ATOM     23  C   UNL     1      33.904 -11.597 -23.776  0.00  0.00    +0.017 C 
ATOM     24  C   UNL     1      34.860 -10.823 -24.425  0.00  0.00    +0.000 C 
ATOM     25  C   UNL     1      32.932 -10.942 -23.038  0.00  0.00    +0.096 C 
ATOM     26  C   UNL     1      34.813  -9.437 -24.318  0.00  0.00    +0.023 C 
ATOM     27  C   UNL     1      33.800  -8.879 -23.555  0.00  0.00    +0.153 C 
BRANCH  27  31
ATOM     28  F   UNL     1      33.356  -6.980 -22.169  0.00  0.00    -0.164 F 
ATOM     29  F   UNL     1      34.901  -6.758 -23.676  0.00  0.00    -0.164 F 
ATOM     30  F   UNL     1      32.810  -6.838 -24.269  0.00  0.00    -0.164 F 
ATOM     31  C   UNL     1      33.720  -7.395 -23.418  0.00  0.00    +0.435 C 
ENDBRANCH  27  31
ENDBRANCH  21  23
ENDBRANCH   1  21
TORSDOF 5
ENDMDL
MODEL 6
REMARK VINA RESULT:     -11.3      2.969      3.835
REMARK  Name = 25151352
REMARK  5 active torsions:
REMARK  status: ('A' for Active; 'I' for Inactive)
REMARK    1  A    between atoms: N_1  and  C_21
REMARK    2  A    between atoms: C_3  and  C_9
REMARK    3  A    between atoms: C_9  and  C_13
REMARK    4  A    between atoms: C_21  and  C_23
REMARK    5  A    between atoms: C_27  and  C_31
REMARK                            x       y       z     vdW  Elec       q    Type
REMARK                         _______ _______ _______ _____ _____    ______ ____
ROOT
ATOM      1  N   UNL     1      36.319 -21.495 -19.082  0.00  0.00    -0.314 N 
ATOM      2  N   UNL     1      37.098 -19.724 -20.473  0.00  0.00    -0.230 NA
ATOM      3  C   UNL     1      35.580 -18.690 -22.045  0.00  0.00    +0.002 C 
ATOM      4  C   UNL     1      34.559 -19.538 -21.627  0.00  0.00    +0.000 C 
ATOM      5  C   UNL     1      36.820 -18.822 -21.442  0.00  0.00    +0.096 C 
ATOM      6  C   UNL     1      36.082 -20.531 -20.095  0.00  0.00    +0.129 C 
ATOM      7  C   UNL     1      34.807 -20.479 -20.635  0.00  0.00    +0.034 C 
ATOM      8  H   UNL     1      37.216 -21.551 -18.685  0.00  0.00    +0.149 HD
ENDROOT
BRANCH   3   9
ATOM      9  C   UNL     1      35.340 -17.649 -23.128  0.00  0.00    +0.056 C 
BRANCH   9  13
ATOM     10 CL   UNL     1      32.887 -13.572 -26.683  0.00  0.00    -0.081 Cl
ATOM     11  N   UNL     1      34.557 -14.606 -21.257  0.00  0.00    -0.297 N 
ATOM     12  N   UNL     1      33.571 -13.023 -22.782  0.00  0.00    -0.228 NA
ATOM     13  C   UNL     1      34.926 -16.324 -22.621  0.00  0.00    -0.000 C 
ATOM     14  C   UNL     1      34.334 -15.277 -23.375  0.00  0.00    +0.030 C 
ATOM     15  C   UNL     1      34.116 -14.221 -22.495  0.00  0.00    +0.132 C 
ATOM     16  C   UNL     1      35.051 -15.883 -21.321  0.00  0.00    +0.059 C 
ATOM     17  C   UNL     1      33.951 -15.093 -24.714  0.00  0.00    +0.015 C 
ATOM     18  C   UNL     1      33.381 -13.871 -25.065  0.00  0.00    +0.077 C 
ATOM     19  C   UNL     1      33.222 -12.902 -24.084  0.00  0.00    +0.112 C 
ATOM     20  H   UNL     1      34.522 -14.052 -20.445  0.00  0.00    +0.154 HD
ENDBRANCH   9  13
ENDBRANCH   3   9
BRANCH   1  21
ATOM     21  C   UNL     1      35.307 -22.387 -18.619  0.00  0.00    +0.117 C 
BRANCH  21  23
ATOM     22  N   UNL     1      34.709 -23.719 -15.128  0.00  0.00    -0.240 NA
ATOM     23  C   UNL     1      35.546 -22.753 -17.181  0.00  0.00    +0.017 C 
ATOM     24  C   UNL     1      36.766 -22.487 -16.566  0.00  0.00    +0.000 C 
ATOM     25  C   UNL     1      34.560 -23.365 -16.425  0.00  0.00    +0.096 C 
ATOM     26  C   UNL     1      36.957 -22.836 -15.233  0.00  0.00    +0.023 C 
ATOM     27  C   UNL     1      35.907 -23.445 -14.565  0.00  0.00    +0.153 C 
BRANCH  27  31
ATOM     28  F   UNL     1      36.871 -22.976 -12.427  0.00  0.00    -0.164 F 
ATOM     29  F   UNL     1      34.904 -23.889 -12.439  0.00  0.00    -0.164 F 
ATOM     30  F   UNL     1      36.648 -25.065 -12.990  0.00  0.00    -0.164 F 
ATOM     31  C   UNL     1      36.078 -23.833 -13.135  0.00  0.00    +0.435 C 
ENDBRANCH  27  31
ENDBRANCH  21  23
ENDBRANCH   1  21
TORSDOF 5
ENDMDL
MODEL 7
REMARK VINA RESULT:     -11.2      7.770     11.617
REMARK  Name = 25151352
REMARK  5 active torsions:
REMARK  status: ('A' for Active; 'I' for Inactive)
REMARK    1  A    between atoms: N_1  and  C_21
REMARK    2  A    between atoms: C_3  and  C_9
REMARK    3  A    between atoms: C_9  and  C_13
REMARK    4  A    between atoms: C_21  and  C_23
REMARK    5  A    between atoms: C_27  and  C_31
REMARK                            x       y       z     vdW  Elec       q    Type
REMARK                         _______ _______ _______ _____ _____    ______ ____
ROOT
ATOM      1  N   UNL     1      32.881 -12.823 -24.211  0.00  0.00    -0.314 N 
ATOM      2  N   UNL     1      32.803 -10.746 -23.045  0.00  0.00    -0.230 NA
ATOM      3  C   UNL     1      34.417  -9.025 -23.573  0.00  0.00    +0.002 C 
ATOM      4  C   UNL     1      34.997  -9.852 -24.528  0.00  0.00    +0.000 C 
ATOM      5  C   UNL     1      33.331  -9.514 -22.864  0.00  0.00    +0.096 C 
ATOM      6  C   UNL     1      33.395 -11.521 -23.981  0.00  0.00    +0.129 C 
ATOM      7  C   UNL     1      34.483 -11.126 -24.742  0.00  0.00    +0.034 C 
ATOM      8  H   UNL     1      32.109 -13.125 -23.683  0.00  0.00    +0.149 HD
ENDROOT
BRANCH   3   9
ATOM      9  C   UNL     1      34.956  -7.625 -23.317  0.00  0.00    +0.056 C 
BRANCH   9  13
ATOM     10 CL   UNL     1      30.039  -4.913 -21.384  0.00  0.00    -0.081 Cl
ATOM     11  N   UNL     1      33.836  -5.110 -25.724  0.00  0.00    -0.297 N 
ATOM     12  N   UNL     1      31.845  -4.073 -24.850  0.00  0.00    -0.228 NA
ATOM     13  C   UNL     1      34.295  -6.563 -24.102  0.00  0.00    -0.000 C 
ATOM     14  C   UNL     1      33.122  -5.850 -23.742  0.00  0.00    +0.030 C 
ATOM     15  C   UNL     1      32.863  -4.952 -24.773  0.00  0.00    +0.132 C 
ATOM     16  C   UNL     1      34.712  -6.087 -25.327  0.00  0.00    +0.059 C 
ATOM     17  C   UNL     1      32.236  -5.856 -22.652  0.00  0.00    +0.015 C 
ATOM     18  C   UNL     1      31.164  -4.965 -22.680  0.00  0.00    +0.077 C 
ATOM     19  C   UNL     1      31.024  -4.123 -23.775  0.00  0.00    +0.112 C 
ATOM     20  H   UNL     1      33.898  -4.601 -26.563  0.00  0.00    +0.154 HD
ENDBRANCH   9  13
ENDBRANCH   3   9
BRANCH   1  21
ATOM     21  C   UNL     1      33.440 -13.709 -25.178  0.00  0.00    +0.117 C 
BRANCH  21  23
ATOM     22  N   UNL     1      34.480 -17.305 -24.623  0.00  0.00    -0.240 NA
ATOM     23  C   UNL     1      33.985 -14.941 -24.510  0.00  0.00    +0.017 C 
ATOM     24  C   UNL     1      34.485 -14.891 -23.213  0.00  0.00    +0.000 C 
ATOM     25  C   UNL     1      34.005 -16.161 -25.166  0.00  0.00    +0.096 C 
ATOM     26  C   UNL     1      34.983 -16.047 -22.621  0.00  0.00    +0.023 C 
ATOM     27  C   UNL     1      34.958 -17.218 -23.362  0.00  0.00    +0.153 C 
BRANCH  27  31
ATOM     28  F   UNL     1      36.847 -18.524 -22.692  0.00  0.00    -0.164 F 
ATOM     29  F   UNL     1      35.058 -18.689 -21.478  0.00  0.00    -0.164 F 
ATOM     30  F   UNL     1      35.113 -19.589 -23.456  0.00  0.00    -0.164 F 
ATOM     31  C   UNL     1      35.484 -18.477 -22.758  0.00  0.00    +0.435 C 
ENDBRANCH  27  31
ENDBRANCH  21  23
ENDBRANCH   1  21
TORSDOF 5
ENDMDL
MODEL 8
REMARK VINA RESULT:     -11.2      7.749     11.394
REMARK  Name = 25151352
REMARK  5 active torsions:
REMARK  status: ('A' for Active; 'I' for Inactive)
REMARK    1  A    between atoms: N_1  and  C_21
REMARK    2  A    between atoms: C_3  and  C_9
REMARK    3  A    between atoms: C_9  and  C_13
REMARK    4  A    between atoms: C_21  and  C_23
REMARK    5  A    between atoms: C_27  and  C_31
REMARK                            x       y       z     vdW  Elec       q    Type
REMARK                         _______ _______ _______ _____ _____    ______ ____
ROOT
ATOM      1  N   UNL     1      32.875 -13.315 -23.925  0.00  0.00    -0.314 N 
ATOM      2  N   UNL     1      32.703 -11.170 -22.900  0.00  0.00    -0.230 NA
ATOM      3  C   UNL     1      34.145  -9.378 -23.643  0.00  0.00    +0.002 C 
ATOM      4  C   UNL     1      34.732 -10.228 -24.575  0.00  0.00    +0.000 C 
ATOM      5  C   UNL     1      33.144  -9.894 -22.837  0.00  0.00    +0.096 C 
ATOM      6  C   UNL     1      33.299 -11.966 -23.816  0.00  0.00    +0.129 C 
ATOM      7  C   UNL     1      34.307 -11.548 -24.669  0.00  0.00    +0.034 C 
ATOM      8  H   UNL     1      32.161 -13.635 -23.330  0.00  0.00    +0.149 HD
ENDROOT
BRANCH   3   9
ATOM      9  C   UNL     1      34.588  -7.928 -23.517  0.00  0.00    +0.056 C 
BRANCH   9  13
ATOM     10 CL   UNL     1      32.474  -3.316 -26.605  0.00  0.00    -0.081 Cl
ATOM     11  N   UNL     1      32.092  -6.102 -21.566  0.00  0.00    -0.297 N 
ATOM     12  N   UNL     1      31.300  -4.259 -22.901  0.00  0.00    -0.228 NA
ATOM     13  C   UNL     1      33.562  -7.023 -22.958  0.00  0.00    -0.000 C 
ATOM     14  C   UNL     1      32.988  -5.895 -23.600  0.00  0.00    +0.030 C 
ATOM     15  C   UNL     1      32.075  -5.344 -22.707  0.00  0.00    +0.132 C 
ATOM     16  C   UNL     1      32.992  -7.125 -21.707  0.00  0.00    +0.059 C 
ATOM     17  C   UNL     1      33.132  -5.266 -24.848  0.00  0.00    +0.015 C 
ATOM     18  C   UNL     1      32.353  -4.139 -25.102  0.00  0.00    +0.077 C 
ATOM     19  C   UNL     1      31.481  -3.694 -24.117  0.00  0.00    +0.112 C 
ATOM     20  H   UNL     1      31.541  -5.937 -20.767  0.00  0.00    +0.154 HD
ENDBRANCH   9  13
ENDBRANCH   3   9
BRANCH   1  21
ATOM     21  C   UNL     1      33.445 -14.226 -24.863  0.00  0.00    +0.117 C 
BRANCH  21  23
ATOM     22  N   UNL     1      35.212 -16.187 -22.152  0.00  0.00    -0.240 NA
ATOM     23  C   UNL     1      34.127 -15.359 -24.148  0.00  0.00    +0.017 C 
ATOM     24  C   UNL     1      34.313 -16.591 -24.768  0.00  0.00    +0.000 C 
ATOM     25  C   UNL     1      34.591 -15.211 -22.850  0.00  0.00    +0.096 C 
ATOM     26  C   UNL     1      34.949 -17.619 -24.081  0.00  0.00    +0.023 C 
ATOM     27  C   UNL     1      35.375 -17.370 -22.787  0.00  0.00    +0.153 C 
BRANCH  27  31
ATOM     28  F   UNL     1      36.112 -18.220 -20.676  0.00  0.00    -0.164 F 
ATOM     29  F   UNL     1      35.464 -19.674 -22.150  0.00  0.00    -0.164 F 
ATOM     30  F   UNL     1      37.355 -18.632 -22.412  0.00  0.00    -0.164 F 
ATOM     31  C   UNL     1      36.060 -18.452 -22.021  0.00  0.00    +0.435 C 
ENDBRANCH  27  31
ENDBRANCH  21  23
ENDBRANCH   1  21
TORSDOF 5
ENDMDL
MODEL 9
REMARK VINA RESULT:     -11.1      7.816     11.629
REMARK  Name = 25151352
REMARK  5 active torsions:
REMARK  status: ('A' for Active; 'I' for Inactive)
REMARK    1  A    between atoms: N_1  and  C_21
REMARK    2  A    between atoms: C_3  and  C_9
REMARK    3  A    between atoms: C_9  and  C_13
REMARK    4  A    between atoms: C_21  and  C_23
REMARK    5  A    between atoms: C_27  and  C_31
REMARK                            x       y       z     vdW  Elec       q    Type
REMARK                         _______ _______ _______ _____ _____    ______ ____
ROOT
ATOM      1  N   UNL     1      32.876 -12.986 -24.270  0.00  0.00    -0.314 N 
ATOM      2  N   UNL     1      32.791 -10.963 -23.015  0.00  0.00    -0.230 NA
ATOM      3  C   UNL     1      34.301  -9.158 -23.566  0.00  0.00    +0.002 C 
ATOM      4  C   UNL     1      34.853  -9.922 -24.588  0.00  0.00    +0.000 C 
ATOM      5  C   UNL     1      33.282  -9.719 -22.814  0.00  0.00    +0.096 C 
ATOM      6  C   UNL     1      33.353 -11.676 -24.016  0.00  0.00    +0.129 C 
ATOM      7  C   UNL     1      34.376 -11.206 -24.824  0.00  0.00    +0.034 C 
ATOM      8  H   UNL     1      32.150 -13.341 -23.709  0.00  0.00    +0.149 HD
ENDROOT
BRANCH   3   9
ATOM      9  C   UNL     1      34.801  -7.748 -23.284  0.00  0.00    +0.056 C 
BRANCH   9  13
ATOM     10 CL   UNL     1      35.430  -4.209 -28.011  0.00  0.00    -0.081 Cl
ATOM     11  N   UNL     1      32.061  -5.333 -23.463  0.00  0.00    -0.297 N 
ATOM     12  N   UNL     1      32.408  -3.952 -25.406  0.00  0.00    -0.228 NA
ATOM     13  C   UNL     1      33.826  -6.681 -23.591  0.00  0.00    -0.000 C 
ATOM     14  C   UNL     1      33.875  -5.780 -24.686  0.00  0.00    +0.030 C 
ATOM     15  C   UNL     1      32.761  -4.954 -24.579  0.00  0.00    +0.132 C 
ATOM     16  C   UNL     1      32.699  -6.382 -22.855  0.00  0.00    +0.059 C 
ATOM     17  C   UNL     1      34.740  -5.562 -25.771  0.00  0.00    +0.015 C 
ATOM     18  C   UNL     1      34.421  -4.537 -26.660  0.00  0.00    +0.077 C 
ATOM     19  C   UNL     1      33.276  -3.786 -26.432  0.00  0.00    +0.112 C 
ATOM     20  H   UNL     1      31.227  -4.917 -23.148  0.00  0.00    +0.154 HD
ENDBRANCH   9  13
ENDBRANCH   3   9
BRANCH   1  21
ATOM     21  C   UNL     1      33.408 -13.811 -25.306  0.00  0.00    +0.117 C 
BRANCH  21  23
ATOM     22  N   UNL     1      34.969 -16.275 -22.896  0.00  0.00    -0.240 NA
ATOM     23  C   UNL     1      33.929 -15.101 -24.736  0.00  0.00    +0.017 C 
ATOM     24  C   UNL     1      33.872 -16.283 -25.468  0.00  0.00    +0.000 C 
ATOM     25  C   UNL     1      34.482 -15.151 -23.467  0.00  0.00    +0.096 C 
ATOM     26  C   UNL     1      34.363 -17.460 -24.914  0.00  0.00    +0.023 C 
ATOM     27  C   UNL     1      34.896 -17.404 -23.637  0.00  0.00    +0.153 C 
BRANCH  27  31
ATOM     28  F   UNL     1      35.171 -19.779 -23.735  0.00  0.00    -0.164 F 
ATOM     29  F   UNL     1      36.786 -18.638 -22.844  0.00  0.00    -0.164 F 
ATOM     30  F   UNL     1      34.910 -18.880 -21.772  0.00  0.00    -0.164 F 
ATOM     31  C   UNL     1      35.431 -18.649 -23.013  0.00  0.00    +0.435 C 
ENDBRANCH  27  31
ENDBRANCH  21  23
ENDBRANCH   1  21
TORSDOF 5
ENDMDL
