MODEL 1
REMARK VINA RESULT:     -12.2      0.000      0.000
REMARK  Name = 447731
REMARK  4 active torsions:
REMARK  status: ('A' for Active; 'I' for Inactive)
REMARK    1  A    between atoms: N_2  and  C_13
REMARK    2  A    between atoms: C_3  and  C_19
REMARK    3  A    between atoms: C_6  and  C_17
REMARK    4  A    between atoms: C_27  and  C_31
REMARK                            x       y       z     vdW  Elec       q    Type
REMARK                         _______ _______ _______ _____ _____    ______ ____
ROOT
ATOM      1  O   UNL     1      33.877 -24.059 -18.107  0.00  0.00    -0.270 OA
ATOM      2  N   UNL     1      35.208 -22.587 -16.846  0.00  0.00    -0.280 N 
ATOM      3  C   UNL     1      34.448 -22.985 -17.953  0.00  0.00    +0.249 C 
ATOM      4  H   UNL     1      35.597 -21.683 -16.891  0.00  0.00    +0.155 HD
ENDROOT
BRANCH   2  13
ATOM      5  N   UNL     1      37.239 -26.679 -12.299  0.00  0.00    +0.387 N 
ATOM      6  C   UNL     1      38.164 -25.728 -14.383  0.00  0.00    +0.001 C 
ATOM      7  C   UNL     1      36.933 -24.837 -14.457  0.00  0.00    -0.029 C 
ATOM      8  C   UNL     1      38.457 -26.189 -12.941  0.00  0.00    -0.077 C 
ATOM      9  C   UNL     1      36.027 -24.798 -13.378  0.00  0.00    -0.048 C 
ATOM     10  C   UNL     1      36.295 -25.574 -12.113  0.00  0.00    -0.055 C 
ATOM     11  C   UNL     1      36.631 -24.105 -15.617  0.00  0.00    +0.010 C 
ATOM     12  C   UNL     1      34.882 -23.990 -13.454  0.00  0.00    -0.005 C 
ATOM     13  C   UNL     1      35.482 -23.315 -15.686  0.00  0.00    +0.050 C 
ATOM     14  C   UNL     1      34.612 -23.253 -14.604  0.00  0.00    +0.014 C 
ATOM     15  H   UNL     1      37.473 -27.079 -11.390  0.00  0.00    -0.084 HD
ATOM     16  H   UNL     1      36.810 -27.390 -12.890  0.00  0.00    -0.084 HD
BRANCH   6  17
ATOM     17  C   UNL     1      39.430 -25.078 -14.953  0.00  0.00    +0.002 C 
ATOM     18  C   UNL     1      40.665 -25.872 -14.587  0.00  0.00    +0.000 C 
ENDBRANCH   6  17
ENDBRANCH   2  13
BRANCH   3  19
ATOM     19  C   UNL     1      34.361 -21.991 -19.056  0.00  0.00    +0.054 C 
ATOM     20  C   UNL     1      35.450 -20.437 -20.533  0.00  0.00    +0.000 C 
ATOM     21  C   UNL     1      34.195 -20.136 -21.115  0.00  0.00    +0.000 C 
ATOM     22  C   UNL     1      35.516 -21.379 -19.492  0.00  0.00    +0.005 C 
ATOM     23  C   UNL     1      33.129 -21.716 -19.604  0.00  0.00    +0.005 C 
ATOM     24  C   UNL     1      33.044 -20.784 -20.638  0.00  0.00    +0.000 C 
ATOM     25  C   UNL     1      34.129 -19.194 -22.155  0.00  0.00    +0.003 C 
ATOM     26  C   UNL     1      36.601 -19.789 -21.009  0.00  0.00    +0.000 C 
ATOM     27  C   UNL     1      35.282 -18.560 -22.616  0.00  0.00    +0.031 C 
ATOM     28  C   UNL     1      36.516 -18.857 -22.043  0.00  0.00    +0.003 C 
BRANCH  27  31
ATOM     29  N   UNL     1      34.560 -17.893 -24.895  0.00  0.00    -0.343 N 
ATOM     30  N   UNL     1      35.732 -16.390 -23.545  0.00  0.00    -0.285 NA
ATOM     31  C   UNL     1      35.196 -17.588 -23.694  0.00  0.00    +0.117 C 
ATOM     32  H   UNL     1      34.513 -17.220 -25.612  0.00  0.00    +0.144 HD
ATOM     33  H   UNL     1      34.156 -18.781 -25.027  0.00  0.00    +0.144 HD
ATOM     34  H   UNL     1      35.675 -15.731 -24.273  0.00  0.00    +0.188 HD
ENDBRANCH  27  31
ENDBRANCH   3  19
TORSDOF 4
ENDMDL
MODEL 2
REMARK VINA RESULT:     -11.1      1.172      2.635
REMARK  Name = 447731
REMARK  4 active torsions:
REMARK  status: ('A' for Active; 'I' for Inactive)
REMARK    1  A    between atoms: N_2  and  C_13
REMARK    2  A    between atoms: C_3  and  C_19
REMARK    3  A    between atoms: C_6  and  C_17
REMARK    4  A    between atoms: C_27  and  C_31
REMARK                            x       y       z     vdW  Elec       q    Type
REMARK                         _______ _______ _______ _____ _____    ______ ____
ROOT
ATOM      1  O   UNL     1      34.208 -23.570 -18.092  0.00  0.00    -0.270 OA
ATOM      2  N   UNL     1      35.913 -22.159 -17.299  0.00  0.00    -0.280 N 
ATOM      3  C   UNL     1      34.897 -22.559 -18.176  0.00  0.00    +0.249 C 
ATOM      4  H   UNL     1      36.366 -21.313 -17.519  0.00  0.00    +0.155 HD
ENDROOT
BRANCH   2  13
ATOM      5  N   UNL     1      36.891 -24.670 -11.443  0.00  0.00    +0.387 N 
ATOM      6  C   UNL     1      34.930 -24.079 -12.824  0.00  0.00    +0.001 C 
ATOM      7  C   UNL     1      35.892 -23.779 -13.964  0.00  0.00    -0.029 C 
ATOM      8  C   UNL     1      35.532 -25.067 -11.805  0.00  0.00    -0.077 C 
ATOM      9  C   UNL     1      37.259 -24.099 -13.833  0.00  0.00    -0.048 C 
ATOM     10  C   UNL     1      37.775 -24.804 -12.604  0.00  0.00    -0.055 C 
ATOM     11  C   UNL     1      35.465 -23.112 -15.123  0.00  0.00    +0.010 C 
ATOM     12  C   UNL     1      38.150 -23.806 -14.876  0.00  0.00    -0.005 C 
ATOM     13  C   UNL     1      36.363 -22.813 -16.150  0.00  0.00    +0.050 C 
ATOM     14  C   UNL     1      37.703 -23.165 -16.029  0.00  0.00    +0.014 C 
ATOM     15  H   UNL     1      37.229 -25.268 -10.689  0.00  0.00    -0.084 HD
ATOM     16  H   UNL     1      36.886 -23.697 -11.136  0.00  0.00    -0.084 HD
BRANCH   6  17
ATOM     17  C   UNL     1      33.575 -24.625 -13.291  0.00  0.00    +0.002 C 
ATOM     18  C   UNL     1      32.548 -23.519 -13.398  0.00  0.00    +0.000 C 
ENDBRANCH   6  17
ENDBRANCH   2  13
BRANCH   3  19
ATOM     19  C   UNL     1      34.666 -21.659 -19.336  0.00  0.00    +0.054 C 
ATOM     20  C   UNL     1      35.539 -20.142 -20.986  0.00  0.00    +0.000 C 
ATOM     21  C   UNL     1      34.231 -19.977 -21.503  0.00  0.00    +0.000 C 
ATOM     22  C   UNL     1      35.741 -20.996 -19.889  0.00  0.00    +0.005 C 
ATOM     23  C   UNL     1      33.385 -21.516 -19.819  0.00  0.00    +0.005 C 
ATOM     24  C   UNL     1      33.165 -20.672 -20.907  0.00  0.00    +0.000 C 
ATOM     25  C   UNL     1      34.028 -19.123 -22.598  0.00  0.00    +0.003 C 
ATOM     26  C   UNL     1      36.604 -19.447 -21.580  0.00  0.00    +0.000 C 
ATOM     27  C   UNL     1      35.099 -18.440 -23.177  0.00  0.00    +0.031 C 
ATOM     28  C   UNL     1      36.385 -18.603 -22.668  0.00  0.00    +0.003 C 
BRANCH  27  31
ATOM     29  N   UNL     1      35.241 -16.216 -24.270  0.00  0.00    -0.343 N 
ATOM     30  N   UNL     1      34.302 -18.029 -25.405  0.00  0.00    -0.285 NA
ATOM     31  C   UNL     1      34.872 -17.559 -24.311  0.00  0.00    +0.117 C 
ATOM     32  H   UNL     1      35.079 -15.637 -25.050  0.00  0.00    +0.144 HD
ATOM     33  H   UNL     1      35.666 -15.846 -23.462  0.00  0.00    +0.144 HD
ATOM     34  H   UNL     1      34.147 -17.434 -26.174  0.00  0.00    +0.188 HD
ENDBRANCH  27  31
ENDBRANCH   3  19
TORSDOF 4
ENDMDL
MODEL 3
REMARK VINA RESULT:     -10.4      7.519     12.613
REMARK  Name = 447731
REMARK  4 active torsions:
REMARK  status: ('A' for Active; 'I' for Inactive)
REMARK    1  A    between atoms: N_2  and  C_13
REMARK    2  A    between atoms: C_3  and  C_19
REMARK    3  A    between atoms: C_6  and  C_17
REMARK    4  A    between atoms: C_27  and  C_31
REMARK                            x       y       z     vdW  Elec       q    Type
REMARK                         _______ _______ _______ _____ _____    ______ ____
ROOT
ATOM      1  O   UNL     1      33.201 -13.242 -22.266  0.00  0.00    -0.270 OA
ATOM      2  N   UNL     1      33.737 -13.458 -24.546  0.00  0.00    -0.280 N 
ATOM      3  C   UNL     1      33.459 -12.759 -23.364  0.00  0.00    +0.249 C 
ATOM      4  H   UNL     1      33.923 -12.906 -25.340  0.00  0.00    +0.155 HD
ENDROOT
BRANCH   2  13
ATOM      5  N   UNL     1      35.070 -19.761 -24.722  0.00  0.00    +0.387 N 
ATOM      6  C   UNL     1      35.458 -17.901 -23.144  0.00  0.00    +0.001 C 
ATOM      7  C   UNL     1      34.599 -17.029 -24.047  0.00  0.00    -0.029 C 
ATOM      8  C   UNL     1      35.133 -19.399 -23.308  0.00  0.00    -0.077 C 
ATOM      9  C   UNL     1      33.899 -17.608 -25.125  0.00  0.00    -0.048 C 
ATOM     10  C   UNL     1      33.929 -19.098 -25.357  0.00  0.00    -0.055 C 
ATOM     11  C   UNL     1      34.548 -15.635 -23.882  0.00  0.00    +0.010 C 
ATOM     12  C   UNL     1      33.121 -16.801 -25.969  0.00  0.00    -0.005 C 
ATOM     13  C   UNL     1      33.781 -14.840 -24.736  0.00  0.00    +0.050 C 
ATOM     14  C   UNL     1      33.064 -15.423 -25.775  0.00  0.00    +0.014 C 
ATOM     15  H   UNL     1      34.964 -20.773 -24.809  0.00  0.00    -0.084 HD
ATOM     16  H   UNL     1      35.930 -19.464 -25.183  0.00  0.00    -0.084 HD
BRANCH   6  17
ATOM     17  C   UNL     1      35.353 -17.539 -21.658  0.00  0.00    +0.002 C 
ATOM     18  C   UNL     1      36.040 -18.573 -20.793  0.00  0.00    +0.000 C 
ENDBRANCH   6  17
ENDBRANCH   2  13
BRANCH   3  19
ATOM     19  C   UNL     1      33.458 -11.278 -23.484  0.00  0.00    +0.054 C 
ATOM     20  C   UNL     1      32.319  -9.178 -23.198  0.00  0.00    +0.000 C 
ATOM     21  C   UNL     1      33.457  -8.510 -23.711  0.00  0.00    +0.000 C 
ATOM     22  C   UNL     1      32.336 -10.579 -23.090  0.00  0.00    +0.005 C 
ATOM     23  C   UNL     1      34.577 -10.653 -23.986  0.00  0.00    +0.005 C 
ATOM     24  C   UNL     1      34.578  -9.263 -24.101  0.00  0.00    +0.000 C 
ATOM     25  C   UNL     1      33.441  -7.110 -23.820  0.00  0.00    +0.003 C 
ATOM     26  C   UNL     1      31.199  -8.427 -22.809  0.00  0.00    +0.000 C 
ATOM     27  C   UNL     1      32.319  -6.379 -23.428  0.00  0.00    +0.031 C 
ATOM     28  C   UNL     1      31.200  -7.037 -22.924  0.00  0.00    +0.003 C 
BRANCH  27  31
ATOM     29  N   UNL     1      31.912  -4.117 -22.491  0.00  0.00    -0.343 N 
ATOM     30  N   UNL     1      32.703  -4.362 -24.675  0.00  0.00    -0.285 NA
ATOM     31  C   UNL     1      32.318  -4.930 -23.547  0.00  0.00    +0.117 C 
ATOM     32  H   UNL     1      31.920  -3.137 -22.592  0.00  0.00    +0.144 HD
ATOM     33  H   UNL     1      31.619  -4.521 -21.642  0.00  0.00    +0.144 HD
ATOM     34  H   UNL     1      32.703  -3.380 -24.757  0.00  0.00    +0.188 HD
ENDBRANCH  27  31
ENDBRANCH   3  19
TORSDOF 4
ENDMDL
MODEL 4
REMARK VINA RESULT:     -10.4      8.190     15.063
REMARK  Name = 447731
REMARK  4 active torsions:
REMARK  status: ('A' for Active; 'I' for Inactive)
REMARK    1  A    between atoms: N_2  and  C_13
REMARK    2  A    between atoms: C_3  and  C_19
REMARK    3  A    between atoms: C_6  and  C_17
REMARK    4  A    between atoms: C_27  and  C_31
REMARK                            x       y       z     vdW  Elec       q    Type
REMARK                         _______ _______ _______ _____ _____    ______ ____
ROOT
ATOM      1  O   UNL     1      33.449 -11.486 -25.440  0.00  0.00    -0.270 OA
ATOM      2  N   UNL     1      33.013 -11.048 -23.171  0.00  0.00    -0.280 N 
ATOM      3  C   UNL     1      33.423 -11.826 -24.261  0.00  0.00    +0.249 C 
ATOM      4  H   UNL     1      33.058 -11.483 -22.289  0.00  0.00    +0.155 HD
ENDROOT
BRANCH   2  13
ATOM      5  N   UNL     1      32.164  -4.658 -23.156  0.00  0.00    +0.387 N 
ATOM      6  C   UNL     1      33.889  -6.225 -23.977  0.00  0.00    +0.001 C 
ATOM      7  C   UNL     1      32.957  -7.365 -23.594  0.00  0.00    -0.029 C 
ATOM      8  C   UNL     1      33.122  -4.912 -24.231  0.00  0.00    -0.077 C 
ATOM      9  C   UNL     1      31.638  -7.086 -23.180  0.00  0.00    -0.048 C 
ATOM     10  C   UNL     1      31.108  -5.674 -23.179  0.00  0.00    -0.055 C 
ATOM     11  C   UNL     1      33.405  -8.695 -23.565  0.00  0.00    +0.010 C 
ATOM     12  C   UNL     1      30.784  -8.136 -22.810  0.00  0.00    -0.005 C 
ATOM     13  C   UNL     1      32.549  -9.731 -23.181  0.00  0.00    +0.050 C 
ATOM     14  C   UNL     1      31.239  -9.452 -22.810  0.00  0.00    +0.014 C 
ATOM     15  H   UNL     1      31.748  -3.736 -23.285  0.00  0.00    -0.084 HD
ATOM     16  H   UNL     1      32.648  -4.698 -22.259  0.00  0.00    -0.084 HD
BRANCH   6  17
ATOM     17  C   UNL     1      34.759  -6.527 -25.203  0.00  0.00    +0.002 C 
ATOM     18  C   UNL     1      34.855  -5.323 -26.114  0.00  0.00    +0.000 C 
ENDBRANCH   6  17
ENDBRANCH   2  13
BRANCH   3  19
ATOM     19  C   UNL     1      33.842 -13.213 -23.933  0.00  0.00    +0.054 C 
ATOM     20  C   UNL     1      34.523 -14.837 -22.293  0.00  0.00    +0.000 C 
ATOM     21  C   UNL     1      34.624 -15.806 -23.320  0.00  0.00    +0.000 C 
ATOM     22  C   UNL     1      34.125 -13.529 -22.620  0.00  0.00    +0.005 C 
ATOM     23  C   UNL     1      33.932 -14.137 -24.949  0.00  0.00    +0.005 C 
ATOM     24  C   UNL     1      34.326 -15.440 -24.643  0.00  0.00    +0.000 C 
ATOM     25  C   UNL     1      35.022 -17.113 -22.994  0.00  0.00    +0.003 C 
ATOM     26  C   UNL     1      34.822 -15.203 -20.972  0.00  0.00    +0.000 C 
ATOM     27  C   UNL     1      35.315 -17.460 -21.675  0.00  0.00    +0.031 C 
ATOM     28  C   UNL     1      35.215 -16.506 -20.666  0.00  0.00    +0.003 C 
BRANCH  27  31
ATOM     29  N   UNL     1      35.038 -19.920 -21.857  0.00  0.00    -0.343 N 
ATOM     30  N   UNL     1      36.766 -19.022 -20.567  0.00  0.00    -0.285 NA
ATOM     31  C   UNL     1      35.725 -18.817 -21.354  0.00  0.00    +0.117 C 
ATOM     32  H   UNL     1      35.333 -20.831 -21.627  0.00  0.00    +0.144 HD
ATOM     33  H   UNL     1      34.258 -19.789 -22.443  0.00  0.00    +0.144 HD
ATOM     34  H   UNL     1      37.045 -19.940 -20.348  0.00  0.00    +0.188 HD
ENDBRANCH  27  31
ENDBRANCH   3  19
TORSDOF 4
ENDMDL
MODEL 5
REMARK VINA RESULT:     -10.4      8.974     13.903
REMARK  Name = 447731
REMARK  4 active torsions:
REMARK  status: ('A' for Active; 'I' for Inactive)
REMARK    1  A    between atoms: N_2  and  C_13
REMARK    2  A    between atoms: C_3  and  C_19
REMARK    3  A    between atoms: C_6  and  C_17
REMARK    4  A    between atoms: C_27  and  C_31
REMARK                            x       y       z     vdW  Elec       q    Type
REMARK                         _______ _______ _______ _____ _____    ______ ____
ROOT
ATOM      1  O   UNL     1      31.915 -11.859 -21.533  0.00  0.00    -0.270 OA
ATOM      2  N   UNL     1      33.000 -11.568 -23.600  0.00  0.00    -0.280 N 
ATOM      3  C   UNL     1      32.351 -11.147 -22.432  0.00  0.00    +0.249 C 
ATOM      4  H   UNL     1      33.285 -10.855 -24.216  0.00  0.00    +0.155 HD
ENDROOT
BRANCH   2  13
ATOM      5  N   UNL     1      35.344 -17.495 -24.557  0.00  0.00    +0.387 N 
ATOM      6  C   UNL     1      35.214 -15.915 -22.663  0.00  0.00    +0.001 C 
ATOM      7  C   UNL     1      34.353 -15.019 -23.542  0.00  0.00    -0.029 C 
ATOM      8  C   UNL     1      35.159 -17.389 -23.112  0.00  0.00    -0.077 C 
ATOM      9  C   UNL     1      33.904 -15.484 -24.795  0.00  0.00    -0.048 C 
ATOM     10  C   UNL     1      34.204 -16.890 -25.252  0.00  0.00    -0.055 C 
ATOM     11  C   UNL     1      34.056 -13.698 -23.168  0.00  0.00    +0.010 C 
ATOM     12  C   UNL     1      33.125 -14.652 -25.612  0.00  0.00    -0.005 C 
ATOM     13  C   UNL     1      33.291 -12.874 -23.997  0.00  0.00    +0.050 C 
ATOM     14  C   UNL     1      32.821 -13.353 -25.215  0.00  0.00    +0.014 C 
ATOM     15  H   UNL     1      35.414 -18.479 -24.818  0.00  0.00    -0.084 HD
ATOM     16  H   UNL     1      36.198 -17.005 -24.824  0.00  0.00    -0.084 HD
BRANCH   6  17
ATOM     17  C   UNL     1      34.856 -15.844 -21.174  0.00  0.00    +0.002 C 
ATOM     18  C   UNL     1      35.210 -17.133 -20.465  0.00  0.00    +0.000 C 
ENDBRANCH   6  17
ENDBRANCH   2  13
BRANCH   3  19
ATOM     19  C   UNL     1      32.159  -9.678 -22.303  0.00  0.00    +0.054 C 
ATOM     20  C   UNL     1      31.699  -7.553 -23.331  0.00  0.00    +0.000 C 
ATOM     21  C   UNL     1      31.803  -6.935 -22.061  0.00  0.00    +0.000 C 
ATOM     22  C   UNL     1      31.882  -8.942 -23.436  0.00  0.00    +0.005 C 
ATOM     23  C   UNL     1      32.266  -9.102 -21.058  0.00  0.00    +0.005 C 
ATOM     24  C   UNL     1      32.087  -7.725 -20.935  0.00  0.00    +0.000 C 
ATOM     25  C   UNL     1      31.620  -5.547 -21.955  0.00  0.00    +0.003 C 
ATOM     26  C   UNL     1      31.415  -6.764 -24.457  0.00  0.00    +0.000 C 
ATOM     27  C   UNL     1      31.339  -4.778 -23.085  0.00  0.00    +0.031 C 
ATOM     28  C   UNL     1      31.236  -5.386 -24.334  0.00  0.00    +0.003 C 
BRANCH  27  31
ATOM     29  N   UNL     1      31.924  -2.444 -23.694  0.00  0.00    -0.343 N 
ATOM     30  N   UNL     1      30.240  -2.866 -22.132  0.00  0.00    -0.285 NA
ATOM     31  C   UNL     1      31.152  -3.342 -22.959  0.00  0.00    +0.117 C 
ATOM     32  H   UNL     1      31.781  -1.475 -23.593  0.00  0.00    +0.144 HD
ATOM     33  H   UNL     1      32.612  -2.778 -24.314  0.00  0.00    +0.144 HD
ATOM     34  H   UNL     1      30.112  -1.894 -22.045  0.00  0.00    +0.188 HD
ENDBRANCH  27  31
ENDBRANCH   3  19
TORSDOF 4
ENDMDL
MODEL 6
REMARK VINA RESULT:     -10.1      0.725      1.525
REMARK  Name = 447731
REMARK  4 active torsions:
REMARK  status: ('A' for Active; 'I' for Inactive)
REMARK    1  A    between atoms: N_2  and  C_13
REMARK    2  A    between atoms: C_3  and  C_19
REMARK    3  A    between atoms: C_6  and  C_17
REMARK    4  A    between atoms: C_27  and  C_31
REMARK                            x       y       z     vdW  Elec       q    Type
REMARK                         _______ _______ _______ _____ _____    ______ ____
ROOT
ATOM      1  O   UNL     1      34.542 -23.513 -18.188  0.00  0.00    -0.270 OA
ATOM      2  N   UNL     1      36.125 -22.352 -16.894  0.00  0.00    -0.280 N 
ATOM      3  C   UNL     1      35.332 -22.589 -18.024  0.00  0.00    +0.249 C 
ATOM      4  H   UNL     1      36.707 -21.558 -16.933  0.00  0.00    +0.155 HD
ENDROOT
BRANCH   2  13
ATOM      5  N   UNL     1      37.166 -26.659 -12.213  0.00  0.00    +0.387 N 
ATOM      6  C   UNL     1      38.391 -25.859 -14.203  0.00  0.00    +0.001 C 
ATOM      7  C   UNL     1      37.307 -24.806 -14.378  0.00  0.00    -0.029 C 
ATOM      8  C   UNL     1      38.491 -26.348 -12.744  0.00  0.00    -0.077 C 
ATOM      9  C   UNL     1      36.325 -24.634 -13.381  0.00  0.00    -0.048 C 
ATOM     10  C   UNL     1      36.372 -25.433 -12.103  0.00  0.00    -0.055 C 
ATOM     11  C   UNL     1      37.212 -24.046 -15.556  0.00  0.00    +0.010 C 
ATOM     12  C   UNL     1      35.315 -23.675 -13.551  0.00  0.00    -0.005 C 
ATOM     13  C   UNL     1      36.194 -23.104 -15.719  0.00  0.00    +0.050 C 
ATOM     14  C   UNL     1      35.251 -22.915 -14.716  0.00  0.00    +0.014 C 
ATOM     15  H   UNL     1      37.262 -27.083 -11.290  0.00  0.00    -0.084 HD
ATOM     16  H   UNL     1      36.695 -27.308 -12.844  0.00  0.00    -0.084 HD
BRANCH   6  17
ATOM     17  C   UNL     1      39.780 -25.395 -14.658  0.00  0.00    +0.002 C 
ATOM     18  C   UNL     1      40.845 -26.398 -14.273  0.00  0.00    +0.000 C 
ENDBRANCH   6  17
ENDBRANCH   2  13
BRANCH   3  19
ATOM     19  C   UNL     1      35.502 -21.618 -19.137  0.00  0.00    +0.054 C 
ATOM     20  C   UNL     1      34.548 -20.361 -20.952  0.00  0.00    +0.000 C 
ATOM     21  C   UNL     1      35.823 -19.806 -21.216  0.00  0.00    +0.000 C 
ATOM     22  C   UNL     1      34.403 -21.277 -19.896  0.00  0.00    +0.005 C 
ATOM     23  C   UNL     1      36.752 -21.093 -19.373  0.00  0.00    +0.005 C 
ATOM     24  C   UNL     1      36.915 -20.183 -20.417  0.00  0.00    +0.000 C 
ATOM     25  C   UNL     1      35.968 -18.891 -22.271  0.00  0.00    +0.003 C 
ATOM     26  C   UNL     1      33.456 -19.986 -21.751  0.00  0.00    +0.000 C 
ATOM     27  C   UNL     1      34.872 -18.529 -23.055  0.00  0.00    +0.031 C 
ATOM     28  C   UNL     1      33.619 -19.075 -22.795  0.00  0.00    +0.003 C 
BRANCH  27  31
ATOM     29  N   UNL     1      34.573 -17.860 -25.427  0.00  0.00    -0.343 N 
ATOM     30  N   UNL     1      35.647 -16.428 -23.926  0.00  0.00    -0.285 NA
ATOM     31  C   UNL     1      35.040 -17.580 -24.144  0.00  0.00    +0.117 C 
ATOM     32  H   UNL     1      34.697 -17.203 -26.150  0.00  0.00    +0.144 HD
ATOM     33  H   UNL     1      34.119 -18.714 -25.611  0.00  0.00    +0.144 HD
ATOM     34  H   UNL     1      35.762 -15.784 -24.662  0.00  0.00    +0.188 HD
ENDBRANCH  27  31
ENDBRANCH   3  19
TORSDOF 4
ENDMDL
MODEL 7
REMARK VINA RESULT:     -10.1      8.632     15.575
REMARK  Name = 447731
REMARK  4 active torsions:
REMARK  status: ('A' for Active; 'I' for Inactive)
REMARK    1  A    between atoms: N_2  and  C_13
REMARK    2  A    between atoms: C_3  and  C_19
REMARK    3  A    between atoms: C_6  and  C_17
REMARK    4  A    between atoms: C_27  and  C_31
REMARK                            x       y       z     vdW  Elec       q    Type
REMARK                         _______ _______ _______ _____ _____    ______ ____
ROOT
ATOM      1  O   UNL     1      31.893 -11.151 -21.507  0.00  0.00    -0.270 OA
ATOM      2  N   UNL     1      32.810 -10.324 -23.508  0.00  0.00    -0.280 N 
ATOM      3  C   UNL     1      32.559 -11.292 -22.527  0.00  0.00    +0.249 C 
ATOM      4  H   UNL     1      33.368 -10.612 -24.267  0.00  0.00    +0.155 HD
ENDROOT
BRANCH   2  13
ATOM      5  N   UNL     1      32.061  -3.923 -23.624  0.00  0.00    +0.387 N 
ATOM      6  C   UNL     1      33.752  -5.534 -24.429  0.00  0.00    +0.001 C 
ATOM      7  C   UNL     1      32.806  -6.650 -24.011  0.00  0.00    -0.029 C 
ATOM      8  C   UNL     1      33.002  -4.215 -24.703  0.00  0.00    -0.077 C 
ATOM      9  C   UNL     1      31.496  -6.342 -23.589  0.00  0.00    -0.048 C 
ATOM     10  C   UNL     1      30.989  -4.922 -23.614  0.00  0.00    -0.055 C 
ATOM     11  C   UNL     1      33.233  -7.987 -23.958  0.00  0.00    +0.010 C 
ATOM     12  C   UNL     1      30.630  -7.370 -23.187  0.00  0.00    -0.005 C 
ATOM     13  C   UNL     1      32.366  -9.000 -23.542  0.00  0.00    +0.050 C 
ATOM     14  C   UNL     1      31.065  -8.692 -23.163  0.00  0.00    +0.014 C 
ATOM     15  H   UNL     1      31.658  -2.997 -23.768  0.00  0.00    -0.084 HD
ATOM     16  H   UNL     1      32.554  -3.950 -22.732  0.00  0.00    -0.084 HD
BRANCH   6  17
ATOM     17  C   UNL     1      34.602  -5.877 -25.657  0.00  0.00    +0.002 C 
ATOM     18  C   UNL     1      34.521  -4.783 -26.701  0.00  0.00    +0.000 C 
ENDBRANCH   6  17
ENDBRANCH   2  13
BRANCH   3  19
ATOM     19  C   UNL     1      33.197 -12.614 -22.759  0.00  0.00    +0.054 C 
ATOM     20  C   UNL     1      34.196 -14.614 -21.871  0.00  0.00    +0.000 C 
ATOM     21  C   UNL     1      34.390 -15.084 -23.193  0.00  0.00    +0.000 C 
ATOM     22  C   UNL     1      33.591 -13.362 -21.669  0.00  0.00    +0.005 C 
ATOM     23  C   UNL     1      33.375 -13.047 -24.053  0.00  0.00    +0.005 C 
ATOM     24  C   UNL     1      33.974 -14.287 -24.273  0.00  0.00    +0.000 C 
ATOM     25  C   UNL     1      34.996 -16.334 -23.396  0.00  0.00    +0.003 C 
ATOM     26  C   UNL     1      34.613 -15.410 -20.793  0.00  0.00    +0.000 C 
ATOM     27  C   UNL     1      35.404 -17.112 -22.312  0.00  0.00    +0.031 C 
ATOM     28  C   UNL     1      35.212 -16.650 -21.012  0.00  0.00    +0.003 C 
BRANCH  27  31
ATOM     29  N   UNL     1      37.369 -18.626 -22.226  0.00  0.00    -0.343 N 
ATOM     30  N   UNL     1      35.325 -19.395 -23.054  0.00  0.00    -0.285 NA
ATOM     31  C   UNL     1      36.029 -18.404 -22.538  0.00  0.00    +0.117 C 
ATOM     32  H   UNL     1      37.773 -19.510 -22.387  0.00  0.00    +0.144 HD
ATOM     33  H   UNL     1      37.912 -17.900 -21.842  0.00  0.00    +0.144 HD
ATOM     34  H   UNL     1      35.746 -20.271 -23.209  0.00  0.00    +0.188 HD
ENDBRANCH  27  31
ENDBRANCH   3  19
TORSDOF 4
ENDMDL
MODEL 8
REMARK VINA RESULT:     -10.1      9.195     15.108
REMARK  Name = 447731
REMARK  4 active torsions:
REMARK  status: ('A' for Active; 'I' for Inactive)
REMARK    1  A    between atoms: N_2  and  C_13
REMARK    2  A    between atoms: C_3  and  C_19
REMARK    3  A    between atoms: C_6  and  C_17
REMARK    4  A    between atoms: C_27  and  C_31
REMARK                            x       y       z     vdW  Elec       q    Type
REMARK                         _______ _______ _______ _____ _____    ______ ____
ROOT
ATOM      1  O   UNL     1      34.445 -10.454 -24.557  0.00  0.00    -0.270 OA
ATOM      2  N   UNL     1      32.723 -10.851 -23.004  0.00  0.00    -0.280 N 
ATOM      3  C   UNL     1      33.675 -11.207 -23.969  0.00  0.00    +0.249 C 
ATOM      4  H   UNL     1      32.187 -11.589 -22.633  0.00  0.00    +0.155 HD
ENDROOT
BRANCH   2  13
ATOM      5  N   UNL     1      32.238  -4.564 -21.668  0.00  0.00    +0.387 N 
ATOM      6  C   UNL     1      32.596  -5.933 -23.693  0.00  0.00    +0.001 C 
ATOM      7  C   UNL     1      32.352  -7.166 -22.835  0.00  0.00    -0.029 C 
ATOM      8  C   UNL     1      31.939  -4.674 -23.095  0.00  0.00    -0.077 C 
ATOM      9  C   UNL     1      31.905  -7.021 -21.506  0.00  0.00    -0.048 C 
ATOM     10  C   UNL     1      31.593  -5.659 -20.938  0.00  0.00    -0.055 C 
ATOM     11  C   UNL     1      32.640  -8.455 -23.312  0.00  0.00    +0.010 C 
ATOM     12  C   UNL     1      31.697  -8.157 -20.709  0.00  0.00    -0.005 C 
ATOM     13  C   UNL     1      32.441  -9.578 -22.505  0.00  0.00    +0.050 C 
ATOM     14  C   UNL     1      31.965  -9.429 -21.208  0.00  0.00    +0.014 C 
ATOM     15  H   UNL     1      31.889  -3.672 -21.317  0.00  0.00    -0.084 HD
ATOM     16  H   UNL     1      33.247  -4.618 -21.532  0.00  0.00    -0.084 HD
BRANCH   6  17
ATOM     17  C   UNL     1      32.123  -6.089 -25.143  0.00  0.00    +0.002 C 
ATOM     18  C   UNL     1      32.866  -5.147 -26.065  0.00  0.00    +0.000 C 
ENDBRANCH   6  17
ENDBRANCH   2  13
BRANCH   3  19
ATOM     19  C   UNL     1      33.721 -12.651 -24.316  0.00  0.00    +0.054 C 
ATOM     20  C   UNL     1      34.344 -14.902 -23.737  0.00  0.00    +0.000 C 
ATOM     21  C   UNL     1      33.804 -15.350 -24.967  0.00  0.00    +0.000 C 
ATOM     22  C   UNL     1      34.293 -13.533 -23.423  0.00  0.00    +0.005 C 
ATOM     23  C   UNL     1      33.190 -13.061 -25.518  0.00  0.00    +0.005 C 
ATOM     24  C   UNL     1      33.231 -14.416 -25.846  0.00  0.00    +0.000 C 
ATOM     25  C   UNL     1      33.855 -16.717 -25.282  0.00  0.00    +0.003 C 
ATOM     26  C   UNL     1      34.917 -15.834 -22.859  0.00  0.00    +0.000 C 
ATOM     27  C   UNL     1      34.429 -17.631 -24.397  0.00  0.00    +0.031 C 
ATOM     28  C   UNL     1      34.959 -17.189 -23.187  0.00  0.00    +0.003 C 
BRANCH  27  31
ATOM     29  N   UNL     1      34.968 -19.989 -23.842  0.00  0.00    -0.343 N 
ATOM     30  N   UNL     1      34.043 -19.450 -25.917  0.00  0.00    -0.285 NA
ATOM     31  C   UNL     1      34.473 -19.043 -24.737  0.00  0.00    +0.117 C 
ATOM     32  H   UNL     1      34.989 -20.941 -24.092  0.00  0.00    +0.144 HD
ATOM     33  H   UNL     1      35.297 -19.706 -22.957  0.00  0.00    +0.144 HD
ATOM     34  H   UNL     1      34.073 -20.406 -26.150  0.00  0.00    +0.188 HD
ENDBRANCH  27  31
ENDBRANCH   3  19
TORSDOF 4
ENDMDL
MODEL 9
REMARK VINA RESULT:     -10.0      1.969     10.190
REMARK  Name = 447731
REMARK  4 active torsions:
REMARK  status: ('A' for Active; 'I' for Inactive)
REMARK    1  A    between atoms: N_2  and  C_13
REMARK    2  A    between atoms: C_3  and  C_19
REMARK    3  A    between atoms: C_6  and  C_17
REMARK    4  A    between atoms: C_27  and  C_31
REMARK                            x       y       z     vdW  Elec       q    Type
REMARK                         _______ _______ _______ _____ _____    ______ ____
ROOT
ATOM      1  O   UNL     1      32.929 -21.196 -20.470  0.00  0.00    -0.270 OA
ATOM      2  N   UNL     1      35.042 -20.192 -20.229  0.00  0.00    -0.280 N 
ATOM      3  C   UNL     1      34.018 -21.095 -19.915  0.00  0.00    +0.249 C 
ATOM      4  H   UNL     1      35.855 -20.251 -19.676  0.00  0.00    +0.155 HD
ENDROOT
BRANCH   2  13
ATOM      5  N   UNL     1      35.136 -16.745 -25.674  0.00  0.00    +0.387 N 
ATOM      6  C   UNL     1      34.275 -18.953 -24.978  0.00  0.00    +0.001 C 
ATOM      7  C   UNL     1      34.659 -18.591 -23.551  0.00  0.00    -0.029 C 
ATOM      8  C   UNL     1      34.046 -17.703 -25.850  0.00  0.00    -0.077 C 
ATOM      9  C   UNL     1      35.093 -17.283 -23.250  0.00  0.00    -0.048 C 
ATOM     10  C   UNL     1      35.116 -16.211 -24.310  0.00  0.00    -0.055 C 
ATOM     11  C   UNL     1      34.668 -19.555 -22.530  0.00  0.00    +0.010 C 
ATOM     12  C   UNL     1      35.464 -16.954 -21.937  0.00  0.00    -0.005 C 
ATOM     13  C   UNL     1      35.052 -19.219 -21.230  0.00  0.00    +0.050 C 
ATOM     14  C   UNL     1      35.444 -17.919 -20.933  0.00  0.00    +0.014 C 
ATOM     15  H   UNL     1      35.023 -15.978 -26.338  0.00  0.00    -0.084 HD
ATOM     16  H   UNL     1      36.026 -17.215 -25.838  0.00  0.00    -0.084 HD
BRANCH   6  17
ATOM     17  C   UNL     1      33.035 -19.849 -25.072  0.00  0.00    +0.002 C 
ATOM     18  C   UNL     1      31.951 -19.195 -25.903  0.00  0.00    +0.000 C 
ENDBRANCH   6  17
ENDBRANCH   2  13
BRANCH   3  19
ATOM     19  C   UNL     1      34.295 -21.998 -18.767  0.00  0.00    +0.054 C 
ATOM     20  C   UNL     1      35.818 -22.808 -17.091  0.00  0.00    +0.000 C 
ATOM     21  C   UNL     1      34.811 -23.686 -16.623  0.00  0.00    +0.000 C 
ATOM     22  C   UNL     1      35.541 -21.961 -18.177  0.00  0.00    +0.005 C 
ATOM     23  C   UNL     1      33.299 -22.842 -18.332  0.00  0.00    +0.005 C 
ATOM     24  C   UNL     1      33.556 -23.690 -17.255  0.00  0.00    +0.000 C 
ATOM     25  C   UNL     1      35.087 -24.534 -15.538  0.00  0.00    +0.003 C 
ATOM     26  C   UNL     1      37.072 -22.805 -16.460  0.00  0.00    +0.000 C 
ATOM     27  C   UNL     1      36.339 -24.517 -14.923  0.00  0.00    +0.031 C 
ATOM     28  C   UNL     1      37.330 -23.653 -15.383  0.00  0.00    +0.003 C 
BRANCH  27  31
ATOM     29  N   UNL     1      37.736 -26.221 -13.780  0.00  0.00    -0.343 N 
ATOM     30  N   UNL     1      35.777 -25.439 -12.777  0.00  0.00    -0.285 NA
ATOM     31  C   UNL     1      36.610 -25.401 -13.801  0.00  0.00    +0.117 C 
ATOM     32  H   UNL     1      37.901 -26.812 -13.010  0.00  0.00    +0.144 HD
ATOM     33  H   UNL     1      38.369 -26.209 -14.534  0.00  0.00    +0.144 HD
ATOM     34  H   UNL     1      35.958 -26.037 -12.016  0.00  0.00    +0.188 HD
ENDBRANCH  27  31
ENDBRANCH   3  19
TORSDOF 4
ENDMDL
