MODEL 1
REMARK VINA RESULT:     -13.2      0.000      0.000
REMARK  Name = 16741238
REMARK  6 active torsions:
REMARK  status: ('A' for Active; 'I' for Inactive)
REMARK    1  A    between atoms: N_1  and  C_22
REMARK    2  A    between atoms: C_10  and  C_15
REMARK    3  A    between atoms: C_15  and  C_16
REMARK    4  A    between atoms: C_22  and  C_23
REMARK    5  A    between atoms: C_23  and  C_26
REMARK    6  A    between atoms: N_25  and  C_28
REMARK                            x       y       z     vdW  Elec       q    Type
REMARK                         _______ _______ _______ _____ _____    ______ ____
ROOT
ATOM      1  N   UNL     1      33.878 -13.943 -24.490  0.00  0.00    -0.249 N 
ATOM      2  N   UNL     1      33.472 -15.996 -25.675  0.00  0.00    -0.373 NA
ATOM      3  N   UNL     1      32.747 -13.984 -26.557  0.00  0.00    -0.321 N 
ATOM      4  C   UNL     1      34.573 -14.587 -23.374  0.00  0.00    +0.071 C 
ATOM      5  C   UNL     1      34.661 -16.080 -23.528  0.00  0.00    +0.045 C 
ATOM      6  C   UNL     1      33.379 -14.693 -25.559  0.00  0.00    +0.239 C 
ATOM      7  C   UNL     1      34.116 -16.713 -24.654  0.00  0.00    +0.136 C 
ATOM      8  C   UNL     1      35.294 -16.844 -22.538  0.00  0.00    +0.007 C 
ATOM      9  C   UNL     1      34.214 -18.105 -24.771  0.00  0.00    +0.032 C 
ATOM     10  C   UNL     1      35.385 -18.230 -22.665  0.00  0.00    +0.039 C 
ATOM     11  C   UNL     1      34.845 -18.860 -23.783  0.00  0.00    +0.006 C 
ATOM     12  H   UNL     1      32.667 -13.005 -26.491  0.00  0.00    +0.146 HD
ATOM     13  H   UNL     1      32.375 -14.457 -27.336  0.00  0.00    +0.146 HD
ENDROOT
BRANCH  10  15
ATOM     14  O   UNL     1      37.238 -18.821 -21.366  0.00  0.00    -0.287 OA
ATOM     15  C   UNL     1      36.043 -19.014 -21.633  0.00  0.00    +0.196 C 
BRANCH  15  16
ATOM     16  C   UNL     1      35.329 -20.071 -20.854  0.00  0.00    +0.039 C 
ATOM     17  C   UNL     1      36.055 -20.995 -20.103  0.00  0.00    +0.003 C 
ATOM     18  C   UNL     1      33.935 -20.132 -20.876  0.00  0.00    +0.003 C 
ATOM     19  C   UNL     1      35.389 -21.980 -19.375  0.00  0.00    +0.000 C 
ATOM     20  C   UNL     1      33.269 -21.117 -20.147  0.00  0.00    +0.000 C 
ATOM     21  C   UNL     1      33.996 -22.042 -19.397  0.00  0.00    +0.000 C 
ENDBRANCH  15  16
ENDBRANCH  10  15
BRANCH   1  22
ATOM     22  C   UNL     1      33.759 -12.491 -24.391  0.00  0.00    +0.109 C 
BRANCH  22  23
ATOM     23  C   UNL     1      33.055 -12.101 -23.094  0.00  0.00    +0.107 C 
BRANCH  23  26
ATOM     24  O   UNL     1      33.600  -9.805 -23.538  0.00  0.00    -0.275 OA
ATOM     25  N   UNL     1      31.873 -10.190 -22.040  0.00  0.00    -0.279 N 
ATOM     26  C   UNL     1      32.881 -10.595 -22.921  0.00  0.00    +0.227 C 
ATOM     27  C   UNL     1      31.032 -11.143 -21.319  0.00  0.00    +0.115 C 
BRANCH  25  28
ATOM     28  C   UNL     1      31.589  -8.799 -21.776  0.00  0.00    +0.075 C 
ATOM     29  C   UNL     1      31.412  -8.030 -23.087  0.00  0.00    +0.020 C 
ATOM     30  C   UNL     1      32.687  -8.177 -20.909  0.00  0.00    +0.020 C 
ATOM     31  C   UNL     1      31.162  -6.545 -22.840  0.00  0.00    +0.002 C 
ATOM     32  C   UNL     1      32.434  -6.691 -20.663  0.00  0.00    +0.002 C 
ATOM     33  C   UNL     1      32.256  -5.928 -21.972  0.00  0.00    +0.000 C 
ENDBRANCH  25  28
ENDBRANCH  23  26
ENDBRANCH  22  23
ENDBRANCH   1  22
TORSDOF 6
ENDMDL
MODEL 2
REMARK VINA RESULT:     -11.8      6.231     11.014
REMARK  Name = 16741238
REMARK  6 active torsions:
REMARK  status: ('A' for Active; 'I' for Inactive)
REMARK    1  A    between atoms: N_1  and  C_22
REMARK    2  A    between atoms: C_10  and  C_15
REMARK    3  A    between atoms: C_15  and  C_16
REMARK    4  A    between atoms: C_22  and  C_23
REMARK    5  A    between atoms: C_23  and  C_26
REMARK    6  A    between atoms: N_25  and  C_28
REMARK                            x       y       z     vdW  Elec       q    Type
REMARK                         _______ _______ _______ _____ _____    ______ ____
ROOT
ATOM      1  N   UNL     1      36.156 -22.772 -16.968  0.00  0.00    -0.249 N 
ATOM      2  N   UNL     1      36.531 -23.695 -14.779  0.00  0.00    -0.373 NA
ATOM      3  N   UNL     1      38.326 -23.100 -16.110  0.00  0.00    -0.321 N 
ATOM      4  C   UNL     1      34.696 -22.832 -16.872  0.00  0.00    +0.071 C 
ATOM      5  C   UNL     1      34.223 -23.401 -15.564  0.00  0.00    +0.045 C 
ATOM      6  C   UNL     1      36.967 -23.206 -15.914  0.00  0.00    +0.239 C 
ATOM      7  C   UNL     1      35.144 -23.802 -14.586  0.00  0.00    +0.136 C 
ATOM      8  C   UNL     1      32.848 -23.530 -15.319  0.00  0.00    +0.007 C 
ATOM      9  C   UNL     1      34.674 -24.327 -13.376  0.00  0.00    +0.032 C 
ATOM     10  C   UNL     1      32.391 -24.054 -14.111  0.00  0.00    +0.039 C 
ATOM     11  C   UNL     1      33.305 -24.453 -13.138  0.00  0.00    +0.006 C 
ATOM     12  H   UNL     1      38.675 -22.734 -16.955  0.00  0.00    +0.146 HD
ATOM     13  H   UNL     1      38.949 -23.389 -15.404  0.00  0.00    +0.146 HD
ENDROOT
BRANCH  10  15
ATOM     14  O   UNL     1      30.547 -24.477 -12.735  0.00  0.00    -0.287 OA
ATOM     15  C   UNL     1      30.964 -24.185 -13.866  0.00  0.00    +0.196 C 
BRANCH  15  16
ATOM     16  C   UNL     1      29.946 -23.977 -14.939  0.00  0.00    +0.039 C 
ATOM     17  C   UNL     1      29.590 -25.032 -15.778  0.00  0.00    +0.003 C 
ATOM     18  C   UNL     1      29.348 -22.726 -15.101  0.00  0.00    +0.003 C 
ATOM     19  C   UNL     1      28.639 -24.838 -16.779  0.00  0.00    +0.000 C 
ATOM     20  C   UNL     1      28.397 -22.532 -16.102  0.00  0.00    +0.000 C 
ATOM     21  C   UNL     1      28.042 -23.588 -16.941  0.00  0.00    +0.000 C 
ENDBRANCH  15  16
ENDBRANCH  10  15
BRANCH   1  22
ATOM     22  C   UNL     1      36.672 -22.231 -18.221  0.00  0.00    +0.109 C 
BRANCH  22  23
ATOM     23  C   UNL     1      35.540 -21.633 -19.051  0.00  0.00    +0.107 C 
BRANCH  23  26
ATOM     24  O   UNL     1      37.208 -20.350 -20.209  0.00  0.00    -0.275 OA
ATOM     25  N   UNL     1      35.026 -20.136 -20.964  0.00  0.00    -0.279 N 
ATOM     26  C   UNL     1      36.015 -20.652 -20.119  0.00  0.00    +0.227 C 
ATOM     27  C   UNL     1      33.618 -20.505 -20.840  0.00  0.00    +0.115 C 
BRANCH  25  28
ATOM     28  C   UNL     1      35.324 -19.199 -22.021  0.00  0.00    +0.075 C 
ATOM     29  C   UNL     1      35.279 -17.763 -21.493  0.00  0.00    +0.020 C 
ATOM     30  C   UNL     1      34.365 -19.390 -23.200  0.00  0.00    +0.020 C 
ATOM     31  C   UNL     1      35.538 -16.747 -22.603  0.00  0.00    +0.002 C 
ATOM     32  C   UNL     1      34.627 -18.373 -24.308  0.00  0.00    +0.002 C 
ATOM     33  C   UNL     1      34.584 -16.942 -23.778  0.00  0.00    +0.000 C 
ENDBRANCH  25  28
ENDBRANCH  23  26
ENDBRANCH  22  23
ENDBRANCH   1  22
TORSDOF 6
ENDMDL
MODEL 3
REMARK VINA RESULT:     -11.6      2.328      9.973
REMARK  Name = 16741238
REMARK  6 active torsions:
REMARK  status: ('A' for Active; 'I' for Inactive)
REMARK    1  A    between atoms: N_1  and  C_22
REMARK    2  A    between atoms: C_10  and  C_15
REMARK    3  A    between atoms: C_15  and  C_16
REMARK    4  A    between atoms: C_22  and  C_23
REMARK    5  A    between atoms: C_23  and  C_26
REMARK    6  A    between atoms: N_25  and  C_28
REMARK                            x       y       z     vdW  Elec       q    Type
REMARK                         _______ _______ _______ _____ _____    ______ ____
ROOT
ATOM      1  N   UNL     1      34.765 -18.203 -23.892  0.00  0.00    -0.249 N 
ATOM      2  N   UNL     1      33.706 -17.424 -25.906  0.00  0.00    -0.373 NA
ATOM      3  N   UNL     1      34.177 -19.673 -25.638  0.00  0.00    -0.321 N 
ATOM      4  C   UNL     1      34.842 -16.875 -23.280  0.00  0.00    +0.071 C 
ATOM      5  C   UNL     1      34.272 -15.796 -24.158  0.00  0.00    +0.045 C 
ATOM      6  C   UNL     1      34.202 -18.381 -25.160  0.00  0.00    +0.239 C 
ATOM      7  C   UNL     1      33.736 -16.110 -25.414  0.00  0.00    +0.136 C 
ATOM      8  C   UNL     1      34.277 -14.466 -23.714  0.00  0.00    +0.007 C 
ATOM      9  C   UNL     1      33.211 -15.084 -26.210  0.00  0.00    +0.032 C 
ATOM     10  C   UNL     1      33.752 -13.452 -24.515  0.00  0.00    +0.039 C 
ATOM     11  C   UNL     1      33.218 -13.762 -25.764  0.00  0.00    +0.006 C 
ATOM     12  H   UNL     1      34.543 -20.407 -25.093  0.00  0.00    +0.146 HD
ATOM     13  H   UNL     1      33.793 -19.862 -26.525  0.00  0.00    +0.146 HD
ENDROOT
BRANCH  10  15
ATOM     14  O   UNL     1      34.524 -11.245 -24.564  0.00  0.00    -0.287 OA
ATOM     15  C   UNL     1      33.761 -12.076 -24.048  0.00  0.00    +0.196 C 
BRANCH  15  16
ATOM     16  C   UNL     1      32.871 -11.598 -22.948  0.00  0.00    +0.039 C 
ATOM     17  C   UNL     1      32.572 -10.240 -22.831  0.00  0.00    +0.003 C 
ATOM     18  C   UNL     1      32.336 -12.509 -22.037  0.00  0.00    +0.003 C 
ATOM     19  C   UNL     1      31.740  -9.794 -21.805  0.00  0.00    +0.000 C 
ATOM     20  C   UNL     1      31.504 -12.063 -21.010  0.00  0.00    +0.000 C 
ATOM     21  C   UNL     1      31.207 -10.705 -20.894  0.00  0.00    +0.000 C 
ENDBRANCH  15  16
ENDBRANCH  10  15
BRANCH   1  22
ATOM     22  C   UNL     1      35.308 -19.290 -23.084  0.00  0.00    +0.109 C 
BRANCH  22  23
ATOM     23  C   UNL     1      35.215 -18.950 -21.600  0.00  0.00    +0.107 C 
BRANCH  23  26
ATOM     24  O   UNL     1      36.735 -20.344 -20.370  0.00  0.00    -0.275 OA
ATOM     25  N   UNL     1      34.486 -20.888 -20.229  0.00  0.00    -0.279 N 
ATOM     26  C   UNL     1      35.563 -20.117 -20.681  0.00  0.00    +0.227 C 
ATOM     27  C   UNL     1      33.104 -20.603 -20.610  0.00  0.00    +0.115 C 
BRANCH  25  28
ATOM     28  C   UNL     1      34.659 -22.021 -19.353  0.00  0.00    +0.075 C 
ATOM     29  C   UNL     1      33.335 -22.381 -18.674  0.00  0.00    +0.020 C 
ATOM     30  C   UNL     1      35.757 -21.747 -18.322  0.00  0.00    +0.020 C 
ATOM     31  C   UNL     1      33.500 -23.545 -17.700  0.00  0.00    +0.002 C 
ATOM     32  C   UNL     1      35.919 -22.913 -17.349  0.00  0.00    +0.002 C 
ATOM     33  C   UNL     1      34.598 -23.271 -16.676  0.00  0.00    +0.000 C 
ENDBRANCH  25  28
ENDBRANCH  23  26
ENDBRANCH  22  23
ENDBRANCH   1  22
TORSDOF 6
ENDMDL
MODEL 4
REMARK VINA RESULT:     -11.6      2.334     10.946
REMARK  Name = 16741238
REMARK  6 active torsions:
REMARK  status: ('A' for Active; 'I' for Inactive)
REMARK    1  A    between atoms: N_1  and  C_22
REMARK    2  A    between atoms: C_10  and  C_15
REMARK    3  A    between atoms: C_15  and  C_16
REMARK    4  A    between atoms: C_22  and  C_23
REMARK    5  A    between atoms: C_23  and  C_26
REMARK    6  A    between atoms: N_25  and  C_28
REMARK                            x       y       z     vdW  Elec       q    Type
REMARK                         _______ _______ _______ _____ _____    ______ ____
ROOT
ATOM      1  N   UNL     1      32.346 -12.395 -22.481  0.00  0.00    -0.249 N 
ATOM      2  N   UNL     1      32.020 -11.494 -20.276  0.00  0.00    -0.373 NA
ATOM      3  N   UNL     1      32.040 -13.783 -20.601  0.00  0.00    -0.321 N 
ATOM      4  C   UNL     1      32.465 -11.086 -23.126  0.00  0.00    +0.071 C 
ATOM      5  C   UNL     1      32.326  -9.946 -22.157  0.00  0.00    +0.045 C 
ATOM      6  C   UNL     1      32.133 -12.504 -21.103  0.00  0.00    +0.239 C 
ATOM      7  C   UNL     1      32.113 -10.192 -20.794  0.00  0.00    +0.136 C 
ATOM      8  C   UNL     1      32.412  -8.626 -22.622  0.00  0.00    +0.007 C 
ATOM      9  C   UNL     1      31.989  -9.110 -19.914  0.00  0.00    +0.032 C 
ATOM     10  C   UNL     1      32.287  -7.556 -21.736  0.00  0.00    +0.039 C 
ATOM     11  C   UNL     1      32.076  -7.798 -20.381  0.00  0.00    +0.006 C 
ATOM     12  H   UNL     1      32.124 -14.557 -21.205  0.00  0.00    +0.146 HD
ATOM     13  H   UNL     1      31.891 -13.924 -19.638  0.00  0.00    +0.146 HD
ENDROOT
BRANCH  10  15
ATOM     14  O   UNL     1      31.959  -5.249 -21.535  0.00  0.00    -0.287 OA
ATOM     15  C   UNL     1      32.376  -6.190 -22.227  0.00  0.00    +0.196 C 
BRANCH  15  16
ATOM     16  C   UNL     1      32.963  -5.855 -23.559  0.00  0.00    +0.039 C 
ATOM     17  C   UNL     1      32.242  -5.075 -24.463  0.00  0.00    +0.003 C 
ATOM     18  C   UNL     1      34.234  -6.320 -23.899  0.00  0.00    +0.003 C 
ATOM     19  C   UNL     1      32.791  -4.761 -25.706  0.00  0.00    +0.000 C 
ATOM     20  C   UNL     1      34.783  -6.006 -25.141  0.00  0.00    +0.000 C 
ATOM     21  C   UNL     1      34.061  -5.227 -26.046  0.00  0.00    +0.000 C 
ENDBRANCH  15  16
ENDBRANCH  10  15
BRANCH   1  22
ATOM     22  C   UNL     1      32.468 -13.541 -23.377  0.00  0.00    +0.109 C 
BRANCH  22  23
ATOM     23  C   UNL     1      33.927 -13.759 -23.768  0.00  0.00    +0.107 C 
BRANCH  23  26
ATOM     24  O   UNL     1      34.996 -14.795 -21.884  0.00  0.00    -0.275 OA
ATOM     25  N   UNL     1      34.692 -16.121 -23.762  0.00  0.00    -0.279 N 
ATOM     26  C   UNL     1      34.588 -14.926 -23.041  0.00  0.00    +0.227 C 
ATOM     27  C   UNL     1      34.203 -16.255 -25.132  0.00  0.00    +0.115 C 
BRANCH  25  28
ATOM     28  C   UNL     1      35.292 -17.310 -23.206  0.00  0.00    +0.075 C 
ATOM     29  C   UNL     1      34.551 -18.559 -23.688  0.00  0.00    +0.020 C 
ATOM     30  C   UNL     1      35.324 -17.237 -21.676  0.00  0.00    +0.020 C 
ATOM     31  C   UNL     1      35.130 -19.831 -23.073  0.00  0.00    +0.002 C 
ATOM     32  C   UNL     1      35.904 -18.510 -21.065  0.00  0.00    +0.002 C 
ATOM     33  C   UNL     1      35.165 -19.754 -21.549  0.00  0.00    +0.000 C 
ENDBRANCH  25  28
ENDBRANCH  23  26
ENDBRANCH  22  23
ENDBRANCH   1  22
TORSDOF 6
ENDMDL
MODEL 5
REMARK VINA RESULT:     -11.4      4.747      8.340
REMARK  Name = 16741238
REMARK  6 active torsions:
REMARK  status: ('A' for Active; 'I' for Inactive)
REMARK    1  A    between atoms: N_1  and  C_22
REMARK    2  A    between atoms: C_10  and  C_15
REMARK    3  A    between atoms: C_15  and  C_16
REMARK    4  A    between atoms: C_22  and  C_23
REMARK    5  A    between atoms: C_23  and  C_26
REMARK    6  A    between atoms: N_25  and  C_28
REMARK                            x       y       z     vdW  Elec       q    Type
REMARK                         _______ _______ _______ _____ _____    ______ ____
ROOT
ATOM      1  N   UNL     1      34.844 -21.044 -20.269  0.00  0.00    -0.249 N 
ATOM      2  N   UNL     1      33.338 -22.115 -18.729  0.00  0.00    -0.373 NA
ATOM      3  N   UNL     1      32.517 -21.110 -20.644  0.00  0.00    -0.321 N 
ATOM      4  C   UNL     1      36.045 -21.352 -19.491  0.00  0.00    +0.071 C 
ATOM      5  C   UNL     1      35.742 -22.110 -18.229  0.00  0.00    +0.045 C 
ATOM      6  C   UNL     1      33.578 -21.449 -19.832  0.00  0.00    +0.239 C 
ATOM      7  C   UNL     1      34.422 -22.455 -17.905  0.00  0.00    +0.136 C 
ATOM      8  C   UNL     1      36.788 -22.476 -17.370  0.00  0.00    +0.007 C 
ATOM      9  C   UNL     1      34.170 -23.163 -16.723  0.00  0.00    +0.032 C 
ATOM     10  C   UNL     1      36.526 -23.181 -16.196  0.00  0.00    +0.039 C 
ATOM     11  C   UNL     1      35.216 -23.525 -15.872  0.00  0.00    +0.006 C 
ATOM     12  H   UNL     1      32.676 -20.611 -21.478  0.00  0.00    +0.146 HD
ATOM     13  H   UNL     1      31.602 -21.367 -20.390  0.00  0.00    +0.146 HD
ENDROOT
BRANCH  10  15
ATOM     14  O   UNL     1      38.791 -23.488 -15.703  0.00  0.00    -0.287 OA
ATOM     15  C   UNL     1      37.616 -23.555 -15.311  0.00  0.00    +0.196 C 
BRANCH  15  16
ATOM     16  C   UNL     1      37.386 -24.029 -13.913  0.00  0.00    +0.039 C 
ATOM     17  C   UNL     1      37.460 -25.389 -13.616  0.00  0.00    +0.003 C 
ATOM     18  C   UNL     1      37.100 -23.109 -12.903  0.00  0.00    +0.003 C 
ATOM     19  C   UNL     1      37.246 -25.831 -12.310  0.00  0.00    +0.000 C 
ATOM     20  C   UNL     1      36.886 -23.551 -11.598  0.00  0.00    +0.000 C 
ATOM     21  C   UNL     1      36.959 -24.912 -11.301  0.00  0.00    +0.000 C 
ENDBRANCH  15  16
ENDBRANCH  10  15
BRANCH   1  22
ATOM     22  C   UNL     1      35.078 -20.304 -21.504  0.00  0.00    +0.109 C 
BRANCH  22  23
ATOM     23  C   UNL     1      35.611 -18.907 -21.196  0.00  0.00    +0.107 C 
BRANCH  23  26
ATOM     24  O   UNL     1      35.660 -18.290 -23.516  0.00  0.00    -0.275 OA
ATOM     25  N   UNL     1      35.094 -16.620 -22.011  0.00  0.00    -0.279 N 
ATOM     26  C   UNL     1      35.462 -17.925 -22.354  0.00  0.00    +0.227 C 
ATOM     27  C   UNL     1      34.865 -16.208 -20.627  0.00  0.00    +0.115 C 
BRANCH  25  28
ATOM     28  C   UNL     1      34.913 -15.582 -22.997  0.00  0.00    +0.075 C 
ATOM     29  C   UNL     1      34.349 -14.317 -22.347  0.00  0.00    +0.020 C 
ATOM     30  C   UNL     1      34.016 -16.069 -24.138  0.00  0.00    +0.020 C 
ATOM     31  C   UNL     1      34.097 -13.218 -23.376  0.00  0.00    +0.002 C 
ATOM     32  C   UNL     1      33.766 -14.969 -25.167  0.00  0.00    +0.002 C 
ATOM     33  C   UNL     1      33.206 -13.708 -24.515  0.00  0.00    +0.000 C 
ENDBRANCH  25  28
ENDBRANCH  23  26
ENDBRANCH  22  23
ENDBRANCH   1  22
TORSDOF 6
ENDMDL
MODEL 6
REMARK VINA RESULT:     -11.3      5.618     10.085
REMARK  Name = 16741238
REMARK  6 active torsions:
REMARK  status: ('A' for Active; 'I' for Inactive)
REMARK    1  A    between atoms: N_1  and  C_22
REMARK    2  A    between atoms: C_10  and  C_15
REMARK    3  A    between atoms: C_15  and  C_16
REMARK    4  A    between atoms: C_22  and  C_23
REMARK    5  A    between atoms: C_23  and  C_26
REMARK    6  A    between atoms: N_25  and  C_28
REMARK                            x       y       z     vdW  Elec       q    Type
REMARK                         _______ _______ _______ _____ _____    ______ ____
ROOT
ATOM      1  N   UNL     1      34.725 -22.427 -18.998  0.00  0.00    -0.249 N 
ATOM      2  N   UNL     1      32.589 -22.880 -17.990  0.00  0.00    -0.373 NA
ATOM      3  N   UNL     1      32.708 -22.192 -20.195  0.00  0.00    -0.321 N 
ATOM      4  C   UNL     1      35.494 -22.751 -17.795  0.00  0.00    +0.071 C 
ATOM      5  C   UNL     1      34.622 -23.160 -16.641  0.00  0.00    +0.045 C 
ATOM      6  C   UNL     1      33.330 -22.516 -19.008  0.00  0.00    +0.239 C 
ATOM      7  C   UNL     1      33.228 -23.208 -16.783  0.00  0.00    +0.136 C 
ATOM      8  C   UNL     1      35.208 -23.498 -15.413  0.00  0.00    +0.007 C 
ATOM      9  C   UNL     1      32.441 -23.594 -15.691  0.00  0.00    +0.032 C 
ATOM     10  C   UNL     1      34.415 -23.881 -14.332  0.00  0.00    +0.039 C 
ATOM     11  C   UNL     1      33.030 -23.929 -14.471  0.00  0.00    +0.006 C 
ATOM     12  H   UNL     1      33.246 -21.917 -20.973  0.00  0.00    +0.146 HD
ATOM     13  H   UNL     1      31.727 -22.235 -20.264  0.00  0.00    +0.146 HD
ENDROOT
BRANCH  10  15
ATOM     14  O   UNL     1      34.400 -24.094 -12.003  0.00  0.00    -0.287 OA
ATOM     15  C   UNL     1      35.031 -24.229 -13.062  0.00  0.00    +0.196 C 
BRANCH  15  16
ATOM     16  C   UNL     1      36.426 -24.757 -12.967  0.00  0.00    +0.039 C 
ATOM     17  C   UNL     1      37.383 -24.071 -12.220  0.00  0.00    +0.003 C 
ATOM     18  C   UNL     1      36.771 -25.938 -13.626  0.00  0.00    +0.003 C 
ATOM     19  C   UNL     1      38.684 -24.564 -12.131  0.00  0.00    +0.000 C 
ATOM     20  C   UNL     1      38.072 -26.431 -13.536  0.00  0.00    +0.000 C 
ATOM     21  C   UNL     1      39.029 -25.744 -12.789  0.00  0.00    +0.000 C 
ENDBRANCH  15  16
ENDBRANCH  10  15
BRANCH   1  22
ATOM     22  C   UNL     1      35.522 -22.019 -20.150  0.00  0.00    +0.109 C 
BRANCH  22  23
ATOM     23  C   UNL     1      35.721 -20.506 -20.152  0.00  0.00    +0.107 C 
BRANCH  23  26
ATOM     24  O   UNL     1      33.579 -19.945 -21.083  0.00  0.00    -0.275 OA
ATOM     25  N   UNL     1      35.423 -18.899 -22.022  0.00  0.00    -0.279 N 
ATOM     26  C   UNL     1      34.800 -19.768 -21.119  0.00  0.00    +0.227 C 
ATOM     27  C   UNL     1      36.871 -18.704 -22.048  0.00  0.00    +0.115 C 
BRANCH  25  28
ATOM     28  C   UNL     1      34.683 -18.132 -22.994  0.00  0.00    +0.075 C 
ATOM     29  C   UNL     1      34.600 -18.886 -24.323  0.00  0.00    +0.020 C 
ATOM     30  C   UNL     1      35.306 -16.745 -23.179  0.00  0.00    +0.020 C 
ATOM     31  C   UNL     1      33.868 -18.074 -25.388  0.00  0.00    +0.002 C 
ATOM     32  C   UNL     1      34.571 -15.935 -24.244  0.00  0.00    +0.002 C 
ATOM     33  C   UNL     1      34.488 -16.691 -25.567  0.00  0.00    +0.000 C 
ENDBRANCH  25  28
ENDBRANCH  23  26
ENDBRANCH  22  23
ENDBRANCH   1  22
TORSDOF 6
ENDMDL
MODEL 7
REMARK VINA RESULT:     -11.3      6.203     10.914
REMARK  Name = 16741238
REMARK  6 active torsions:
REMARK  status: ('A' for Active; 'I' for Inactive)
REMARK    1  A    between atoms: N_1  and  C_22
REMARK    2  A    between atoms: C_10  and  C_15
REMARK    3  A    between atoms: C_15  and  C_16
REMARK    4  A    between atoms: C_22  and  C_23
REMARK    5  A    between atoms: C_23  and  C_26
REMARK    6  A    between atoms: N_25  and  C_28
REMARK                            x       y       z     vdW  Elec       q    Type
REMARK                         _______ _______ _______ _____ _____    ______ ____
ROOT
ATOM      1  N   UNL     1      35.967 -22.514 -17.184  0.00  0.00    -0.249 N 
ATOM      2  N   UNL     1      36.495 -23.511 -15.060  0.00  0.00    -0.373 NA
ATOM      3  N   UNL     1      38.189 -22.738 -16.432  0.00  0.00    -0.321 N 
ATOM      4  C   UNL     1      34.519 -22.675 -17.032  0.00  0.00    +0.071 C 
ATOM      5  C   UNL     1      34.141 -23.334 -15.735  0.00  0.00    +0.045 C 
ATOM      6  C   UNL     1      36.849 -22.942 -16.187  0.00  0.00    +0.239 C 
ATOM      7  C   UNL     1      35.128 -23.718 -14.817  0.00  0.00    +0.136 C 
ATOM      8  C   UNL     1      32.789 -23.564 -15.442  0.00  0.00    +0.007 C 
ATOM      9  C   UNL     1      34.745 -24.329 -13.616  0.00  0.00    +0.032 C 
ATOM     10  C   UNL     1      32.419 -24.174 -14.244  0.00  0.00    +0.039 C 
ATOM     11  C   UNL     1      33.398 -24.556 -13.330  0.00  0.00    +0.006 C 
ATOM     12  H   UNL     1      38.477 -22.311 -17.271  0.00  0.00    +0.146 HD
ATOM     13  H   UNL     1      38.859 -23.018 -15.767  0.00  0.00    +0.146 HD
ENDROOT
BRANCH  10  15
ATOM     14  O   UNL     1      30.679 -24.893 -12.857  0.00  0.00    -0.287 OA
ATOM     15  C   UNL     1      31.016 -24.409 -13.948  0.00  0.00    +0.196 C 
BRANCH  15  16
ATOM     16  C   UNL     1      29.928 -24.087 -14.921  0.00  0.00    +0.039 C 
ATOM     17  C   UNL     1      29.338 -22.824 -14.914  0.00  0.00    +0.003 C 
ATOM     18  C   UNL     1      29.503 -25.051 -15.836  0.00  0.00    +0.003 C 
ATOM     19  C   UNL     1      28.323 -22.524 -15.823  0.00  0.00    +0.000 C 
ATOM     20  C   UNL     1      28.489 -24.750 -16.745  0.00  0.00    +0.000 C 
ATOM     21  C   UNL     1      27.898 -23.487 -16.737  0.00  0.00    +0.000 C 
ENDBRANCH  15  16
ENDBRANCH  10  15
BRANCH   1  22
ATOM     22  C   UNL     1      36.393 -21.882 -18.429  0.00  0.00    +0.109 C 
BRANCH  22  23
ATOM     23  C   UNL     1      35.481 -22.300 -19.578  0.00  0.00    +0.107 C 
BRANCH  23  26
ATOM     24  O   UNL     1      33.523 -21.077 -20.240  0.00  0.00    -0.275 OA
ATOM     25  N   UNL     1      35.567 -20.158 -20.831  0.00  0.00    -0.279 N 
ATOM     26  C   UNL     1      34.755 -21.133 -20.241  0.00  0.00    +0.227 C 
ATOM     27  C   UNL     1      37.026 -20.243 -20.821  0.00  0.00    +0.115 C 
BRANCH  25  28
ATOM     28  C   UNL     1      35.025 -18.996 -21.493  0.00  0.00    +0.075 C 
ATOM     29  C   UNL     1      35.226 -19.099 -23.006  0.00  0.00    +0.020 C 
ATOM     30  C   UNL     1      35.648 -17.714 -20.933  0.00  0.00    +0.020 C 
ATOM     31  C   UNL     1      34.709 -17.857 -23.729  0.00  0.00    +0.002 C 
ATOM     32  C   UNL     1      35.129 -16.474 -21.658  0.00  0.00    +0.002 C 
ATOM     33  C   UNL     1      35.328 -16.580 -23.167  0.00  0.00    +0.000 C 
ENDBRANCH  25  28
ENDBRANCH  23  26
ENDBRANCH  22  23
ENDBRANCH   1  22
TORSDOF 6
ENDMDL
MODEL 8
REMARK VINA RESULT:     -11.2      3.320      5.907
REMARK  Name = 16741238
REMARK  6 active torsions:
REMARK  status: ('A' for Active; 'I' for Inactive)
REMARK    1  A    between atoms: N_1  and  C_22
REMARK    2  A    between atoms: C_10  and  C_15
REMARK    3  A    between atoms: C_15  and  C_16
REMARK    4  A    between atoms: C_22  and  C_23
REMARK    5  A    between atoms: C_23  and  C_26
REMARK    6  A    between atoms: N_25  and  C_28
REMARK                            x       y       z     vdW  Elec       q    Type
REMARK                         _______ _______ _______ _____ _____    ______ ____
ROOT
ATOM      1  N   UNL     1      35.209 -19.004 -22.145  0.00  0.00    -0.249 N 
ATOM      2  N   UNL     1      36.960 -19.581 -20.601  0.00  0.00    -0.373 NA
ATOM      3  N   UNL     1      37.290 -17.898 -22.154  0.00  0.00    -0.321 N 
ATOM      4  C   UNL     1      34.265 -19.997 -21.629  0.00  0.00    +0.071 C 
ATOM      5  C   UNL     1      34.834 -20.805 -20.496  0.00  0.00    +0.045 C 
ATOM      6  C   UNL     1      36.487 -18.867 -21.594  0.00  0.00    +0.239 C 
ATOM      7  C   UNL     1      36.137 -20.568 -20.036  0.00  0.00    +0.136 C 
ATOM      8  C   UNL     1      34.054 -21.803 -19.895  0.00  0.00    +0.007 C 
ATOM      9  C   UNL     1      36.640 -21.335 -18.978  0.00  0.00    +0.032 C 
ATOM     10  C   UNL     1      34.566 -22.562 -18.843  0.00  0.00    +0.039 C 
ATOM     11  C   UNL     1      35.859 -22.328 -18.384  0.00  0.00    +0.006 C 
ATOM     12  H   UNL     1      36.954 -17.350 -22.899  0.00  0.00    +0.146 HD
ATOM     13  H   UNL     1      38.201 -17.755 -21.808  0.00  0.00    +0.146 HD
ENDROOT
BRANCH  10  15
ATOM     14  O   UNL     1      33.580 -24.683 -18.798  0.00  0.00    -0.287 OA
ATOM     15  C   UNL     1      33.751 -23.595 -18.226  0.00  0.00    +0.196 C 
BRANCH  15  16
ATOM     16  C   UNL     1      33.090 -23.409 -16.899  0.00  0.00    +0.039 C 
ATOM     17  C   UNL     1      31.721 -23.154 -16.830  0.00  0.00    +0.003 C 
ATOM     18  C   UNL     1      33.844 -23.491 -15.727  0.00  0.00    +0.003 C 
ATOM     19  C   UNL     1      31.105 -22.981 -15.591  0.00  0.00    +0.000 C 
ATOM     20  C   UNL     1      33.227 -23.318 -14.488  0.00  0.00    +0.000 C 
ATOM     21  C   UNL     1      31.858 -23.062 -14.420  0.00  0.00    +0.000 C 
ENDBRANCH  15  16
ENDBRANCH  10  15
BRANCH   1  22
ATOM     22  C   UNL     1      34.710 -18.192 -23.251  0.00  0.00    +0.109 C 
BRANCH  22  23
ATOM     23  C   UNL     1      35.343 -16.803 -23.221  0.00  0.00    +0.107 C 
BRANCH  23  26
ATOM     24  O   UNL     1      33.915 -15.626 -24.751  0.00  0.00    -0.275 OA
ATOM     25  N   UNL     1      34.079 -14.756 -22.608  0.00  0.00    -0.279 N 
ATOM     26  C   UNL     1      34.382 -15.684 -23.610  0.00  0.00    +0.227 C 
ATOM     27  C   UNL     1      34.644 -14.842 -21.263  0.00  0.00    +0.115 C 
BRANCH  25  28
ATOM     28  C   UNL     1      33.185 -13.644 -22.828  0.00  0.00    +0.075 C 
ATOM     29  C   UNL     1      33.944 -12.454 -23.418  0.00  0.00    +0.020 C 
ATOM     30  C   UNL     1      32.469 -13.260 -21.530  0.00  0.00    +0.020 C 
ATOM     31  C   UNL     1      33.034 -11.244 -23.612  0.00  0.00    +0.002 C 
ATOM     32  C   UNL     1      31.559 -12.050 -21.727  0.00  0.00    +0.002 C 
ATOM     33  C   UNL     1      32.318 -10.866 -22.318  0.00  0.00    +0.000 C 
ENDBRANCH  25  28
ENDBRANCH  23  26
ENDBRANCH  22  23
ENDBRANCH   1  22
TORSDOF 6
ENDMDL
MODEL 9
REMARK VINA RESULT:     -11.2      2.763     11.526
REMARK  Name = 16741238
REMARK  6 active torsions:
REMARK  status: ('A' for Active; 'I' for Inactive)
REMARK    1  A    between atoms: N_1  and  C_22
REMARK    2  A    between atoms: C_10  and  C_15
REMARK    3  A    between atoms: C_15  and  C_16
REMARK    4  A    between atoms: C_22  and  C_23
REMARK    5  A    between atoms: C_23  and  C_26
REMARK    6  A    between atoms: N_25  and  C_28
REMARK                            x       y       z     vdW  Elec       q    Type
REMARK                         _______ _______ _______ _____ _____    ______ ____
ROOT
ATOM      1  N   UNL     1      31.810 -10.374 -20.965  0.00  0.00    -0.249 N 
ATOM      2  N   UNL     1      32.175  -8.448 -19.571  0.00  0.00    -0.373 NA
ATOM      3  N   UNL     1      32.175 -10.568 -18.645  0.00  0.00    -0.321 N 
ATOM      4  C   UNL     1      31.666  -9.600 -22.199  0.00  0.00    +0.071 C 
ATOM      5  C   UNL     1      31.803  -8.120 -21.976  0.00  0.00    +0.045 C 
ATOM      6  C   UNL     1      32.054  -9.743 -19.741  0.00  0.00    +0.239 C 
ATOM      7  C   UNL     1      32.048  -7.613 -20.692  0.00  0.00    +0.136 C 
ATOM      8  C   UNL     1      31.686  -7.240 -23.061  0.00  0.00    +0.007 C 
ATOM      9  C   UNL     1      32.172  -6.229 -20.514  0.00  0.00    +0.032 C 
ATOM     10  C   UNL     1      31.811  -5.864 -22.873  0.00  0.00    +0.039 C 
ATOM     11  C   UNL     1      32.054  -5.358 -21.598  0.00  0.00    +0.006 C 
ATOM     12  H   UNL     1      32.090 -11.543 -18.750  0.00  0.00    +0.146 HD
ATOM     13  H   UNL     1      32.348 -10.182 -17.755  0.00  0.00    +0.146 HD
ENDROOT
BRANCH  10  15
ATOM     14  O   UNL     1      30.669  -4.264 -24.140  0.00  0.00    -0.287 OA
ATOM     15  C   UNL     1      31.687  -4.959 -24.004  0.00  0.00    +0.196 C 
BRANCH  15  16
ATOM     16  C   UNL     1      32.756  -4.820 -25.038  0.00  0.00    +0.039 C 
ATOM     17  C   UNL     1      33.941  -5.545 -24.920  0.00  0.00    +0.003 C 
ATOM     18  C   UNL     1      32.568  -3.965 -26.125  0.00  0.00    +0.003 C 
ATOM     19  C   UNL     1      34.938  -5.416 -25.886  0.00  0.00    +0.000 C 
ATOM     20  C   UNL     1      33.565  -3.835 -27.091  0.00  0.00    +0.000 C 
ATOM     21  C   UNL     1      34.750  -4.560 -26.972  0.00  0.00    +0.000 C 
ENDBRANCH  15  16
ENDBRANCH  10  15
BRANCH   1  22
ATOM     22  C   UNL     1      31.681 -11.819 -21.122  0.00  0.00    +0.109 C 
BRANCH  22  23
ATOM     23  C   UNL     1      32.255 -12.263 -22.464  0.00  0.00    +0.107 C 
BRANCH  23  26
ATOM     24  O   UNL     1      33.336 -14.056 -21.287  0.00  0.00    -0.275 OA
ATOM     25  N   UNL     1      33.682 -13.963 -23.578  0.00  0.00    -0.279 N 
ATOM     26  C   UNL     1      33.136 -13.506 -22.373  0.00  0.00    +0.227 C 
ATOM     27  C   UNL     1      33.433 -13.296 -24.854  0.00  0.00    +0.115 C 
BRANCH  25  28
ATOM     28  C   UNL     1      34.533 -15.126 -23.649  0.00  0.00    +0.075 C 
ATOM     29  C   UNL     1      33.970 -16.141 -24.648  0.00  0.00    +0.020 C 
ATOM     30  C   UNL     1      34.715 -15.751 -22.263  0.00  0.00    +0.020 C 
ATOM     31  C   UNL     1      34.822 -17.407 -24.706  0.00  0.00    +0.002 C 
ATOM     32  C   UNL     1      35.568 -17.016 -22.324  0.00  0.00    +0.002 C 
ATOM     33  C   UNL     1      35.005 -18.024 -23.322  0.00  0.00    +0.000 C 
ENDBRANCH  25  28
ENDBRANCH  23  26
ENDBRANCH  22  23
ENDBRANCH   1  22
TORSDOF 6
ENDMDL
