MODEL 1
REMARK VINA RESULT:     -12.5      0.000      0.000
REMARK  Name = 3151
REMARK  5 active torsions:
REMARK  status: ('A' for Active; 'I' for Inactive)
REMARK    1  A    between atoms: N_1  and  C_20
REMARK    2  A    between atoms: C_2  and  N_10
REMARK    3  A    between atoms: C_20  and  C_21
REMARK    4  A    between atoms: C_21  and  C_22
REMARK    5  A    between atoms: C_22  and  N_24
REMARK                            x       y       z     vdW  Elec       q    Type
REMARK                         _______ _______ _______ _____ _____    ______ ____
ROOT
ATOM      1  N   UNL     1      34.196 -16.419 -24.024  0.00  0.00    +0.387 N 
ATOM      2  C   UNL     1      33.966 -13.528 -23.648  0.00  0.00    +0.086 C 
ATOM      3  C   UNL     1      34.469 -14.456 -22.543  0.00  0.00    -0.000 C 
ATOM      4  C   UNL     1      33.073 -14.298 -24.620  0.00  0.00    -0.000 C 
ATOM      5  C   UNL     1      35.120 -15.711 -23.127  0.00  0.00    -0.075 C 
ATOM      6  C   UNL     1      33.771 -15.558 -25.135  0.00  0.00    -0.075 C 
ATOM      7  H   UNL     1      33.367 -16.672 -23.486  0.00  0.00    -0.080 HD
ENDROOT
BRANCH   2  10
ATOM      8 CL   UNL     1      33.786  -6.596 -23.710  0.00  0.00    -0.082 Cl
ATOM      9  O   UNL     1      31.655 -13.422 -21.678  0.00  0.00    -0.247 OA
ATOM     10  N   UNL     1      33.270 -12.395 -23.089  0.00  0.00    -0.282 N 
ATOM     11  N   UNL     1      31.848 -11.077 -21.916  0.00  0.00    -0.305 N 
ATOM     12  C   UNL     1      33.571 -11.059 -23.387  0.00  0.00    +0.079 A 
ATOM     13  C   UNL     1      32.190 -12.436 -22.166  0.00  0.00    +0.328 A 
ATOM     14  C   UNL     1      32.693 -10.255 -22.662  0.00  0.00    +0.077 A 
ATOM     15  C   UNL     1      34.526 -10.516 -24.220  0.00  0.00    +0.020 C 
ATOM     16  C   UNL     1      32.723  -8.880 -22.732  0.00  0.00    +0.030 C 
ATOM     17  C   UNL     1      34.578  -9.121 -24.306  0.00  0.00    +0.013 C 
ATOM     18  C   UNL     1      33.686  -8.312 -23.571  0.00  0.00    +0.059 C 
ATOM     19  H   UNL     1      31.132 -10.768 -21.316  0.00  0.00    +0.170 HD
ENDBRANCH   2  10
BRANCH   1  20
ATOM     20  C   UNL     1      34.816 -17.643 -24.534  0.00  0.00    -0.075 C 
BRANCH  20  21
ATOM     21  C   UNL     1      34.821 -18.761 -23.487  0.00  0.00    +0.002 C 
BRANCH  21  22
ATOM     22  C   UNL     1      35.139 -18.294 -22.067  0.00  0.00    +0.108 C 
BRANCH  22  24
ATOM     23  O   UNL     1      37.957 -19.003 -21.248  0.00  0.00    -0.247 OA
ATOM     24  N   UNL     1      35.605 -19.363 -21.227  0.00  0.00    -0.280 N 
ATOM     25  N   UNL     1      36.945 -20.770 -20.047  0.00  0.00    -0.305 N 
ATOM     26  C   UNL     1      34.795 -20.325 -20.600  0.00  0.00    +0.079 A 
ATOM     27  C   UNL     1      36.966 -19.625 -20.892  0.00  0.00    +0.328 A 
ATOM     28  C   UNL     1      35.622 -21.183 -19.879  0.00  0.00    +0.076 A 
ATOM     29  C   UNL     1      33.425 -20.491 -20.619  0.00  0.00    +0.019 C 
ATOM     30  C   UNL     1      35.132 -22.241 -19.147  0.00  0.00    +0.019 C 
ATOM     31  C   UNL     1      32.903 -21.560 -19.883  0.00  0.00    +0.002 C 
ATOM     32  C   UNL     1      33.746 -22.425 -19.154  0.00  0.00    +0.002 C 
ATOM     33  H   UNL     1      37.735 -21.201 -19.646  0.00  0.00    +0.170 HD
ENDBRANCH  22  24
ENDBRANCH  21  22
ENDBRANCH  20  21
ENDBRANCH   1  20
TORSDOF 5
ENDMDL
MODEL 2
REMARK VINA RESULT:     -12.1      4.968     11.111
REMARK  Name = 3151
REMARK  5 active torsions:
REMARK  status: ('A' for Active; 'I' for Inactive)
REMARK    1  A    between atoms: N_1  and  C_20
REMARK    2  A    between atoms: C_2  and  N_10
REMARK    3  A    between atoms: C_20  and  C_21
REMARK    4  A    between atoms: C_21  and  C_22
REMARK    5  A    between atoms: C_22  and  N_24
REMARK                            x       y       z     vdW  Elec       q    Type
REMARK                         _______ _______ _______ _____ _____    ______ ____
ROOT
ATOM      1  N   UNL     1      34.449 -20.511 -20.491  0.00  0.00    +0.387 N 
ATOM      2  C   UNL     1      34.580 -22.646 -18.496  0.00  0.00    +0.086 C 
ATOM      3  C   UNL     1      33.293 -21.870 -18.777  0.00  0.00    -0.000 C 
ATOM      4  C   UNL     1      35.798 -21.801 -18.869  0.00  0.00    -0.000 C 
ATOM      5  C   UNL     1      33.268 -21.340 -20.212  0.00  0.00    -0.075 C 
ATOM      6  C   UNL     1      35.690 -21.274 -20.301  0.00  0.00    -0.075 C 
ATOM      7  H   UNL     1      34.453 -19.735 -19.831  0.00  0.00    -0.080 HD
ENDROOT
BRANCH   2  10
ATOM      8 CL   UNL     1      30.615 -24.685 -13.186  0.00  0.00    -0.082 Cl
ATOM      9  O   UNL     1      36.965 -22.954 -16.639  0.00  0.00    -0.247 OA
ATOM     10  N   UNL     1      34.639 -23.059 -17.116  0.00  0.00    -0.282 N 
ATOM     11  N   UNL     1      35.355 -23.614 -15.038  0.00  0.00    -0.305 N 
ATOM     12  C   UNL     1      33.519 -23.411 -16.350  0.00  0.00    +0.079 A 
ATOM     13  C   UNL     1      35.807 -23.177 -16.316  0.00  0.00    +0.328 A 
ATOM     14  C   UNL     1      33.967 -23.751 -15.074  0.00  0.00    +0.077 A 
ATOM     15  C   UNL     1      32.180 -23.455 -16.679  0.00  0.00    +0.020 C 
ATOM     16  C   UNL     1      33.110 -24.148 -14.072  0.00  0.00    +0.030 C 
ATOM     17  C   UNL     1      31.290 -23.855 -15.678  0.00  0.00    +0.013 C 
ATOM     18  C   UNL     1      31.750 -24.197 -14.389  0.00  0.00    +0.059 C 
ATOM     19  H   UNL     1      35.928 -23.790 -14.257  0.00  0.00    +0.170 HD
ENDBRANCH   2  10
BRANCH   1  20
ATOM     20  C   UNL     1      34.384 -19.971 -21.850  0.00  0.00    -0.075 C 
BRANCH  20  21
ATOM     21  C   UNL     1      35.036 -18.589 -21.948  0.00  0.00    +0.002 C 
BRANCH  21  22
ATOM     22  C   UNL     1      35.653 -18.276 -23.310  0.00  0.00    +0.108 C 
BRANCH  22  24
ATOM     23  O   UNL     1      34.247 -18.869 -25.915  0.00  0.00    -0.247 OA
ATOM     24  N   UNL     1      34.816 -17.425 -24.111  0.00  0.00    -0.280 N 
ATOM     25  N   UNL     1      33.471 -16.641 -25.766  0.00  0.00    -0.305 N 
ATOM     26  C   UNL     1      34.482 -16.093 -23.816  0.00  0.00    +0.079 A 
ATOM     27  C   UNL     1      34.190 -17.792 -25.338  0.00  0.00    +0.328 A 
ATOM     28  C   UNL     1      33.657 -15.619 -24.834  0.00  0.00    +0.076 A 
ATOM     29  C   UNL     1      34.840 -15.295 -22.749  0.00  0.00    +0.019 C 
ATOM     30  C   UNL     1      33.153 -14.338 -24.841  0.00  0.00    +0.019 C 
ATOM     31  C   UNL     1      34.340 -13.989 -22.733  0.00  0.00    +0.002 C 
ATOM     32  C   UNL     1      33.505 -13.515 -23.767  0.00  0.00    +0.002 C 
ATOM     33  H   UNL     1      32.930 -16.575 -26.588  0.00  0.00    +0.170 HD
ENDBRANCH  22  24
ENDBRANCH  21  22
ENDBRANCH  20  21
ENDBRANCH   1  20
TORSDOF 5
ENDMDL
MODEL 3
REMARK VINA RESULT:     -11.8      4.270     11.180
REMARK  Name = 3151
REMARK  5 active torsions:
REMARK  status: ('A' for Active; 'I' for Inactive)
REMARK    1  A    between atoms: N_1  and  C_20
REMARK    2  A    between atoms: C_2  and  N_10
REMARK    3  A    between atoms: C_20  and  C_21
REMARK    4  A    between atoms: C_21  and  C_22
REMARK    5  A    between atoms: C_22  and  N_24
REMARK                            x       y       z     vdW  Elec       q    Type
REMARK                         _______ _______ _______ _____ _____    ______ ____
ROOT
ATOM      1  N   UNL     1      31.959 -10.298 -22.874  0.00  0.00    +0.387 N 
ATOM      2  C   UNL     1      33.534 -12.740 -23.210  0.00  0.00    +0.086 C 
ATOM      3  C   UNL     1      33.574 -11.598 -24.225  0.00  0.00    -0.000 C 
ATOM      4  C   UNL     1      32.212 -12.720 -22.443  0.00  0.00    -0.000 C 
ATOM      5  C   UNL     1      33.257 -10.256 -23.563  0.00  0.00    -0.075 C 
ATOM      6  C   UNL     1      31.941 -11.341 -21.839  0.00  0.00    -0.075 C 
ATOM      7  H   UNL     1      31.244 -10.526 -23.563  0.00  0.00    -0.080 HD
ENDROOT
BRANCH   2  10
ATOM      8 CL   UNL     1      36.009 -19.130 -22.148  0.00  0.00    -0.082 Cl
ATOM      9  O   UNL     1      32.881 -13.625 -26.042  0.00  0.00    -0.247 OA
ATOM     10  N   UNL     1      33.739 -14.011 -23.859  0.00  0.00    -0.282 N 
ATOM     11  N   UNL     1      33.794 -15.700 -25.370  0.00  0.00    -0.305 N 
ATOM     12  C   UNL     1      34.316 -15.128 -23.241  0.00  0.00    +0.079 A 
ATOM     13  C   UNL     1      33.400 -14.342 -25.199  0.00  0.00    +0.328 A 
ATOM     14  C   UNL     1      34.347 -16.162 -24.175  0.00  0.00    +0.077 A 
ATOM     15  C   UNL     1      34.801 -15.299 -21.961  0.00  0.00    +0.020 C 
ATOM     16  C   UNL     1      34.857 -17.407 -23.882  0.00  0.00    +0.030 C 
ATOM     17  C   UNL     1      35.325 -16.555 -21.639  0.00  0.00    +0.013 C 
ATOM     18  C   UNL     1      35.353 -17.597 -22.590  0.00  0.00    +0.059 C 
ATOM     19  H   UNL     1      33.691 -16.226 -26.195  0.00  0.00    +0.170 HD
ENDBRANCH   2  10
BRANCH   1  20
ATOM     20  C   UNL     1      31.649  -8.992 -22.289  0.00  0.00    -0.075 C 
BRANCH  20  21
ATOM     21  C   UNL     1      32.902  -8.292 -21.757  0.00  0.00    +0.002 C 
BRANCH  21  22
ATOM     22  C   UNL     1      32.682  -6.842 -21.331  0.00  0.00    +0.108 C 
BRANCH  22  24
ATOM     23  O   UNL     1      30.203  -5.148 -21.643  0.00  0.00    -0.247 OA
ATOM     24  N   UNL     1      32.283  -6.001 -22.426  0.00  0.00    -0.280 N 
ATOM     25  N   UNL     1      31.115  -4.566 -23.746  0.00  0.00    -0.305 N 
ATOM     26  C   UNL     1      33.008  -5.801 -23.612  0.00  0.00    +0.079 A 
ATOM     27  C   UNL     1      31.084  -5.231 -22.488  0.00  0.00    +0.328 A 
ATOM     28  C   UNL     1      32.286  -4.921 -24.416  0.00  0.00    +0.076 A 
ATOM     29  C   UNL     1      34.218  -6.323 -24.020  0.00  0.00    +0.019 C 
ATOM     30  C   UNL     1      32.731  -4.519 -25.656  0.00  0.00    +0.019 C 
ATOM     31  C   UNL     1      34.691  -5.930 -25.277  0.00  0.00    +0.002 C 
ATOM     32  C   UNL     1      33.956  -5.037 -26.086  0.00  0.00    +0.002 C 
ATOM     33  H   UNL     1      30.422  -3.954 -24.088  0.00  0.00    +0.170 HD
ENDBRANCH  22  24
ENDBRANCH  21  22
ENDBRANCH  20  21
ENDBRANCH   1  20
TORSDOF 5
ENDMDL
MODEL 4
REMARK VINA RESULT:     -11.8      3.224      5.559
REMARK  Name = 3151
REMARK  5 active torsions:
REMARK  status: ('A' for Active; 'I' for Inactive)
REMARK    1  A    between atoms: N_1  and  C_20
REMARK    2  A    between atoms: C_2  and  N_10
REMARK    3  A    between atoms: C_20  and  C_21
REMARK    4  A    between atoms: C_21  and  C_22
REMARK    5  A    between atoms: C_22  and  N_24
REMARK                            x       y       z     vdW  Elec       q    Type
REMARK                         _______ _______ _______ _____ _____    ______ ____
ROOT
ATOM      1  N   UNL     1      35.905 -19.673 -20.751  0.00  0.00    +0.387 N 
ATOM      2  C   UNL     1      35.319 -18.495 -23.363  0.00  0.00    +0.086 C 
ATOM      3  C   UNL     1      36.313 -17.864 -22.388  0.00  0.00    -0.000 C 
ATOM      4  C   UNL     1      34.300 -19.345 -22.604  0.00  0.00    -0.000 C 
ATOM      5  C   UNL     1      36.938 -18.918 -21.473  0.00  0.00    -0.075 C 
ATOM      6  C   UNL     1      34.993 -20.350 -21.682  0.00  0.00    -0.075 C 
ATOM      7  H   UNL     1      35.359 -19.011 -20.201  0.00  0.00    -0.080 HD
ENDROOT
BRANCH   2  10
ATOM      8 CL   UNL     1      33.342 -11.850 -23.267  0.00  0.00    -0.082 Cl
ATOM      9  O   UNL     1      34.140 -18.651 -26.160  0.00  0.00    -0.247 OA
ATOM     10  N   UNL     1      34.664 -17.484 -24.155  0.00  0.00    -0.282 N 
ATOM     11  N   UNL     1      33.598 -16.374 -25.819  0.00  0.00    -0.305 N 
ATOM     12  C   UNL     1      34.450 -16.166 -23.731  0.00  0.00    +0.079 A 
ATOM     13  C   UNL     1      34.139 -17.643 -25.466  0.00  0.00    +0.328 A 
ATOM     14  C   UNL     1      33.794 -15.490 -24.758  0.00  0.00    +0.077 A 
ATOM     15  C   UNL     1      34.778 -15.536 -22.548  0.00  0.00    +0.020 C 
ATOM     16  C   UNL     1      33.435 -14.164 -24.659  0.00  0.00    +0.030 C 
ATOM     17  C   UNL     1      34.423 -14.190 -22.423  0.00  0.00    +0.013 C 
ATOM     18  C   UNL     1      33.759 -13.512 -23.466  0.00  0.00    +0.059 C 
ATOM     19  H   UNL     1      33.158 -16.157 -26.673  0.00  0.00    +0.170 HD
ENDBRANCH   2  10
BRANCH   1  20
ATOM     20  C   UNL     1      36.521 -20.642 -19.843  0.00  0.00    -0.075 C 
BRANCH  20  21
ATOM     21  C   UNL     1      35.633 -21.871 -19.631  0.00  0.00    +0.002 C 
BRANCH  21  22
ATOM     22  C   UNL     1      35.598 -22.384 -18.192  0.00  0.00    +0.108 C 
BRANCH  22  24
ATOM     23  O   UNL     1      32.960 -21.964 -19.598  0.00  0.00    -0.247 OA
ATOM     24  N   UNL     1      34.267 -22.707 -17.754  0.00  0.00    -0.280 N 
ATOM     25  N   UNL     1      32.009 -22.947 -17.669  0.00  0.00    -0.305 N 
ATOM     26  C   UNL     1      33.932 -23.307 -16.529  0.00  0.00    +0.079 A 
ATOM     27  C   UNL     1      33.070 -22.470 -18.490  0.00  0.00    +0.328 A 
ATOM     28  C   UNL     1      32.547 -23.451 -16.484  0.00  0.00    +0.076 A 
ATOM     29  C   UNL     1      34.734 -23.722 -15.486  0.00  0.00    +0.019 C 
ATOM     30  C   UNL     1      31.896 -24.010 -15.407  0.00  0.00    +0.019 C 
ATOM     31  C   UNL     1      34.096 -24.294 -14.380  0.00  0.00    +0.002 C 
ATOM     32  C   UNL     1      32.693 -24.437 -14.341  0.00  0.00    +0.002 C 
ATOM     33  H   UNL     1      31.051 -22.924 -17.900  0.00  0.00    +0.170 HD
ENDBRANCH  22  24
ENDBRANCH  21  22
ENDBRANCH  20  21
ENDBRANCH   1  20
TORSDOF 5
ENDMDL
MODEL 5
REMARK VINA RESULT:     -11.8      3.014      4.943
REMARK  Name = 3151
REMARK  5 active torsions:
REMARK  status: ('A' for Active; 'I' for Inactive)
REMARK    1  A    between atoms: N_1  and  C_20
REMARK    2  A    between atoms: C_2  and  N_10
REMARK    3  A    between atoms: C_20  and  C_21
REMARK    4  A    between atoms: C_21  and  C_22
REMARK    5  A    between atoms: C_22  and  N_24
REMARK                            x       y       z     vdW  Elec       q    Type
REMARK                         _______ _______ _______ _____ _____    ______ ____
ROOT
ATOM      1  N   UNL     1      32.830 -12.449 -22.123  0.00  0.00    +0.387 N 
ATOM      2  C   UNL     1      31.821  -9.706 -22.222  0.00  0.00    +0.086 C 
ATOM      3  C   UNL     1      33.098 -10.131 -22.945  0.00  0.00    -0.000 C 
ATOM      4  C   UNL     1      31.550 -10.633 -21.037  0.00  0.00    -0.000 C 
ATOM      5  C   UNL     1      33.060 -11.616 -23.311  0.00  0.00    -0.075 C 
ATOM      6  C   UNL     1      31.562 -12.101 -21.468  0.00  0.00    -0.075 C 
ATOM      7  H   UNL     1      33.585 -12.271 -21.462  0.00  0.00    -0.080 HD
ENDROOT
BRANCH   2  10
ATOM      8 CL   UNL     1      31.056  -3.189 -24.464  0.00  0.00    -0.082 Cl
ATOM      9  O   UNL     1      32.537  -8.532 -19.512  0.00  0.00    -0.247 OA
ATOM     10  N   UNL     1      31.906  -8.331 -21.796  0.00  0.00    -0.282 N 
ATOM     11  N   UNL     1      32.198  -6.445 -20.572  0.00  0.00    -0.305 N 
ATOM     12  C   UNL     1      31.653  -7.231 -22.626  0.00  0.00    +0.079 A 
ATOM     13  C   UNL     1      32.251  -7.866 -20.498  0.00  0.00    +0.328 A 
ATOM     14  C   UNL     1      31.834  -6.076 -21.868  0.00  0.00    +0.077 A 
ATOM     15  C   UNL     1      31.287  -7.171 -23.955  0.00  0.00    +0.020 C 
ATOM     16  C   UNL     1      31.661  -4.814 -22.391  0.00  0.00    +0.030 C 
ATOM     17  C   UNL     1      31.106  -5.900 -24.510  0.00  0.00    +0.013 C 
ATOM     18  C   UNL     1      31.291  -4.735 -23.736  0.00  0.00    +0.059 C 
ATOM     19  H   UNL     1      32.386  -5.825 -19.831  0.00  0.00    +0.170 HD
ENDBRANCH   2  10
BRANCH   1  20
ATOM     20  C   UNL     1      32.846 -13.868 -22.483  0.00  0.00    -0.075 C 
BRANCH  20  21
ATOM     21  C   UNL     1      33.114 -14.076 -23.976  0.00  0.00    +0.002 C 
BRANCH  21  22
ATOM     22  C   UNL     1      34.468 -14.708 -24.293  0.00  0.00    +0.108 C 
BRANCH  22  24
ATOM     23  O   UNL     1      33.414 -16.397 -26.562  0.00  0.00    -0.247 OA
ATOM     24  N   UNL     1      34.394 -16.139 -24.409  0.00  0.00    -0.280 N 
ATOM     25  N   UNL     1      34.006 -18.235 -25.197  0.00  0.00    -0.305 N 
ATOM     26  C   UNL     1      34.821 -17.062 -23.440  0.00  0.00    +0.079 A 
ATOM     27  C   UNL     1      33.876 -16.856 -25.526  0.00  0.00    +0.328 A 
ATOM     28  C   UNL     1      34.580 -18.344 -23.929  0.00  0.00    +0.076 A 
ATOM     29  C   UNL     1      35.388 -16.859 -22.198  0.00  0.00    +0.019 C 
ATOM     30  C   UNL     1      34.889 -19.479 -23.213  0.00  0.00    +0.019 C 
ATOM     31  C   UNL     1      35.710 -17.997 -21.451  0.00  0.00    +0.002 C 
ATOM     32  C   UNL     1      35.464 -19.292 -21.953  0.00  0.00    +0.002 C 
ATOM     33  H   UNL     1      33.735 -18.989 -25.769  0.00  0.00    +0.170 HD
ENDBRANCH  22  24
ENDBRANCH  21  22
ENDBRANCH  20  21
ENDBRANCH   1  20
TORSDOF 5
ENDMDL
MODEL 6
REMARK VINA RESULT:     -11.6      5.209     11.152
REMARK  Name = 3151
REMARK  5 active torsions:
REMARK  status: ('A' for Active; 'I' for Inactive)
REMARK    1  A    between atoms: N_1  and  C_20
REMARK    2  A    between atoms: C_2  and  N_10
REMARK    3  A    between atoms: C_20  and  C_21
REMARK    4  A    between atoms: C_21  and  C_22
REMARK    5  A    between atoms: C_22  and  N_24
REMARK                            x       y       z     vdW  Elec       q    Type
REMARK                         _______ _______ _______ _____ _____    ______ ____
ROOT
ATOM      1  N   UNL     1      35.148 -20.655 -20.269  0.00  0.00    +0.387 N 
ATOM      2  C   UNL     1      34.045 -22.717 -18.512  0.00  0.00    +0.086 C 
ATOM      3  C   UNL     1      33.164 -21.670 -19.194  0.00  0.00    -0.000 C 
ATOM      4  C   UNL     1      35.470 -22.187 -18.354  0.00  0.00    -0.000 C 
ATOM      5  C   UNL     1      33.795 -21.180 -20.499  0.00  0.00    -0.075 C 
ATOM      6  C   UNL     1      36.024 -21.681 -19.688  0.00  0.00    -0.075 C 
ATOM      7  H   UNL     1      35.079 -19.887 -19.603  0.00  0.00    -0.080 HD
ENDROOT
BRANCH   2  10
ATOM      8 CL   UNL     1      35.803 -25.000 -12.205  0.00  0.00    -0.082 Cl
ATOM      9  O   UNL     1      31.157 -22.792 -17.570  0.00  0.00    -0.247 OA
ATOM     10  N   UNL     1      33.490 -23.101 -17.238  0.00  0.00    -0.282 N 
ATOM     11  N   UNL     1      32.072 -23.560 -15.529  0.00  0.00    -0.305 N 
ATOM     12  C   UNL     1      34.252 -23.536 -16.145  0.00  0.00    +0.079 A 
ATOM     13  C   UNL     1      32.115 -23.106 -16.879  0.00  0.00    +0.328 A 
ATOM     14  C   UNL     1      33.374 -23.816 -15.099  0.00  0.00    +0.077 A 
ATOM     15  C   UNL     1      35.615 -23.698 -16.005  0.00  0.00    +0.020 C 
ATOM     16  C   UNL     1      33.807 -24.267 -13.872  0.00  0.00    +0.030 C 
ATOM     17  C   UNL     1      36.079 -24.156 -14.768  0.00  0.00    +0.013 C 
ATOM     18  C   UNL     1      35.185 -24.437 -13.714  0.00  0.00    +0.059 C 
ATOM     19  H   UNL     1      31.258 -23.673 -14.989  0.00  0.00    +0.170 HD
ENDBRANCH   2  10
BRANCH   1  20
ATOM     20  C   UNL     1      35.717 -20.145 -21.518  0.00  0.00    -0.075 C 
BRANCH  20  21
ATOM     21  C   UNL     1      34.905 -18.976 -22.081  0.00  0.00    +0.002 C 
BRANCH  21  22
ATOM     22  C   UNL     1      35.689 -18.050 -23.007  0.00  0.00    +0.108 C 
BRANCH  22  24
ATOM     23  O   UNL     1      34.367 -18.950 -25.568  0.00  0.00    -0.247 OA
ATOM     24  N   UNL     1      34.838 -17.316 -23.903  0.00  0.00    -0.280 N 
ATOM     25  N   UNL     1      33.499 -16.753 -25.651  0.00  0.00    -0.305 N 
ATOM     26  C   UNL     1      34.444 -15.977 -23.746  0.00  0.00    +0.079 A 
ATOM     27  C   UNL     1      34.254 -17.826 -25.100  0.00  0.00    +0.328 A 
ATOM     28  C   UNL     1      33.624 -15.638 -24.820  0.00  0.00    +0.076 A 
ATOM     29  C   UNL     1      34.746 -15.065 -22.755  0.00  0.00    +0.019 C 
ATOM     30  C   UNL     1      33.069 -14.387 -24.961  0.00  0.00    +0.019 C 
ATOM     31  C   UNL     1      34.194 -13.786 -22.876  0.00  0.00    +0.002 C 
ATOM     32  C   UNL     1      33.364 -13.450 -23.966  0.00  0.00    +0.002 C 
ATOM     33  H   UNL     1      32.975 -16.789 -26.485  0.00  0.00    +0.170 HD
ENDBRANCH  22  24
ENDBRANCH  21  22
ENDBRANCH  20  21
ENDBRANCH   1  20
TORSDOF 5
ENDMDL
MODEL 7
REMARK VINA RESULT:     -11.4      3.099      5.407
REMARK  Name = 3151
REMARK  5 active torsions:
REMARK  status: ('A' for Active; 'I' for Inactive)
REMARK    1  A    between atoms: N_1  and  C_20
REMARK    2  A    between atoms: C_2  and  N_10
REMARK    3  A    between atoms: C_20  and  C_21
REMARK    4  A    between atoms: C_21  and  C_22
REMARK    5  A    between atoms: C_22  and  N_24
REMARK                            x       y       z     vdW  Elec       q    Type
REMARK                         _______ _______ _______ _____ _____    ______ ____
ROOT
ATOM      1  N   UNL     1      33.540 -10.814 -24.294  0.00  0.00    +0.387 N 
ATOM      2  C   UNL     1      33.248  -8.592 -22.414  0.00  0.00    +0.086 C 
ATOM      3  C   UNL     1      32.119  -9.586 -22.683  0.00  0.00    -0.000 C 
ATOM      4  C   UNL     1      34.192  -8.527 -23.615  0.00  0.00    -0.000 C 
ATOM      5  C   UNL     1      32.669 -10.946 -23.117  0.00  0.00    -0.075 C 
ATOM      6  C   UNL     1      34.674  -9.922 -24.018  0.00  0.00    -0.075 C 
ATOM      7  H   UNL     1      32.991 -10.401 -25.047  0.00  0.00    -0.080 HD
ENDROOT
BRANCH   2  10
ATOM      8 CL   UNL     1      31.526  -2.511 -25.266  0.00  0.00    -0.082 Cl
ATOM      9  O   UNL     1      32.365  -7.424 -19.752  0.00  0.00    -0.247 OA
ATOM     10  N   UNL     1      32.720  -7.289 -22.099  0.00  0.00    -0.282 N 
ATOM     11  N   UNL     1      31.876  -5.485 -21.014  0.00  0.00    -0.305 N 
ATOM     12  C   UNL     1      32.512  -6.272 -23.041  0.00  0.00    +0.079 A 
ATOM     13  C   UNL     1      32.328  -6.821 -20.815  0.00  0.00    +0.328 A 
ATOM     14  C   UNL     1      31.994  -5.168 -22.368  0.00  0.00    +0.077 A 
ATOM     15  C   UNL     1      32.737  -6.247 -24.402  0.00  0.00    +0.020 C 
ATOM     16  C   UNL     1      31.677  -3.992 -23.011  0.00  0.00    +0.030 C 
ATOM     17  C   UNL     1      32.423  -5.064 -25.078  0.00  0.00    +0.013 C 
ATOM     18  C   UNL     1      31.899  -3.949 -24.390  0.00  0.00    +0.059 C 
ATOM     19  H   UNL     1      31.536  -4.885 -20.312  0.00  0.00    +0.170 HD
ENDBRANCH   2  10
BRANCH   1  20
ATOM     20  C   UNL     1      34.017 -12.129 -24.727  0.00  0.00    -0.075 C 
BRANCH  20  21
ATOM     21  C   UNL     1      33.386 -13.262 -23.912  0.00  0.00    +0.002 C 
BRANCH  21  22
ATOM     22  C   UNL     1      34.394 -14.179 -23.222  0.00  0.00    +0.108 C 
BRANCH  22  24
ATOM     23  O   UNL     1      33.444 -15.156 -25.916  0.00  0.00    -0.247 OA
ATOM     24  N   UNL     1      34.383 -15.513 -23.759  0.00  0.00    -0.280 N 
ATOM     25  N   UNL     1      34.095 -17.293 -25.142  0.00  0.00    -0.305 N 
ATOM     26  C   UNL     1      34.835 -16.666 -23.096  0.00  0.00    +0.079 A 
ATOM     27  C   UNL     1      33.912 -15.885 -25.052  0.00  0.00    +0.328 A 
ATOM     28  C   UNL     1      34.656 -17.753 -23.949  0.00  0.00    +0.076 A 
ATOM     29  C   UNL     1      35.376 -16.820 -21.835  0.00  0.00    +0.019 C 
ATOM     30  C   UNL     1      35.003 -19.037 -23.593  0.00  0.00    +0.019 C 
ATOM     31  C   UNL     1      35.736 -18.116 -21.451  0.00  0.00    +0.002 C 
ATOM     32  C   UNL     1      35.553 -19.212 -22.320  0.00  0.00    +0.002 C 
ATOM     33  H   UNL     1      33.864 -17.853 -25.919  0.00  0.00    +0.170 HD
ENDBRANCH  22  24
ENDBRANCH  21  22
ENDBRANCH  20  21
ENDBRANCH   1  20
TORSDOF 5
ENDMDL
MODEL 8
REMARK VINA RESULT:     -11.3      3.927     11.076
REMARK  Name = 3151
REMARK  5 active torsions:
REMARK  status: ('A' for Active; 'I' for Inactive)
REMARK    1  A    between atoms: N_1  and  C_20
REMARK    2  A    between atoms: C_2  and  N_10
REMARK    3  A    between atoms: C_20  and  C_21
REMARK    4  A    between atoms: C_21  and  C_22
REMARK    5  A    between atoms: C_22  and  N_24
REMARK                            x       y       z     vdW  Elec       q    Type
REMARK                         _______ _______ _______ _____ _____    ______ ____
ROOT
ATOM      1  N   UNL     1      32.611 -11.048 -23.423  0.00  0.00    +0.387 N 
ATOM      2  C   UNL     1      34.010 -13.615 -23.320  0.00  0.00    +0.086 C 
ATOM      3  C   UNL     1      34.174 -12.643 -24.488  0.00  0.00    -0.000 C 
ATOM      4  C   UNL     1      32.664 -13.390 -22.631  0.00  0.00    -0.000 C 
ATOM      5  C   UNL     1      33.934 -11.198 -24.046  0.00  0.00    -0.075 C 
ATOM      6  C   UNL     1      32.475 -11.920 -22.249  0.00  0.00    -0.075 C 
ATOM      7  H   UNL     1      31.908 -11.326 -24.106  0.00  0.00    -0.080 HD
ENDROOT
BRANCH   2  10
ATOM      8 CL   UNL     1      36.011 -19.917 -21.234  0.00  0.00    -0.082 Cl
ATOM      9  O   UNL     1      33.370 -14.872 -26.011  0.00  0.00    -0.247 OA
ATOM     10  N   UNL     1      34.143 -14.979 -23.766  0.00  0.00    -0.282 N 
ATOM     11  N   UNL     1      34.120 -16.877 -25.006  0.00  0.00    -0.305 N 
ATOM     12  C   UNL     1      34.626 -16.025 -22.968  0.00  0.00    +0.079 A 
ATOM     13  C   UNL     1      33.817 -15.486 -25.053  0.00  0.00    +0.328 A 
ATOM     14  C   UNL     1      34.610 -17.188 -23.737  0.00  0.00    +0.077 A 
ATOM     15  C   UNL     1      35.065 -16.032 -21.660  0.00  0.00    +0.020 C 
ATOM     16  C   UNL     1      35.025 -18.405 -23.245  0.00  0.00    +0.030 C 
ATOM     17  C   UNL     1      35.493 -17.257 -21.138  0.00  0.00    +0.013 C 
ATOM     18  C   UNL     1      35.474 -18.429 -21.921  0.00  0.00    +0.059 C 
ATOM     19  H   UNL     1      34.003 -17.513 -25.747  0.00  0.00    +0.170 HD
ENDBRANCH   2  10
BRANCH   1  20
ATOM     20  C   UNL     1      32.378  -9.651 -23.052  0.00  0.00    -0.075 C 
BRANCH  20  21
ATOM     21  C   UNL     1      33.548  -8.749 -23.454  0.00  0.00    +0.002 C 
BRANCH  21  22
ATOM     22  C   UNL     1      33.983  -7.760 -22.375  0.00  0.00    +0.108 C 
BRANCH  22  24
ATOM     23  O   UNL     1      32.314  -7.291 -19.904  0.00  0.00    -0.247 OA
ATOM     24  N   UNL     1      32.992  -6.751 -22.120  0.00  0.00    -0.280 N 
ATOM     25  N   UNL     1      31.394  -5.482 -21.117  0.00  0.00    -0.305 N 
ATOM     26  C   UNL     1      32.596  -5.746 -23.018  0.00  0.00    +0.079 A 
ATOM     27  C   UNL     1      32.246  -6.604 -20.913  0.00  0.00    +0.328 A 
ATOM     28  C   UNL     1      31.617  -4.973 -22.397  0.00  0.00    +0.076 A 
ATOM     29  C   UNL     1      33.023  -5.473 -24.302  0.00  0.00    +0.019 C 
ATOM     30  C   UNL     1      31.020  -3.898 -23.017  0.00  0.00    +0.019 C 
ATOM     31  C   UNL     1      32.431  -4.386 -24.953  0.00  0.00    +0.002 C 
ATOM     32  C   UNL     1      31.441  -3.607 -24.318  0.00  0.00    +0.002 C 
ATOM     33  H   UNL     1      30.751  -5.124 -20.462  0.00  0.00    +0.170 HD
ENDBRANCH  22  24
ENDBRANCH  21  22
ENDBRANCH  20  21
ENDBRANCH   1  20
TORSDOF 5
ENDMDL
MODEL 9
REMARK VINA RESULT:     -11.3      5.232     11.147
REMARK  Name = 3151
REMARK  5 active torsions:
REMARK  status: ('A' for Active; 'I' for Inactive)
REMARK    1  A    between atoms: N_1  and  C_20
REMARK    2  A    between atoms: C_2  and  N_10
REMARK    3  A    between atoms: C_20  and  C_21
REMARK    4  A    between atoms: C_21  and  C_22
REMARK    5  A    between atoms: C_22  and  N_24
REMARK                            x       y       z     vdW  Elec       q    Type
REMARK                         _______ _______ _______ _____ _____    ______ ____
ROOT
ATOM      1  N   UNL     1      35.061 -20.648 -20.141  0.00  0.00    +0.387 N 
ATOM      2  C   UNL     1      33.970 -22.748 -18.422  0.00  0.00    +0.086 C 
ATOM      3  C   UNL     1      33.084 -21.692 -19.081  0.00  0.00    -0.000 C 
ATOM      4  C   UNL     1      35.394 -22.216 -18.258  0.00  0.00    -0.000 C 
ATOM      5  C   UNL     1      33.709 -21.174 -20.378  0.00  0.00    -0.075 C 
ATOM      6  C   UNL     1      35.943 -21.682 -19.582  0.00  0.00    -0.075 C 
ATOM      7  H   UNL     1      34.990 -19.893 -19.460  0.00  0.00    -0.080 HD
ENDROOT
BRANCH   2  10
ATOM      8 CL   UNL     1      35.767 -24.947 -12.096  0.00  0.00    -0.082 Cl
ATOM      9  O   UNL     1      31.079 -22.964 -17.513  0.00  0.00    -0.247 OA
ATOM     10  N   UNL     1      33.421 -23.160 -17.154  0.00  0.00    -0.282 N 
ATOM     11  N   UNL     1      32.008 -23.688 -15.462  0.00  0.00    -0.305 N 
ATOM     12  C   UNL     1      34.191 -23.558 -16.053  0.00  0.00    +0.079 A 
ATOM     13  C   UNL     1      32.044 -23.232 -16.811  0.00  0.00    +0.328 A 
ATOM     14  C   UNL     1      33.316 -23.880 -15.017  0.00  0.00    +0.077 A 
ATOM     15  C   UNL     1      35.558 -23.653 -15.897  0.00  0.00    +0.020 C 
ATOM     16  C   UNL     1      33.756 -24.311 -13.785  0.00  0.00    +0.030 C 
ATOM     17  C   UNL     1      36.030 -24.089 -14.655  0.00  0.00    +0.013 C 
ATOM     18  C   UNL     1      35.139 -24.414 -13.611  0.00  0.00    +0.059 C 
ATOM     19  H   UNL     1      31.194 -23.841 -14.931  0.00  0.00    +0.170 HD
ENDBRANCH   2  10
BRANCH   1  20
ATOM     20  C   UNL     1      35.625 -20.111 -21.381  0.00  0.00    -0.075 C 
BRANCH  20  21
ATOM     21  C   UNL     1      34.876 -18.862 -21.855  0.00  0.00    +0.002 C 
BRANCH  21  22
ATOM     22  C   UNL     1      35.780 -17.733 -22.346  0.00  0.00    +0.108 C 
BRANCH  22  24
ATOM     23  O   UNL     1      35.128 -15.489 -20.435  0.00  0.00    -0.247 OA
ATOM     24  N   UNL     1      35.058 -16.513 -22.582  0.00  0.00    -0.280 N 
ATOM     25  N   UNL     1      34.059 -14.492 -22.293  0.00  0.00    -0.305 N 
ATOM     26  C   UNL     1      34.495 -16.118 -23.807  0.00  0.00    +0.079 A 
ATOM     27  C   UNL     1      34.796 -15.501 -21.612  0.00  0.00    +0.328 A 
ATOM     28  C   UNL     1      33.884 -14.880 -23.623  0.00  0.00    +0.076 A 
ATOM     29  C   UNL     1      34.482 -16.752 -25.033  0.00  0.00    +0.019 C 
ATOM     30  C   UNL     1      33.236 -14.216 -24.640  0.00  0.00    +0.019 C 
ATOM     31  C   UNL     1      33.830 -16.098 -26.082  0.00  0.00    +0.002 C 
ATOM     32  C   UNL     1      33.214 -14.843 -25.889  0.00  0.00    +0.002 C 
ATOM     33  H   UNL     1      33.726 -13.656 -21.892  0.00  0.00    +0.170 HD
ENDBRANCH  22  24
ENDBRANCH  21  22
ENDBRANCH  20  21
ENDBRANCH   1  20
TORSDOF 5
ENDMDL
