MODEL 1
REMARK VINA RESULT:     -11.1      0.000      0.000
REMARK  Name = 2929
REMARK  5 active torsions:
REMARK  status: ('A' for Active; 'I' for Inactive)
REMARK    1  A    between atoms: N_1  and  C_22
REMARK    2  A    between atoms: C_4  and  C_11
REMARK    3  A    between atoms: C_11  and  C_14
REMARK    4  A    between atoms: N_13  and  C_17
REMARK    5  A    between atoms: C_22  and  C_24
REMARK                            x       y       z     vdW  Elec       q    Type
REMARK                         _______ _______ _______ _____ _____    ______ ____
ROOT
ATOM      1  N   UNL     1      33.978  -8.854 -23.040  0.00  0.00    -0.281 N 
ATOM      2  C   UNL     1      32.996  -9.398 -22.244  0.00  0.00    +0.052 C 
ATOM      3  C   UNL     1      32.677 -10.647 -22.780  0.00  0.00    +0.018 C 
ATOM      4  C   UNL     1      33.501 -10.834 -23.924  0.00  0.00    +0.060 C 
ATOM      5  C   UNL     1      34.290  -9.714 -24.059  0.00  0.00    +0.069 C 
ATOM      6  C   UNL     1      32.373  -8.884 -21.101  0.00  0.00    +0.015 C 
ATOM      7  C   UNL     1      31.686 -11.423 -22.147  0.00  0.00    +0.001 C 
ATOM      8  C   UNL     1      31.393  -9.672 -20.490  0.00  0.00    +0.001 C 
ATOM      9  C   UNL     1      31.054 -10.923 -21.002  0.00  0.00    +0.000 C 
ENDROOT
BRANCH   4  11
ATOM     10  O   UNL     1      33.568 -11.888 -26.052  0.00  0.00    -0.282 OA
ATOM     11  C   UNL     1      33.544 -11.961 -24.811  0.00  0.00    +0.250 C 
BRANCH  11  14
ATOM     12  O   UNL     1      32.799 -14.173 -24.863  0.00  0.00    -0.266 OA
ATOM     13  N   UNL     1      34.443 -13.559 -23.272  0.00  0.00    -0.278 N 
ATOM     14  C   UNL     1      33.552 -13.390 -24.310  0.00  0.00    +0.289 C 
ATOM     15  H   UNL     1      34.949 -12.762 -22.992  0.00  0.00    +0.155 HD
BRANCH  13  17
ATOM     16  N   UNL     1      35.238 -17.104 -21.184  0.00  0.00    -0.242 NA
ATOM     17  C   UNL     1      34.710 -14.755 -22.567  0.00  0.00    +0.054 C 
ATOM     18  C   UNL     1      35.101 -15.881 -23.265  0.00  0.00    +0.035 C 
ATOM     19  C   UNL     1      34.578 -14.778 -21.193  0.00  0.00    +0.035 C 
ATOM     20  C   UNL     1      35.353 -17.028 -22.529  0.00  0.00    +0.100 C 
ATOM     21  C   UNL     1      34.852 -15.974 -20.550  0.00  0.00    +0.100 C 
ENDBRANCH  13  17
ENDBRANCH  11  14
ENDBRANCH   4  11
BRANCH   1  22
ATOM     22  C   UNL     1      34.602  -7.563 -22.845  0.00  0.00    +0.122 C 
BRANCH  22  24
ATOM     23 CL   UNL     1      32.269  -3.426 -26.515  0.00  0.00    -0.082 Cl
ATOM     24  C   UNL     1      34.016  -6.526 -23.766  0.00  0.00    -0.002 C 
ATOM     25  C   UNL     1      34.722  -6.140 -24.898  0.00  0.00    -0.002 C 
ATOM     26  C   UNL     1      32.780  -5.969 -23.471  0.00  0.00    -0.002 C 
ATOM     27  C   UNL     1      34.180  -5.179 -25.750  0.00  0.00    +0.011 C 
ATOM     28  C   UNL     1      32.238  -5.008 -24.323  0.00  0.00    +0.011 C 
ATOM     29  C   UNL     1      32.938  -4.613 -25.463  0.00  0.00    +0.058 C 
ENDBRANCH  22  24
ENDBRANCH   1  22
TORSDOF 5
ENDMDL
MODEL 2
REMARK VINA RESULT:     -10.9     10.570     15.691
REMARK  Name = 2929
REMARK  5 active torsions:
REMARK  status: ('A' for Active; 'I' for Inactive)
REMARK    1  A    between atoms: N_1  and  C_22
REMARK    2  A    between atoms: C_4  and  C_11
REMARK    3  A    between atoms: C_11  and  C_14
REMARK    4  A    between atoms: N_13  and  C_17
REMARK    5  A    between atoms: C_22  and  C_24
REMARK                            x       y       z     vdW  Elec       q    Type
REMARK                         _______ _______ _______ _____ _____    ______ ____
ROOT
ATOM      1  N   UNL     1      33.938 -23.738 -15.026  0.00  0.00    -0.281 N 
ATOM      2  C   UNL     1      32.578 -23.545 -15.118  0.00  0.00    +0.052 C 
ATOM      3  C   UNL     1      32.279 -23.359 -16.469  0.00  0.00    +0.018 C 
ATOM      4  C   UNL     1      33.506 -23.446 -17.184  0.00  0.00    +0.060 C 
ATOM      5  C   UNL     1      34.508 -23.680 -16.270  0.00  0.00    +0.069 C 
ATOM      6  C   UNL     1      31.601 -23.523 -14.116  0.00  0.00    +0.015 C 
ATOM      7  C   UNL     1      30.939 -23.138 -16.841  0.00  0.00    +0.001 C 
ATOM      8  C   UNL     1      30.278 -23.302 -14.510  0.00  0.00    +0.001 C 
ATOM      9  C   UNL     1      29.950 -23.113 -15.851  0.00  0.00    +0.000 C 
ENDROOT
BRANCH   4  11
ATOM     10  O   UNL     1      33.898 -24.276 -19.374  0.00  0.00    -0.282 OA
ATOM     11  C   UNL     1      33.718 -23.323 -18.598  0.00  0.00    +0.250 C 
BRANCH  11  14
ATOM     12  O   UNL     1      32.725 -21.330 -19.298  0.00  0.00    -0.266 OA
ATOM     13  N   UNL     1      34.997 -21.727 -19.842  0.00  0.00    -0.278 N 
ATOM     14  C   UNL     1      33.755 -21.982 -19.300  0.00  0.00    +0.289 C 
ATOM     15  H   UNL     1      35.684 -22.420 -19.713  0.00  0.00    +0.155 HD
BRANCH  13  17
ATOM     16  N   UNL     1      36.160 -18.316 -21.980  0.00  0.00    -0.242 NA
ATOM     17  C   UNL     1      35.389 -20.575 -20.563  0.00  0.00    +0.054 C 
ATOM     18  C   UNL     1      36.684 -20.111 -20.448  0.00  0.00    +0.035 C 
ATOM     19  C   UNL     1      34.471 -19.936 -21.372  0.00  0.00    +0.035 C 
ATOM     20  C   UNL     1      37.019 -18.980 -21.175  0.00  0.00    +0.100 C 
ATOM     21  C   UNL     1      34.904 -18.812 -22.057  0.00  0.00    +0.100 C 
ENDBRANCH  13  17
ENDBRANCH  11  14
ENDBRANCH   4  11
BRANCH   1  22
ATOM     22  C   UNL     1      34.676 -23.969 -13.802  0.00  0.00    +0.122 C 
BRANCH  22  24
ATOM     23 CL   UNL     1      40.037 -26.431 -14.907  0.00  0.00    -0.082 Cl
ATOM     24  C   UNL     1      36.021 -24.587 -14.080  0.00  0.00    -0.002 C 
ATOM     25  C   UNL     1      36.088 -25.845 -14.662  0.00  0.00    -0.002 C 
ATOM     26  C   UNL     1      37.174 -23.889 -13.750  0.00  0.00    -0.002 C 
ATOM     27  C   UNL     1      37.334 -26.417 -14.919  0.00  0.00    +0.011 C 
ATOM     28  C   UNL     1      38.420 -24.461 -14.006  0.00  0.00    +0.011 C 
ATOM     29  C   UNL     1      38.500 -25.725 -14.591  0.00  0.00    +0.058 C 
ENDBRANCH  22  24
ENDBRANCH   1  22
TORSDOF 5
ENDMDL
MODEL 3
REMARK VINA RESULT:     -10.2      1.387      1.653
REMARK  Name = 2929
REMARK  5 active torsions:
REMARK  status: ('A' for Active; 'I' for Inactive)
REMARK    1  A    between atoms: N_1  and  C_22
REMARK    2  A    between atoms: C_4  and  C_11
REMARK    3  A    between atoms: C_11  and  C_14
REMARK    4  A    between atoms: N_13  and  C_17
REMARK    5  A    between atoms: C_22  and  C_24
REMARK                            x       y       z     vdW  Elec       q    Type
REMARK                         _______ _______ _______ _____ _____    ______ ____
ROOT
ATOM      1  N   UNL     1      34.125  -8.687 -23.152  0.00  0.00    -0.281 N 
ATOM      2  C   UNL     1      33.156  -9.148 -22.289  0.00  0.00    +0.052 C 
ATOM      3  C   UNL     1      32.791 -10.423 -22.725  0.00  0.00    +0.018 C 
ATOM      4  C   UNL     1      33.572 -10.711 -23.878  0.00  0.00    +0.060 C 
ATOM      5  C   UNL     1      34.383  -9.624 -24.116  0.00  0.00    +0.069 C 
ATOM      6  C   UNL     1      32.583  -8.539 -21.167  0.00  0.00    +0.015 C 
ATOM      7  C   UNL     1      31.803 -11.126 -22.007  0.00  0.00    +0.001 C 
ATOM      8  C   UNL     1      31.606  -9.256 -20.471  0.00  0.00    +0.001 C 
ATOM      9  C   UNL     1      31.221 -10.530 -20.883  0.00  0.00    +0.000 C 
ENDROOT
BRANCH   4  11
ATOM     10  O   UNL     1      33.268 -11.934 -25.891  0.00  0.00    -0.282 OA
ATOM     11  C   UNL     1      33.560 -11.899 -24.683  0.00  0.00    +0.250 C 
BRANCH  11  14
ATOM     12  O   UNL     1      34.283 -13.305 -22.967  0.00  0.00    -0.266 OA
ATOM     13  N   UNL     1      33.706 -14.259 -25.058  0.00  0.00    -0.278 N 
ATOM     14  C   UNL     1      33.898 -13.264 -24.123  0.00  0.00    +0.289 C 
ATOM     15  H   UNL     1      33.383 -13.974 -25.944  0.00  0.00    +0.155 HD
BRANCH  13  17
ATOM     16  N   UNL     1      34.344 -18.367 -24.532  0.00  0.00    -0.242 NA
ATOM     17  C   UNL     1      33.920 -15.645 -24.880  0.00  0.00    +0.054 C 
ATOM     18  C   UNL     1      33.342 -16.540 -25.758  0.00  0.00    +0.035 C 
ATOM     19  C   UNL     1      34.706 -16.081 -23.831  0.00  0.00    +0.035 C 
ATOM     20  C   UNL     1      33.584 -17.887 -25.542  0.00  0.00    +0.100 C 
ATOM     21  C   UNL     1      34.886 -17.448 -23.701  0.00  0.00    +0.100 C 
ENDBRANCH  13  17
ENDBRANCH  11  14
ENDBRANCH   4  11
BRANCH   1  22
ATOM     22  C   UNL     1      34.785  -7.401 -23.069  0.00  0.00    +0.122 C 
BRANCH  22  24
ATOM     23 CL   UNL     1      32.255  -3.396 -26.754  0.00  0.00    -0.082 Cl
ATOM     24  C   UNL     1      34.150  -6.397 -23.993  0.00  0.00    -0.002 C 
ATOM     25  C   UNL     1      34.849  -5.959 -25.110  0.00  0.00    -0.002 C 
ATOM     26  C   UNL     1      32.876  -5.923 -23.716  0.00  0.00    -0.002 C 
ATOM     27  C   UNL     1      34.260  -5.029 -25.967  0.00  0.00    +0.011 C 
ATOM     28  C   UNL     1      32.288  -4.992 -24.572  0.00  0.00    +0.011 C 
ATOM     29  C   UNL     1      32.980  -4.545 -25.698  0.00  0.00    +0.058 C 
ENDBRANCH  22  24
ENDBRANCH   1  22
TORSDOF 5
ENDMDL
MODEL 4
REMARK VINA RESULT:     -10.0      4.922     10.556
REMARK  Name = 2929
REMARK  5 active torsions:
REMARK  status: ('A' for Active; 'I' for Inactive)
REMARK    1  A    between atoms: N_1  and  C_22
REMARK    2  A    between atoms: C_4  and  C_11
REMARK    3  A    between atoms: C_11  and  C_14
REMARK    4  A    between atoms: N_13  and  C_17
REMARK    5  A    between atoms: C_22  and  C_24
REMARK                            x       y       z     vdW  Elec       q    Type
REMARK                         _______ _______ _______ _____ _____    ______ ____
ROOT
ATOM      1  N   UNL     1      35.705 -17.944 -22.644  0.00  0.00    -0.281 N 
ATOM      2  C   UNL     1      35.074 -18.513 -23.727  0.00  0.00    +0.052 C 
ATOM      3  C   UNL     1      34.338 -17.504 -24.352  0.00  0.00    +0.018 C 
ATOM      4  C   UNL     1      34.548 -16.311 -23.606  0.00  0.00    +0.060 C 
ATOM      5  C   UNL     1      35.393 -16.613 -22.563  0.00  0.00    +0.069 C 
ATOM      6  C   UNL     1      35.101 -19.831 -24.196  0.00  0.00    +0.015 C 
ATOM      7  C   UNL     1      33.589 -17.826 -25.501  0.00  0.00    +0.001 C 
ATOM      8  C   UNL     1      34.350 -20.126 -25.338  0.00  0.00    +0.001 C 
ATOM      9  C   UNL     1      33.606 -19.140 -25.982  0.00  0.00    +0.000 C 
ENDROOT
BRANCH   4  11
ATOM     10  O   UNL     1      33.654 -14.582 -24.967  0.00  0.00    -0.282 OA
ATOM     11  C   UNL     1      34.006 -15.005 -23.853  0.00  0.00    +0.250 C 
BRANCH  11  14
ATOM     12  O   UNL     1      34.490 -14.124 -21.747  0.00  0.00    -0.266 OA
ATOM     13  N   UNL     1      32.872 -13.039 -23.094  0.00  0.00    -0.278 N 
ATOM     14  C   UNL     1      33.816 -13.984 -22.752  0.00  0.00    +0.289 C 
ATOM     15  H   UNL     1      32.451 -13.136 -23.979  0.00  0.00    +0.155 HD
BRANCH  13  17
ATOM     16  N   UNL     1      31.604  -9.789 -20.772  0.00  0.00    -0.242 NA
ATOM     17  C   UNL     1      32.445 -11.942 -22.310  0.00  0.00    +0.054 C 
ATOM     18  C   UNL     1      32.605 -10.659 -22.793  0.00  0.00    +0.035 C 
ATOM     19  C   UNL     1      31.873 -12.173 -21.075  0.00  0.00    +0.035 C 
ATOM     20  C   UNL     1      32.169  -9.619 -21.988  0.00  0.00    +0.100 C 
ATOM     21  C   UNL     1      31.471 -11.065 -20.346  0.00  0.00    +0.100 C 
ENDBRANCH  13  17
ENDBRANCH  11  14
ENDBRANCH   4  11
BRANCH   1  22
ATOM     22  C   UNL     1      36.574 -18.635 -21.715  0.00  0.00    +0.122 C 
BRANCH  22  24
ATOM     23 CL   UNL     1      33.628 -22.945 -18.755  0.00  0.00    -0.082 Cl
ATOM     24  C   UNL     1      35.835 -19.716 -20.974  0.00  0.00    -0.002 C 
ATOM     25  C   UNL     1      34.448 -19.753 -21.022  0.00  0.00    -0.002 C 
ATOM     26  C   UNL     1      36.551 -20.661 -20.251  0.00  0.00    -0.002 C 
ATOM     27  C   UNL     1      33.764 -20.756 -20.334  0.00  0.00    +0.011 C 
ATOM     28  C   UNL     1      35.866 -21.662 -19.562  0.00  0.00    +0.011 C 
ATOM     29  C   UNL     1      34.473 -21.710 -19.604  0.00  0.00    +0.058 C 
ENDBRANCH  22  24
ENDBRANCH   1  22
TORSDOF 5
ENDMDL
MODEL 5
REMARK VINA RESULT:      -9.9      9.499     14.623
REMARK  Name = 2929
REMARK  5 active torsions:
REMARK  status: ('A' for Active; 'I' for Inactive)
REMARK    1  A    between atoms: N_1  and  C_22
REMARK    2  A    between atoms: C_4  and  C_11
REMARK    3  A    between atoms: C_11  and  C_14
REMARK    4  A    between atoms: N_13  and  C_17
REMARK    5  A    between atoms: C_22  and  C_24
REMARK                            x       y       z     vdW  Elec       q    Type
REMARK                         _______ _______ _______ _____ _____    ______ ____
ROOT
ATOM      1  N   UNL     1      33.504 -23.711 -15.946  0.00  0.00    -0.281 N 
ATOM      2  C   UNL     1      34.796 -23.262 -15.786  0.00  0.00    +0.052 C 
ATOM      3  C   UNL     1      35.258 -22.881 -17.047  0.00  0.00    +0.018 C 
ATOM      4  C   UNL     1      34.201 -23.117 -17.968  0.00  0.00    +0.060 C 
ATOM      5  C   UNL     1      33.135 -23.627 -17.262  0.00  0.00    +0.069 C 
ATOM      6  C   UNL     1      35.581 -23.165 -14.631  0.00  0.00    +0.015 C 
ATOM      7  C   UNL     1      36.570 -22.379 -17.164  0.00  0.00    +0.001 C 
ATOM      8  C   UNL     1      36.878 -22.664 -14.772  0.00  0.00    +0.001 C 
ATOM      9  C   UNL     1      37.366 -22.275 -16.018  0.00  0.00    +0.000 C 
ENDROOT
BRANCH   4  11
ATOM     10  O   UNL     1      34.402 -23.751 -20.248  0.00  0.00    -0.282 OA
ATOM     11  C   UNL     1      34.191 -22.883 -19.385  0.00  0.00    +0.250 C 
BRANCH  11  14
ATOM     12  O   UNL     1      32.843 -21.010 -19.741  0.00  0.00    -0.266 OA
ATOM     13  N   UNL     1      34.999 -21.070 -20.723  0.00  0.00    -0.278 N 
ATOM     14  C   UNL     1      33.926 -21.517 -19.981  0.00  0.00    +0.289 C 
ATOM     15  H   UNL     1      35.779 -21.668 -20.774  0.00  0.00    +0.155 HD
BRANCH  13  17
ATOM     16  N   UNL     1      35.294 -17.430 -22.778  0.00  0.00    -0.242 NA
ATOM     17  C   UNL     1      35.099 -19.842 -21.417  0.00  0.00    +0.054 C 
ATOM     18  C   UNL     1      34.657 -19.761 -22.722  0.00  0.00    +0.035 C 
ATOM     19  C   UNL     1      35.637 -18.743 -20.777  0.00  0.00    +0.035 C 
ATOM     20  C   UNL     1      34.776 -18.536 -23.357  0.00  0.00    +0.100 C 
ATOM     21  C   UNL     1      35.713 -17.563 -21.499  0.00  0.00    +0.100 C 
ENDBRANCH  13  17
ENDBRANCH  11  14
ENDBRANCH   4  11
BRANCH   1  22
ATOM     22  C   UNL     1      32.647 -24.204 -14.889  0.00  0.00    +0.122 C 
BRANCH  22  24
ATOM     23 CL   UNL     1      26.909 -22.737 -15.861  0.00  0.00    -0.082 Cl
ATOM     24  C   UNL     1      31.208 -23.836 -15.134  0.00  0.00    -0.002 C 
ATOM     25  C   UNL     1      30.748 -22.582 -14.752  0.00  0.00    -0.002 C 
ATOM     26  C   UNL     1      30.360 -24.755 -15.737  0.00  0.00    -0.002 C 
ATOM     27  C   UNL     1      29.415 -22.242 -14.978  0.00  0.00    +0.011 C 
ATOM     28  C   UNL     1      29.026 -24.414 -15.961  0.00  0.00    +0.011 C 
ATOM     29  C   UNL     1      28.554 -23.157 -15.583  0.00  0.00    +0.058 C 
ENDBRANCH  22  24
ENDBRANCH   1  22
TORSDOF 5
ENDMDL
MODEL 6
REMARK VINA RESULT:      -9.8     12.050     15.351
REMARK  Name = 2929
REMARK  5 active torsions:
REMARK  status: ('A' for Active; 'I' for Inactive)
REMARK    1  A    between atoms: N_1  and  C_22
REMARK    2  A    between atoms: C_4  and  C_11
REMARK    3  A    between atoms: C_11  and  C_14
REMARK    4  A    between atoms: N_13  and  C_17
REMARK    5  A    between atoms: C_22  and  C_24
REMARK                            x       y       z     vdW  Elec       q    Type
REMARK                         _______ _______ _______ _____ _____    ______ ____
ROOT
ATOM      1  N   UNL     1      33.592 -23.847 -17.113  0.00  0.00    -0.281 N 
ATOM      2  C   UNL     1      32.432 -23.504 -16.457  0.00  0.00    +0.052 C 
ATOM      3  C   UNL     1      32.728 -23.459 -15.093  0.00  0.00    +0.018 C 
ATOM      4  C   UNL     1      34.105 -23.787 -14.954  0.00  0.00    +0.060 C 
ATOM      5  C   UNL     1      34.610 -24.020 -16.213  0.00  0.00    +0.069 C 
ATOM      6  C   UNL     1      31.156 -23.232 -16.963  0.00  0.00    +0.015 C 
ATOM      7  C   UNL     1      31.701 -23.128 -14.187  0.00  0.00    +0.001 C 
ATOM      8  C   UNL     1      30.153 -22.905 -16.045  0.00  0.00    +0.001 C 
ATOM      9  C   UNL     1      30.420 -22.852 -14.678  0.00  0.00    +0.000 C 
ENDROOT
BRANCH   4  11
ATOM     10  O   UNL     1      34.401 -23.979 -12.605  0.00  0.00    -0.282 OA
ATOM     11  C   UNL     1      34.878 -23.872 -13.748  0.00  0.00    +0.250 C 
BRANCH  11  14
ATOM     12  O   UNL     1      36.914 -22.811 -13.326  0.00  0.00    -0.266 OA
ATOM     13  N   UNL     1      36.934 -24.993 -14.247  0.00  0.00    -0.278 N 
ATOM     14  C   UNL     1      36.391 -23.828 -13.747  0.00  0.00    +0.289 C 
ATOM     15  H   UNL     1      36.297 -25.688 -14.533  0.00  0.00    +0.155 HD
BRANCH  13  17
ATOM     16  N   UNL     1      41.003 -25.898 -14.677  0.00  0.00    -0.242 NA
ATOM     17  C   UNL     1      38.307 -25.298 -14.392  0.00  0.00    +0.054 C 
ATOM     18  C   UNL     1      38.910 -26.157 -13.494  0.00  0.00    +0.035 C 
ATOM     19  C   UNL     1      39.022 -24.733 -15.429  0.00  0.00    +0.035 C 
ATOM     20  C   UNL     1      40.257 -26.424 -13.680  0.00  0.00    +0.100 C 
ATOM     21  C   UNL     1      40.364 -25.063 -15.527  0.00  0.00    +0.100 C 
ENDBRANCH  13  17
ENDBRANCH  11  14
ENDBRANCH   4  11
BRANCH   1  22
ATOM     22  C   UNL     1      33.735 -24.007 -18.545  0.00  0.00    +0.122 C 
BRANCH  22  24
ATOM     23 CL   UNL     1      35.285 -18.843 -21.182  0.00  0.00    -0.082 Cl
ATOM     24  C   UNL     1      34.124 -22.711 -19.205  0.00  0.00    -0.002 C 
ATOM     25  C   UNL     1      33.137 -21.892 -19.736  0.00  0.00    -0.002 C 
ATOM     26  C   UNL     1      35.463 -22.355 -19.275  0.00  0.00    -0.002 C 
ATOM     27  C   UNL     1      33.498 -20.691 -20.349  0.00  0.00    +0.011 C 
ATOM     28  C   UNL     1      35.823 -21.155 -19.889  0.00  0.00    +0.011 C 
ATOM     29  C   UNL     1      34.841 -20.323 -20.425  0.00  0.00    +0.058 C 
ENDBRANCH  22  24
ENDBRANCH   1  22
TORSDOF 5
ENDMDL
MODEL 7
REMARK VINA RESULT:      -9.6     13.350     16.555
REMARK  Name = 2929
REMARK  5 active torsions:
REMARK  status: ('A' for Active; 'I' for Inactive)
REMARK    1  A    between atoms: N_1  and  C_22
REMARK    2  A    between atoms: C_4  and  C_11
REMARK    3  A    between atoms: C_11  and  C_14
REMARK    4  A    between atoms: N_13  and  C_17
REMARK    5  A    between atoms: C_22  and  C_24
REMARK                            x       y       z     vdW  Elec       q    Type
REMARK                         _______ _______ _______ _____ _____    ______ ____
ROOT
ATOM      1  N   UNL     1      37.147 -23.348 -15.307  0.00  0.00    -0.281 N 
ATOM      2  C   UNL     1      37.916 -24.357 -14.771  0.00  0.00    +0.052 C 
ATOM      3  C   UNL     1      37.174 -24.934 -13.738  0.00  0.00    +0.018 C 
ATOM      4  C   UNL     1      35.936 -24.237 -13.673  0.00  0.00    +0.060 C 
ATOM      5  C   UNL     1      35.948 -23.268 -14.650  0.00  0.00    +0.069 C 
ATOM      6  C   UNL     1      39.197 -24.797 -15.119  0.00  0.00    +0.015 C 
ATOM      7  C   UNL     1      37.739 -26.003 -13.015  0.00  0.00    +0.001 C 
ATOM      8  C   UNL     1      39.737 -25.859 -14.388  0.00  0.00    +0.001 C 
ATOM      9  C   UNL     1      39.020 -26.455 -13.352  0.00  0.00    +0.000 C 
ENDROOT
BRANCH   4  11
ATOM     10  O   UNL     1      34.931 -25.014 -11.666  0.00  0.00    -0.282 OA
ATOM     11  C   UNL     1      34.839 -24.462 -12.775  0.00  0.00    +0.250 C 
BRANCH  11  14
ATOM     12  O   UNL     1      32.939 -23.147 -12.439  0.00  0.00    -0.266 OA
ATOM     13  N   UNL     1      32.901 -24.795 -14.141  0.00  0.00    -0.278 N 
ATOM     14  C   UNL     1      33.420 -24.048 -13.105  0.00  0.00    +0.289 C 
ATOM     15  H   UNL     1      33.491 -25.481 -14.528  0.00  0.00    +0.155 HD
BRANCH  13  17
ATOM     16  N   UNL     1      29.080 -24.454 -15.826  0.00  0.00    -0.242 NA
ATOM     17  C   UNL     1      31.611 -24.679 -14.709  0.00  0.00    +0.054 C 
ATOM     18  C   UNL     1      31.389 -23.750 -15.706  0.00  0.00    +0.035 C 
ATOM     19  C   UNL     1      30.595 -25.498 -14.258  0.00  0.00    +0.035 C 
ATOM     20  C   UNL     1      30.109 -23.677 -16.231  0.00  0.00    +0.100 C 
ATOM     21  C   UNL     1      29.350 -25.346 -14.847  0.00  0.00    +0.100 C 
ENDBRANCH  13  17
ENDBRANCH  11  14
ENDBRANCH   4  11
BRANCH   1  22
ATOM     22  C   UNL     1      37.533 -22.487 -16.405  0.00  0.00    +0.122 C 
BRANCH  22  24
ATOM     23 CL   UNL     1      33.046 -21.798 -20.330  0.00  0.00    -0.082 Cl
ATOM     24  C   UNL     1      36.408 -22.313 -17.389  0.00  0.00    -0.002 C 
ATOM     25  C   UNL     1      35.146 -22.802 -17.077  0.00  0.00    -0.002 C 
ATOM     26  C   UNL     1      36.647 -21.668 -18.594  0.00  0.00    -0.002 C 
ATOM     27  C   UNL     1      34.103 -22.641 -17.990  0.00  0.00    +0.011 C 
ATOM     28  C   UNL     1      35.604 -21.508 -19.506  0.00  0.00    +0.011 C 
ATOM     29  C   UNL     1      34.332 -21.994 -19.204  0.00  0.00    +0.058 C 
ENDBRANCH  22  24
ENDBRANCH   1  22
TORSDOF 5
ENDMDL
MODEL 8
REMARK VINA RESULT:      -9.4      4.204      8.635
REMARK  Name = 2929
REMARK  5 active torsions:
REMARK  status: ('A' for Active; 'I' for Inactive)
REMARK    1  A    between atoms: N_1  and  C_22
REMARK    2  A    between atoms: C_4  and  C_11
REMARK    3  A    between atoms: C_11  and  C_14
REMARK    4  A    between atoms: N_13  and  C_17
REMARK    5  A    between atoms: C_22  and  C_24
REMARK                            x       y       z     vdW  Elec       q    Type
REMARK                         _______ _______ _______ _____ _____    ______ ____
ROOT
ATOM      1  N   UNL     1      33.248 -13.633 -24.864  0.00  0.00    -0.281 N 
ATOM      2  C   UNL     1      33.913 -12.437 -25.015  0.00  0.00    +0.052 C 
ATOM      3  C   UNL     1      33.652 -11.675 -23.875  0.00  0.00    +0.018 C 
ATOM      4  C   UNL     1      32.807 -12.453 -23.036  0.00  0.00    +0.060 C 
ATOM      5  C   UNL     1      32.576 -13.652 -23.671  0.00  0.00    +0.069 C 
ATOM      6  C   UNL     1      34.720 -11.979 -26.063  0.00  0.00    +0.015 C 
ATOM      7  C   UNL     1      34.220 -10.390 -23.775  0.00  0.00    +0.001 C 
ATOM      8  C   UNL     1      35.274 -10.702 -25.941  0.00  0.00    +0.001 C 
ATOM      9  C   UNL     1      35.030  -9.918 -24.814  0.00  0.00    +0.000 C 
ENDROOT
BRANCH   4  11
ATOM     10  O   UNL     1      32.333 -12.815 -20.737  0.00  0.00    -0.282 OA
ATOM     11  C   UNL     1      32.265 -12.104 -21.754  0.00  0.00    +0.250 C 
BRANCH  11  14
ATOM     12  O   UNL     1      30.390 -10.888 -21.080  0.00  0.00    -0.266 OA
ATOM     13  N   UNL     1      32.305  -9.711 -21.832  0.00  0.00    -0.278 N 
ATOM     14  C   UNL     1      31.528 -10.804 -21.510  0.00  0.00    +0.289 C 
ATOM     15  H   UNL     1      33.211  -9.899 -22.169  0.00  0.00    +0.155 HD
BRANCH  13  17
ATOM     16  N   UNL     1      31.225  -5.674 -21.527  0.00  0.00    -0.242 NA
ATOM     17  C   UNL     1      31.939  -8.349 -21.729  0.00  0.00    +0.054 C 
ATOM     18  C   UNL     1      32.241  -7.651 -20.577  0.00  0.00    +0.035 C 
ATOM     19  C   UNL     1      31.289  -7.739 -22.783  0.00  0.00    +0.035 C 
ATOM     20  C   UNL     1      31.863  -6.319 -20.525  0.00  0.00    +0.100 C 
ATOM     21  C   UNL     1      30.953  -6.404 -22.633  0.00  0.00    +0.100 C 
ENDBRANCH  13  17
ENDBRANCH  11  14
ENDBRANCH   4  11
BRANCH   1  22
ATOM     22  C   UNL     1      33.247 -14.723 -25.818  0.00  0.00    +0.122 C 
BRANCH  22  24
ATOM     23 CL   UNL     1      35.215 -19.814 -23.323  0.00  0.00    -0.082 Cl
ATOM     24  C   UNL     1      33.741 -16.000 -25.193  0.00  0.00    -0.002 C 
ATOM     25  C   UNL     1      33.358 -17.219 -25.734  0.00  0.00    -0.002 C 
ATOM     26  C   UNL     1      34.572 -15.940 -24.083  0.00  0.00    -0.002 C 
ATOM     27  C   UNL     1      33.816 -18.402 -25.154  0.00  0.00    +0.011 C 
ATOM     28  C   UNL     1      35.029 -17.123 -23.502  0.00  0.00    +0.011 C 
ATOM     29  C   UNL     1      34.652 -18.354 -24.039  0.00  0.00    +0.058 C 
ENDBRANCH  22  24
ENDBRANCH   1  22
TORSDOF 5
ENDMDL
MODEL 9
REMARK VINA RESULT:      -9.4     11.821     16.086
REMARK  Name = 2929
REMARK  5 active torsions:
REMARK  status: ('A' for Active; 'I' for Inactive)
REMARK    1  A    between atoms: N_1  and  C_22
REMARK    2  A    between atoms: C_4  and  C_11
REMARK    3  A    between atoms: C_11  and  C_14
REMARK    4  A    between atoms: N_13  and  C_17
REMARK    5  A    between atoms: C_22  and  C_24
REMARK                            x       y       z     vdW  Elec       q    Type
REMARK                         _______ _______ _______ _____ _____    ______ ____
ROOT
ATOM      1  N   UNL     1      34.656 -24.668 -13.972  0.00  0.00    -0.281 N 
ATOM      2  C   UNL     1      35.439 -24.231 -12.928  0.00  0.00    +0.052 C 
ATOM      3  C   UNL     1      36.534 -23.568 -13.485  0.00  0.00    +0.018 C 
ATOM      4  C   UNL     1      36.382 -23.623 -14.898  0.00  0.00    +0.060 C 
ATOM      5  C   UNL     1      35.218 -24.306 -15.167  0.00  0.00    +0.069 C 
ATOM      6  C   UNL     1      35.262 -24.370 -11.547  0.00  0.00    +0.015 C 
ATOM      7  C   UNL     1      37.503 -23.017 -12.623  0.00  0.00    +0.001 C 
ATOM      8  C   UNL     1      36.235 -23.814 -10.711  0.00  0.00    +0.001 C 
ATOM      9  C   UNL     1      37.339 -23.147 -11.239  0.00  0.00    +0.000 C 
ENDROOT
BRANCH   4  11
ATOM     10  O   UNL     1      38.447 -23.387 -16.048  0.00  0.00    -0.282 OA
ATOM     11  C   UNL     1      37.250 -23.083 -15.905  0.00  0.00    +0.250 C 
BRANCH  11  14
ATOM     12  O   UNL     1      37.247 -20.929 -16.806  0.00  0.00    -0.266 OA
ATOM     13  N   UNL     1      35.880 -22.586 -17.805  0.00  0.00    -0.278 N 
ATOM     14  C   UNL     1      36.785 -22.052 -16.912  0.00  0.00    +0.289 C 
ATOM     15  H   UNL     1      35.655 -23.538 -17.687  0.00  0.00    +0.155 HD
BRANCH  13  17
ATOM     16  N   UNL     1      33.995 -20.594 -20.972  0.00  0.00    -0.242 NA
ATOM     17  C   UNL     1      35.244 -21.915 -18.874  0.00  0.00    +0.054 C 
ATOM     18  C   UNL     1      33.868 -21.958 -18.980  0.00  0.00    +0.035 C 
ATOM     19  C   UNL     1      36.009 -21.226 -19.794  0.00  0.00    +0.035 C 
ATOM     20  C   UNL     1      33.293 -21.283 -20.045  0.00  0.00    +0.100 C 
ATOM     21  C   UNL     1      35.339 -20.583 -20.822  0.00  0.00    +0.100 C 
ENDBRANCH  13  17
ENDBRANCH  11  14
ENDBRANCH   4  11
BRANCH   1  22
ATOM     22  C   UNL     1      33.417 -25.406 -13.845  0.00  0.00    +0.122 C 
BRANCH  22  24
ATOM     23 CL   UNL     1      28.938 -22.683 -16.768  0.00  0.00    -0.082 Cl
ATOM     24  C   UNL     1      32.294 -24.724 -14.579  0.00  0.00    -0.002 C 
ATOM     25  C   UNL     1      32.585 -23.720 -15.493  0.00  0.00    -0.002 C 
ATOM     26  C   UNL     1      30.983 -25.107 -14.330  0.00  0.00    -0.002 C 
ATOM     27  C   UNL     1      31.543 -23.088 -16.172  0.00  0.00    +0.011 C 
ATOM     28  C   UNL     1      29.942 -24.473 -15.009  0.00  0.00    +0.011 C 
ATOM     29  C   UNL     1      30.222 -23.464 -15.930  0.00  0.00    +0.058 C 
ENDBRANCH  22  24
ENDBRANCH   1  22
TORSDOF 5
ENDMDL
