MODEL 1
REMARK VINA RESULT:     -12.6      0.000      0.000
REMARK  Name = 11697676
REMARK  7 active torsions:
REMARK  status: ('A' for Active; 'I' for Inactive)
REMARK    1  A    between atoms: N_1  and  C_18
REMARK    2  A    between atoms: N_2  and  C_8
REMARK    3  A    between atoms: C_18  and  C_19
REMARK    4  A    between atoms: C_19  and  C_20
REMARK    5  A    between atoms: C_20  and  C_21
REMARK    6  A    between atoms: C_21  and  O_22
REMARK    7  A    between atoms: O_22  and  C_28
REMARK                            x       y       z     vdW  Elec       q    Type
REMARK                         _______ _______ _______ _____ _____    ______ ____
ROOT
ATOM      1  N   UNL     1      34.661 -15.969 -24.176  0.00  0.00    +0.389 N 
ATOM      2  N   UNL     1      33.348 -13.639 -23.173  0.00  0.00    -0.312 N 
ATOM      3  C   UNL     1      33.424 -15.488 -24.802  0.00  0.00    -0.055 C 
ATOM      4  C   UNL     1      34.631 -15.696 -22.734  0.00  0.00    -0.055 C 
ATOM      5  C   UNL     1      33.256 -13.980 -24.598  0.00  0.00    +0.068 C 
ATOM      6  C   UNL     1      34.503 -14.195 -22.462  0.00  0.00    +0.068 C 
ATOM      7  H   UNL     1      35.453 -15.476 -24.589  0.00  0.00    -0.080 HD
ENDROOT
BRANCH   2   8
ATOM      8  C   UNL     1      32.788 -12.429 -22.749  0.00  0.00    +0.048 C 
ATOM      9  C   UNL     1      33.279 -11.163 -23.174  0.00  0.00    +0.013 C 
ATOM     10  C   UNL     1      31.690 -12.457 -21.863  0.00  0.00    +0.015 C 
ATOM     11  C   UNL     1      32.676  -9.968 -22.714  0.00  0.00    +0.001 C 
ATOM     12  C   UNL     1      34.370 -11.086 -24.054  0.00  0.00    +0.001 C 
ATOM     13  C   UNL     1      31.095 -11.282 -21.412  0.00  0.00    +0.001 C 
ATOM     14  C   UNL     1      31.584 -10.046 -21.834  0.00  0.00    +0.000 C 
ATOM     15  C   UNL     1      33.181  -8.732 -23.149  0.00  0.00    +0.000 C 
ATOM     16  C   UNL     1      34.859  -9.849 -24.476  0.00  0.00    +0.000 C 
ATOM     17  C   UNL     1      34.266  -8.674 -24.024  0.00  0.00    +0.000 C 
ENDBRANCH   2   8
BRANCH   1  18
ATOM     18  C   UNL     1      34.838 -17.400 -24.423  0.00  0.00    -0.077 C 
BRANCH  18  19
ATOM     19  C   UNL     1      35.499 -18.069 -23.220  0.00  0.00    -0.019 C 
BRANCH  19  20
ATOM     20  C   UNL     1      34.831 -19.403 -22.892  0.00  0.00    +0.045 C 
BRANCH  20  21
ATOM     21  C   UNL     1      34.776 -19.651 -21.391  0.00  0.00    +0.208 C 
BRANCH  21  22
ATOM     22  O   UNL     1      33.686 -20.510 -21.084  0.00  0.00    -0.452 OA
BRANCH  22  28
ATOM     23  O   UNL     1      30.538 -23.853 -15.826  0.00  0.00    -0.275 OA
ATOM     24  N   UNL     1      31.614 -22.811 -17.568  0.00  0.00    -0.263 N 
ATOM     25  N   UNL     1      32.671 -21.653 -19.339  0.00  0.00    -0.357 NA
ATOM     26  C   UNL     1      34.021 -22.861 -17.739  0.00  0.00    +0.090 C 
ATOM     27  C   UNL     1      34.075 -23.805 -16.576  0.00  0.00    +0.022 C 
ATOM     28  C   UNL     1      33.813 -21.295 -19.967  0.00  0.00    +0.278 C 
ATOM     29  C   UNL     1      32.793 -22.420 -18.230  0.00  0.00    +0.170 C 
ATOM     30  C   UNL     1      32.910 -23.563 -15.630  0.00  0.00    +0.086 C 
ATOM     31  C   UNL     1      35.175 -22.481 -18.426  0.00  0.00    -0.012 C 
ATOM     32  C   UNL     1      35.076 -21.676 -19.554  0.00  0.00    +0.068 C 
ATOM     33  C   UNL     1      31.582 -23.462 -16.350  0.00  0.00    +0.228 C 
ATOM     34  H   UNL     1      30.754 -22.608 -18.002  0.00  0.00    +0.157 HD
ENDBRANCH  22  28
ENDBRANCH  21  22
ENDBRANCH  20  21
ENDBRANCH  19  20
ENDBRANCH  18  19
ENDBRANCH   1  18
TORSDOF 7
ENDMDL
MODEL 2
REMARK VINA RESULT:     -12.4      0.569      2.130
REMARK  Name = 11697676
REMARK  7 active torsions:
REMARK  status: ('A' for Active; 'I' for Inactive)
REMARK    1  A    between atoms: N_1  and  C_18
REMARK    2  A    between atoms: N_2  and  C_8
REMARK    3  A    between atoms: C_18  and  C_19
REMARK    4  A    between atoms: C_19  and  C_20
REMARK    5  A    between atoms: C_20  and  C_21
REMARK    6  A    between atoms: C_21  and  O_22
REMARK    7  A    between atoms: O_22  and  C_28
REMARK                            x       y       z     vdW  Elec       q    Type
REMARK                         _______ _______ _______ _____ _____    ______ ____
ROOT
ATOM      1  N   UNL     1      34.078 -16.534 -24.203  0.00  0.00    +0.389 N 
ATOM      2  N   UNL     1      33.919 -13.687 -24.030  0.00  0.00    -0.312 N 
ATOM      3  C   UNL     1      34.950 -15.797 -23.279  0.00  0.00    -0.055 C 
ATOM      4  C   UNL     1      33.830 -15.729 -25.405  0.00  0.00    -0.055 C 
ATOM      5  C   UNL     1      34.305 -14.476 -22.853  0.00  0.00    +0.068 C 
ATOM      6  C   UNL     1      33.148 -14.405 -25.049  0.00  0.00    +0.068 C 
ATOM      7  H   UNL     1      33.188 -16.718 -23.739  0.00  0.00    -0.080 HD
ENDROOT
BRANCH   2   8
ATOM      8  C   UNL     1      33.742 -12.309 -23.868  0.00  0.00    +0.048 C 
ATOM      9  C   UNL     1      32.880 -11.754 -22.880  0.00  0.00    +0.013 C 
ATOM     10  C   UNL     1      34.442 -11.424 -24.716  0.00  0.00    +0.015 C 
ATOM     11  C   UNL     1      32.737 -10.352 -22.759  0.00  0.00    +0.001 C 
ATOM     12  C   UNL     1      32.163 -12.595 -22.014  0.00  0.00    +0.001 C 
ATOM     13  C   UNL     1      34.302 -10.044 -24.597  0.00  0.00    +0.001 C 
ATOM     14  C   UNL     1      33.455  -9.511 -23.625  0.00  0.00    +0.000 C 
ATOM     15  C   UNL     1      31.880  -9.831 -21.776  0.00  0.00    +0.000 C 
ATOM     16  C   UNL     1      31.316 -12.061 -21.042  0.00  0.00    +0.000 C 
ATOM     17  C   UNL     1      31.174 -10.682 -20.924  0.00  0.00    +0.000 C 
ENDBRANCH   2   8
BRANCH   1  18
ATOM     18  C   UNL     1      34.680 -17.818 -24.561  0.00  0.00    -0.077 C 
BRANCH  18  19
ATOM     19  C   UNL     1      35.476 -18.378 -23.383  0.00  0.00    -0.019 C 
BRANCH  19  20
ATOM     20  C   UNL     1      34.860 -19.676 -22.867  0.00  0.00    +0.045 C 
BRANCH  20  21
ATOM     21  C   UNL     1      34.499 -19.580 -21.390  0.00  0.00    +0.208 C 
BRANCH  21  22
ATOM     22  O   UNL     1      33.496 -20.535 -21.076  0.00  0.00    -0.452 OA
BRANCH  22  28
ATOM     23  O   UNL     1      30.722 -23.975 -15.672  0.00  0.00    -0.275 OA
ATOM     24  N   UNL     1      31.676 -22.900 -17.463  0.00  0.00    -0.263 N 
ATOM     25  N   UNL     1      32.606 -21.709 -19.283  0.00  0.00    -0.357 NA
ATOM     26  C   UNL     1      34.075 -22.848 -17.738  0.00  0.00    +0.090 C 
ATOM     27  C   UNL     1      34.219 -23.781 -16.574  0.00  0.00    +0.022 C 
ATOM     28  C   UNL     1      33.704 -21.307 -19.962  0.00  0.00    +0.278 C 
ATOM     29  C   UNL     1      32.808 -22.463 -18.177  0.00  0.00    +0.170 C 
ATOM     30  C   UNL     1      33.086 -23.583 -15.579  0.00  0.00    +0.086 C 
ATOM     31  C   UNL     1      35.180 -22.423 -18.475  0.00  0.00    -0.012 C 
ATOM     32  C   UNL     1      34.999 -21.631 -19.602  0.00  0.00    +0.068 C 
ATOM     33  C   UNL     1      31.725 -23.543 -16.242  0.00  0.00    +0.228 C 
ATOM     34  H   UNL     1      30.791 -22.736 -17.861  0.00  0.00    +0.157 HD
ENDBRANCH  22  28
ENDBRANCH  21  22
ENDBRANCH  20  21
ENDBRANCH  19  20
ENDBRANCH  18  19
ENDBRANCH   1  18
TORSDOF 7
ENDMDL
MODEL 3
REMARK VINA RESULT:     -12.4      1.921      2.228
REMARK  Name = 11697676
REMARK  7 active torsions:
REMARK  status: ('A' for Active; 'I' for Inactive)
REMARK    1  A    between atoms: N_1  and  C_18
REMARK    2  A    between atoms: N_2  and  C_8
REMARK    3  A    between atoms: C_18  and  C_19
REMARK    4  A    between atoms: C_19  and  C_20
REMARK    5  A    between atoms: C_20  and  C_21
REMARK    6  A    between atoms: C_21  and  O_22
REMARK    7  A    between atoms: O_22  and  C_28
REMARK                            x       y       z     vdW  Elec       q    Type
REMARK                         _______ _______ _______ _____ _____    ______ ____
ROOT
ATOM      1  N   UNL     1      34.733 -16.146 -24.053  0.00  0.00    +0.389 N 
ATOM      2  N   UNL     1      33.399 -13.799 -23.121  0.00  0.00    -0.312 N 
ATOM      3  C   UNL     1      33.513 -15.672 -24.719  0.00  0.00    -0.055 C 
ATOM      4  C   UNL     1      34.665 -15.851 -22.616  0.00  0.00    -0.055 C 
ATOM      5  C   UNL     1      33.344 -14.161 -24.542  0.00  0.00    +0.068 C 
ATOM      6  C   UNL     1      34.533 -14.346 -22.371  0.00  0.00    +0.068 C 
ATOM      7  H   UNL     1      35.536 -15.661 -24.452  0.00  0.00    -0.080 HD
ENDROOT
BRANCH   2   8
ATOM      8  C   UNL     1      32.830 -12.581 -22.730  0.00  0.00    +0.048 C 
ATOM      9  C   UNL     1      33.304 -11.324 -23.201  0.00  0.00    +0.013 C 
ATOM     10  C   UNL     1      31.741 -12.592 -21.832  0.00  0.00    +0.015 C 
ATOM     11  C   UNL     1      32.693 -10.122 -22.773  0.00  0.00    +0.001 C 
ATOM     12  C   UNL     1      34.385 -11.266 -24.095  0.00  0.00    +0.001 C 
ATOM     13  C   UNL     1      31.139 -11.409 -21.412  0.00  0.00    +0.001 C 
ATOM     14  C   UNL     1      31.611 -10.182 -21.879  0.00  0.00    +0.000 C 
ATOM     15  C   UNL     1      33.180  -8.896 -23.253  0.00  0.00    +0.000 C 
ATOM     16  C   UNL     1      34.856 -10.038 -24.562  0.00  0.00    +0.000 C 
ATOM     17  C   UNL     1      34.255  -8.855 -24.141  0.00  0.00    +0.000 C 
ENDBRANCH   2   8
BRANCH   1  18
ATOM     18  C   UNL     1      34.912 -17.581 -24.274  0.00  0.00    -0.077 C 
BRANCH  18  19
ATOM     19  C   UNL     1      35.595 -18.222 -23.067  0.00  0.00    -0.019 C 
BRANCH  19  20
ATOM     20  C   UNL     1      34.914 -19.533 -22.679  0.00  0.00    +0.045 C 
BRANCH  20  21
ATOM     21  C   UNL     1      34.889 -19.728 -21.169  0.00  0.00    +0.208 C 
BRANCH  21  22
ATOM     22  O   UNL     1      35.723 -20.820 -20.809  0.00  0.00    -0.452 OA
BRANCH  22  28
ATOM     23  O   UNL     1      37.758 -23.221 -14.578  0.00  0.00    -0.275 OA
ATOM     24  N   UNL     1      37.029 -22.406 -16.598  0.00  0.00    -0.263 N 
ATOM     25  N   UNL     1      36.359 -21.611 -18.723  0.00  0.00    -0.357 NA
ATOM     26  C   UNL     1      34.783 -22.843 -17.367  0.00  0.00    +0.090 C 
ATOM     27  C   UNL     1      34.464 -23.478 -16.047  0.00  0.00    +0.022 C 
ATOM     28  C   UNL     1      35.396 -21.499 -19.664  0.00  0.00    +0.278 C 
ATOM     29  C   UNL     1      36.042 -22.289 -17.595  0.00  0.00    +0.170 C 
ATOM     30  C   UNL     1      35.705 -24.111 -15.439  0.00  0.00    +0.086 C 
ATOM     31  C   UNL     1      33.812 -22.693 -18.359  0.00  0.00    -0.012 C 
ATOM     32  C   UNL     1      34.121 -22.019 -19.533  0.00  0.00    +0.068 C 
ATOM     33  C   UNL     1      36.907 -23.190 -15.467  0.00  0.00    +0.228 C 
ATOM     34  H   UNL     1      37.863 -21.895 -16.715  0.00  0.00    +0.157 HD
ENDBRANCH  22  28
ENDBRANCH  21  22
ENDBRANCH  20  21
ENDBRANCH  19  20
ENDBRANCH  18  19
ENDBRANCH   1  18
TORSDOF 7
ENDMDL
MODEL 4
REMARK VINA RESULT:     -12.0      3.081      5.689
REMARK  Name = 11697676
REMARK  7 active torsions:
REMARK  status: ('A' for Active; 'I' for Inactive)
REMARK    1  A    between atoms: N_1  and  C_18
REMARK    2  A    between atoms: N_2  and  C_8
REMARK    3  A    between atoms: C_18  and  C_19
REMARK    4  A    between atoms: C_19  and  C_20
REMARK    5  A    between atoms: C_20  and  C_21
REMARK    6  A    between atoms: C_21  and  O_22
REMARK    7  A    between atoms: O_22  and  C_28
REMARK                            x       y       z     vdW  Elec       q    Type
REMARK                         _______ _______ _______ _____ _____    ______ ____
ROOT
ATOM      1  N   UNL     1      36.311 -20.494 -19.941  0.00  0.00    +0.389 N 
ATOM      2  N   UNL     1      35.420 -18.919 -22.152  0.00  0.00    -0.312 N 
ATOM      3  C   UNL     1      37.283 -19.831 -20.820  0.00  0.00    -0.055 C 
ATOM      4  C   UNL     1      35.132 -20.900 -20.717  0.00  0.00    -0.055 C 
ATOM      5  C   UNL     1      36.676 -18.585 -21.469  0.00  0.00    +0.068 C 
ATOM      6  C   UNL     1      34.455 -19.689 -21.363  0.00  0.00    +0.068 C 
ATOM      7  H   UNL     1      36.019 -19.836 -19.218  0.00  0.00    -0.080 HD
ENDROOT
BRANCH   2   8
ATOM      8  C   UNL     1      34.965 -18.052 -23.152  0.00  0.00    +0.048 C 
ATOM      9  C   UNL     1      34.738 -16.666 -22.925  0.00  0.00    +0.013 C 
ATOM     10  C   UNL     1      34.719 -18.568 -24.443  0.00  0.00    +0.015 C 
ATOM     11  C   UNL     1      34.277 -15.834 -23.973  0.00  0.00    +0.001 C 
ATOM     12  C   UNL     1      34.969 -16.110 -21.657  0.00  0.00    +0.001 C 
ATOM     13  C   UNL     1      34.266 -17.749 -25.474  0.00  0.00    +0.001 C 
ATOM     14  C   UNL     1      34.047 -16.391 -25.242  0.00  0.00    +0.000 C 
ATOM     15  C   UNL     1      34.061 -14.470 -23.721  0.00  0.00    +0.000 C 
ATOM     16  C   UNL     1      34.749 -14.752 -21.425  0.00  0.00    +0.000 C 
ATOM     17  C   UNL     1      34.296 -13.933 -22.455  0.00  0.00    +0.000 C 
ENDBRANCH   2   8
BRANCH   1  18
ATOM     18  C   UNL     1      36.918 -21.651 -19.286  0.00  0.00    -0.077 C 
BRANCH  18  19
ATOM     19  C   UNL     1      36.135 -22.020 -18.027  0.00  0.00    -0.019 C 
BRANCH  19  20
ATOM     20  C   UNL     1      37.059 -22.144 -16.818  0.00  0.00    +0.045 C 
BRANCH  20  21
ATOM     21  C   UNL     1      36.435 -22.993 -15.717  0.00  0.00    +0.208 C 
BRANCH  21  22
ATOM     22  O   UNL     1      35.503 -23.903 -16.281  0.00  0.00    -0.452 OA
BRANCH  22  28
ATOM     23  O   UNL     1      28.709 -22.670 -17.312  0.00  0.00    -0.275 OA
ATOM     24  N   UNL     1      30.928 -23.138 -16.942  0.00  0.00    -0.263 N 
ATOM     25  N   UNL     1      33.235 -23.527 -16.597  0.00  0.00    -0.357 NA
ATOM     26  C   UNL     1      31.691 -23.855 -14.766  0.00  0.00    +0.090 C 
ATOM     27  C   UNL     1      30.268 -23.922 -14.299  0.00  0.00    +0.022 C 
ATOM     28  C   UNL     1      34.234 -23.891 -15.762  0.00  0.00    +0.278 C 
ATOM     29  C   UNL     1      31.982 -23.505 -16.084  0.00  0.00    +0.170 C 
ATOM     30  C   UNL     1      29.411 -22.901 -15.031  0.00  0.00    +0.086 C 
ATOM     31  C   UNL     1      32.749 -24.239 -13.942  0.00  0.00    -0.012 C 
ATOM     32  C   UNL     1      34.046 -24.250 -14.439  0.00  0.00    +0.068 C 
ATOM     33  C   UNL     1      29.626 -22.923 -16.530  0.00  0.00    +0.228 C 
ATOM     34  H   UNL     1      31.131 -23.027 -17.899  0.00  0.00    +0.157 HD
ENDBRANCH  22  28
ENDBRANCH  21  22
ENDBRANCH  20  21
ENDBRANCH  19  20
ENDBRANCH  18  19
ENDBRANCH   1  18
TORSDOF 7
ENDMDL
MODEL 5
REMARK VINA RESULT:     -11.9      2.026      3.113
REMARK  Name = 11697676
REMARK  7 active torsions:
REMARK  status: ('A' for Active; 'I' for Inactive)
REMARK    1  A    between atoms: N_1  and  C_18
REMARK    2  A    between atoms: N_2  and  C_8
REMARK    3  A    between atoms: C_18  and  C_19
REMARK    4  A    between atoms: C_19  and  C_20
REMARK    5  A    between atoms: C_20  and  C_21
REMARK    6  A    between atoms: C_21  and  O_22
REMARK    7  A    between atoms: O_22  and  C_28
REMARK                            x       y       z     vdW  Elec       q    Type
REMARK                         _______ _______ _______ _____ _____    ______ ____
ROOT
ATOM      1  N   UNL     1      34.313 -16.748 -24.032  0.00  0.00    +0.389 N 
ATOM      2  N   UNL     1      34.034 -13.906 -23.978  0.00  0.00    -0.312 N 
ATOM      3  C   UNL     1      35.220 -15.929 -23.218  0.00  0.00    -0.055 C 
ATOM      4  C   UNL     1      33.931 -16.015 -25.246  0.00  0.00    -0.055 C 
ATOM      5  C   UNL     1      34.550 -14.617 -22.802  0.00  0.00    +0.068 C 
ATOM      6  C   UNL     1      33.219 -14.706 -24.896  0.00  0.00    +0.068 C 
ATOM      7  H   UNL     1      33.473 -16.948 -23.489  0.00  0.00    -0.080 HD
ENDROOT
BRANCH   2   8
ATOM      8  C   UNL     1      33.804 -12.530 -23.865  0.00  0.00    +0.048 C 
ATOM      9  C   UNL     1      32.926 -11.973 -22.894  0.00  0.00    +0.013 C 
ATOM     10  C   UNL     1      34.468 -11.652 -24.749  0.00  0.00    +0.015 C 
ATOM     11  C   UNL     1      32.729 -10.573 -22.824  0.00  0.00    +0.001 C 
ATOM     12  C   UNL     1      32.244 -12.808 -21.995  0.00  0.00    +0.001 C 
ATOM     13  C   UNL     1      34.275 -10.274 -24.679  0.00  0.00    +0.001 C 
ATOM     14  C   UNL     1      33.413  -9.738 -23.724  0.00  0.00    +0.000 C 
ATOM     15  C   UNL     1      31.857 -10.050 -21.856  0.00  0.00    +0.000 C 
ATOM     16  C   UNL     1      31.381 -12.271 -21.039  0.00  0.00    +0.000 C 
ATOM     17  C   UNL     1      31.187 -10.895 -20.970  0.00  0.00    +0.000 C 
ENDBRANCH   2   8
BRANCH   1  18
ATOM     18  C   UNL     1      34.945 -18.021 -24.379  0.00  0.00    -0.077 C 
BRANCH  18  19
ATOM     19  C   UNL     1      34.466 -19.125 -23.437  0.00  0.00    -0.019 C 
BRANCH  19  20
ATOM     20  C   UNL     1      35.103 -18.987 -22.056  0.00  0.00    +0.045 C 
BRANCH  20  21
ATOM     21  C   UNL     1      34.451 -19.915 -21.040  0.00  0.00    +0.208 C 
BRANCH  21  22
ATOM     22  O   UNL     1      35.327 -20.992 -20.739  0.00  0.00    -0.452 OA
BRANCH  22  28
ATOM     23  O   UNL     1      37.911 -23.251 -14.660  0.00  0.00    -0.275 OA
ATOM     24  N   UNL     1      37.003 -22.483 -16.626  0.00  0.00    -0.263 N 
ATOM     25  N   UNL     1      36.146 -21.736 -18.700  0.00  0.00    -0.357 NA
ATOM     26  C   UNL     1      34.710 -22.973 -17.200  0.00  0.00    +0.090 C 
ATOM     27  C   UNL     1      34.513 -23.591 -15.849  0.00  0.00    +0.022 C 
ATOM     28  C   UNL     1      35.107 -21.657 -19.561  0.00  0.00    +0.278 C 
ATOM     29  C   UNL     1      35.935 -22.400 -17.539  0.00  0.00    +0.170 C 
ATOM     30  C   UNL     1      35.812 -24.192 -15.336  0.00  0.00    +0.086 C 
ATOM     31  C   UNL     1      33.659 -22.857 -18.111  0.00  0.00    -0.012 C 
ATOM     32  C   UNL     1      33.857 -22.198 -19.317  0.00  0.00    +0.068 C 
ATOM     33  C   UNL     1      36.989 -23.250 -15.477  0.00  0.00    +0.228 C 
ATOM     34  H   UNL     1      37.814 -21.960 -16.818  0.00  0.00    +0.157 HD
ENDBRANCH  22  28
ENDBRANCH  21  22
ENDBRANCH  20  21
ENDBRANCH  19  20
ENDBRANCH  18  19
ENDBRANCH   1  18
TORSDOF 7
ENDMDL
MODEL 6
REMARK VINA RESULT:     -11.8      4.289      7.733
REMARK  Name = 11697676
REMARK  7 active torsions:
REMARK  status: ('A' for Active; 'I' for Inactive)
REMARK    1  A    between atoms: N_1  and  C_18
REMARK    2  A    between atoms: N_2  and  C_8
REMARK    3  A    between atoms: C_18  and  C_19
REMARK    4  A    between atoms: C_19  and  C_20
REMARK    5  A    between atoms: C_20  and  C_21
REMARK    6  A    between atoms: C_21  and  O_22
REMARK    7  A    between atoms: O_22  and  C_28
REMARK                            x       y       z     vdW  Elec       q    Type
REMARK                         _______ _______ _______ _____ _____    ______ ____
ROOT
ATOM      1  N   UNL     1      31.787  -8.787 -21.060  0.00  0.00    +0.389 N 
ATOM      2  N   UNL     1      31.971  -6.516 -22.783  0.00  0.00    -0.312 N 
ATOM      3  C   UNL     1      32.706  -7.686 -20.742  0.00  0.00    -0.055 C 
ATOM      4  C   UNL     1      31.687  -8.948 -22.516  0.00  0.00    -0.055 C 
ATOM      5  C   UNL     1      32.210  -6.368 -21.342  0.00  0.00    +0.068 C 
ATOM      6  C   UNL     1      31.159  -7.671 -23.175  0.00  0.00    +0.068 C 
ATOM      7  H   UNL     1      30.864  -8.564 -20.689  0.00  0.00    -0.080 HD
ENDROOT
BRANCH   2   8
ATOM      8  C   UNL     1      31.956  -5.358 -23.569  0.00  0.00    +0.048 C 
ATOM      9  C   UNL     1      32.929  -5.098 -24.575  0.00  0.00    +0.013 C 
ATOM     10  C   UNL     1      30.937  -4.404 -23.361  0.00  0.00    +0.015 C 
ATOM     11  C   UNL     1      32.868  -3.910 -25.341  0.00  0.00    +0.001 C 
ATOM     12  C   UNL     1      33.961  -6.019 -24.816  0.00  0.00    +0.001 C 
ATOM     13  C   UNL     1      30.876  -3.235 -24.117  0.00  0.00    +0.001 C 
ATOM     14  C   UNL     1      31.834  -2.990 -25.100  0.00  0.00    +0.000 C 
ATOM     15  C   UNL     1      33.840  -3.679 -26.327  0.00  0.00    +0.000 C 
ATOM     16  C   UNL     1      34.919  -5.773 -25.800  0.00  0.00    +0.000 C 
ATOM     17  C   UNL     1      34.859  -4.604 -26.554  0.00  0.00    +0.000 C 
ENDBRANCH   2   8
BRANCH   1  18
ATOM     18  C   UNL     1      32.242 -10.030 -20.437  0.00  0.00    -0.077 C 
BRANCH  18  19
ATOM     19  C   UNL     1      31.317 -11.184 -20.820  0.00  0.00    -0.019 C 
BRANCH  19  20
ATOM     20  C   UNL     1      32.105 -12.474 -21.038  0.00  0.00    +0.045 C 
BRANCH  20  21
ATOM     21  C   UNL     1      32.245 -12.806 -22.517  0.00  0.00    +0.208 C 
BRANCH  21  22
ATOM     22  O   UNL     1      33.613 -13.011 -22.839  0.00  0.00    -0.452 OA
BRANCH  22  28
ATOM     23  O   UNL     1      36.467 -18.893 -20.391  0.00  0.00    -0.275 OA
ATOM     24  N   UNL     1      35.476 -16.996 -21.226  0.00  0.00    -0.263 N 
ATOM     25  N   UNL     1      34.535 -14.989 -22.051  0.00  0.00    -0.357 NA
ATOM     26  C   UNL     1      34.792 -16.877 -23.539  0.00  0.00    +0.090 C 
ATOM     27  C   UNL     1      35.142 -18.325 -23.707  0.00  0.00    +0.022 C 
ATOM     28  C   UNL     1      34.003 -14.301 -23.087  0.00  0.00    +0.278 C 
ATOM     29  C   UNL     1      34.930 -16.261 -22.295  0.00  0.00    +0.170 C 
ATOM     30  C   UNL     1      36.276 -18.718 -22.775  0.00  0.00    +0.086 C 
ATOM     31  C   UNL     1      34.226 -16.137 -24.577  0.00  0.00    -0.012 C 
ATOM     32  C   UNL     1      33.832 -14.823 -24.356  0.00  0.00    +0.068 C 
ATOM     33  C   UNL     1      36.059 -18.242 -21.353  0.00  0.00    +0.228 C 
ATOM     34  H   UNL     1      35.440 -16.596 -20.327  0.00  0.00    +0.157 HD
ENDBRANCH  22  28
ENDBRANCH  21  22
ENDBRANCH  20  21
ENDBRANCH  19  20
ENDBRANCH  18  19
ENDBRANCH   1  18
TORSDOF 7
ENDMDL
MODEL 7
REMARK VINA RESULT:     -11.8      5.021      7.886
REMARK  Name = 11697676
REMARK  7 active torsions:
REMARK  status: ('A' for Active; 'I' for Inactive)
REMARK    1  A    between atoms: N_1  and  C_18
REMARK    2  A    between atoms: N_2  and  C_8
REMARK    3  A    between atoms: C_18  and  C_19
REMARK    4  A    between atoms: C_19  and  C_20
REMARK    5  A    between atoms: C_20  and  C_21
REMARK    6  A    between atoms: C_21  and  O_22
REMARK    7  A    between atoms: O_22  and  C_28
REMARK                            x       y       z     vdW  Elec       q    Type
REMARK                         _______ _______ _______ _____ _____    ______ ____
ROOT
ATOM      1  N   UNL     1      31.598  -8.937 -21.100  0.00  0.00    +0.389 N 
ATOM      2  N   UNL     1      31.877  -6.625 -22.754  0.00  0.00    -0.312 N 
ATOM      3  C   UNL     1      32.456  -7.823 -20.679  0.00  0.00    -0.055 C 
ATOM      4  C   UNL     1      31.631  -9.068 -22.562  0.00  0.00    -0.055 C 
ATOM      5  C   UNL     1      31.984  -6.503 -21.295  0.00  0.00    +0.068 C 
ATOM      6  C   UNL     1      31.132  -7.790 -23.240  0.00  0.00    +0.068 C 
ATOM      7  H   UNL     1      30.640  -8.744 -20.808  0.00  0.00    -0.080 HD
ENDROOT
BRANCH   2   8
ATOM      8  C   UNL     1      31.903  -5.451 -23.515  0.00  0.00    +0.048 C 
ATOM      9  C   UNL     1      32.894  -5.196 -24.504  0.00  0.00    +0.013 C 
ATOM     10  C   UNL     1      30.908  -4.473 -23.299  0.00  0.00    +0.015 C 
ATOM     11  C   UNL     1      32.875  -3.992 -25.245  0.00  0.00    +0.001 C 
ATOM     12  C   UNL     1      33.904  -6.140 -24.753  0.00  0.00    +0.001 C 
ATOM     13  C   UNL     1      30.888  -3.288 -24.029  0.00  0.00    +0.001 C 
ATOM     14  C   UNL     1      31.864  -3.048 -24.996  0.00  0.00    +0.000 C 
ATOM     15  C   UNL     1      33.865  -3.766 -26.215  0.00  0.00    +0.000 C 
ATOM     16  C   UNL     1      34.880  -5.900 -25.720  0.00  0.00    +0.000 C 
ATOM     17  C   UNL     1      34.861  -4.715 -26.450  0.00  0.00    +0.000 C 
ENDBRANCH   2   8
BRANCH   1  18
ATOM     18  C   UNL     1      32.026 -10.182 -20.463  0.00  0.00    -0.077 C 
BRANCH  18  19
ATOM     19  C   UNL     1      31.150 -11.345 -20.928  0.00  0.00    -0.019 C 
BRANCH  19  20
ATOM     20  C   UNL     1      31.986 -12.595 -21.195  0.00  0.00    +0.045 C 
BRANCH  20  21
ATOM     21  C   UNL     1      32.416 -12.684 -22.653  0.00  0.00    +0.208 C 
BRANCH  21  22
ATOM     22  O   UNL     1      33.811 -12.941 -22.730  0.00  0.00    -0.452 OA
BRANCH  22  28
ATOM     23  O   UNL     1      34.226 -18.977 -26.212  0.00  0.00    -0.275 OA
ATOM     24  N   UNL     1      34.157 -16.999 -25.046  0.00  0.00    -0.263 N 
ATOM     25  N   UNL     1      33.987 -14.956 -23.867  0.00  0.00    -0.357 NA
ATOM     26  C   UNL     1      34.961 -16.878 -22.772  0.00  0.00    +0.090 C 
ATOM     27  C   UNL     1      35.457 -18.289 -22.882  0.00  0.00    +0.022 C 
ATOM     28  C   UNL     1      34.199 -14.256 -22.730  0.00  0.00    +0.278 C 
ATOM     29  C   UNL     1      34.361 -16.257 -23.867  0.00  0.00    +0.170 C 
ATOM     30  C   UNL     1      34.596 -19.090 -23.845  0.00  0.00    +0.086 C 
ATOM     31  C   UNL     1      35.175 -16.116 -21.623  0.00  0.00    -0.012 C 
ATOM     32  C   UNL     1      34.781 -14.784 -21.592  0.00  0.00    +0.068 C 
ATOM     33  C   UNL     1      34.346 -18.364 -25.151  0.00  0.00    +0.228 C 
ATOM     34  H   UNL     1      33.861 -16.514 -25.849  0.00  0.00    +0.157 HD
ENDBRANCH  22  28
ENDBRANCH  21  22
ENDBRANCH  20  21
ENDBRANCH  19  20
ENDBRANCH  18  19
ENDBRANCH   1  18
TORSDOF 7
ENDMDL
MODEL 8
REMARK VINA RESULT:     -11.6      3.423     12.550
REMARK  Name = 11697676
REMARK  7 active torsions:
REMARK  status: ('A' for Active; 'I' for Inactive)
REMARK    1  A    between atoms: N_1  and  C_18
REMARK    2  A    between atoms: N_2  and  C_8
REMARK    3  A    between atoms: C_18  and  C_19
REMARK    4  A    between atoms: C_19  and  C_20
REMARK    5  A    between atoms: C_20  and  C_21
REMARK    6  A    between atoms: C_21  and  O_22
REMARK    7  A    between atoms: O_22  and  C_28
REMARK                            x       y       z     vdW  Elec       q    Type
REMARK                         _______ _______ _______ _____ _____    ______ ____
ROOT
ATOM      1  N   UNL     1      35.038 -22.080 -18.141  0.00  0.00    +0.389 N 
ATOM      2  N   UNL     1      35.751 -23.458 -15.743  0.00  0.00    -0.312 N 
ATOM      3  C   UNL     1      34.336 -23.311 -17.755  0.00  0.00    -0.055 C 
ATOM      4  C   UNL     1      36.441 -22.150 -17.713  0.00  0.00    -0.055 C 
ATOM      5  C   UNL     1      34.370 -23.510 -16.238  0.00  0.00    +0.068 C 
ATOM      6  C   UNL     1      36.544 -22.311 -16.194  0.00  0.00    +0.068 C 
ATOM      7  H   UNL     1      34.591 -21.288 -17.679  0.00  0.00    -0.080 HD
ENDROOT
BRANCH   2   8
ATOM      8  C   UNL     1      36.027 -24.050 -14.505  0.00  0.00    +0.048 C 
ATOM      9  C   UNL     1      37.261 -24.699 -14.220  0.00  0.00    +0.013 C 
ATOM     10  C   UNL     1      35.046 -24.004 -13.491  0.00  0.00    +0.015 C 
ATOM     11  C   UNL     1      37.489 -25.282 -12.951  0.00  0.00    +0.001 C 
ATOM     12  C   UNL     1      38.266 -24.769 -15.198  0.00  0.00    +0.001 C 
ATOM     13  C   UNL     1      35.271 -24.576 -12.241  0.00  0.00    +0.001 C 
ATOM     14  C   UNL     1      36.483 -25.210 -11.972  0.00  0.00    +0.000 C 
ATOM     15  C   UNL     1      38.715 -25.917 -12.697  0.00  0.00    +0.000 C 
ATOM     16  C   UNL     1      39.479 -25.404 -14.929  0.00  0.00    +0.000 C 
ATOM     17  C   UNL     1      39.703 -25.977 -13.680  0.00  0.00    +0.000 C 
ENDBRANCH   2   8
BRANCH   1  18
ATOM     18  C   UNL     1      34.953 -21.873 -19.586  0.00  0.00    -0.077 C 
BRANCH  18  19
ATOM     19  C   UNL     1      33.570 -21.345 -19.966  0.00  0.00    -0.019 C 
BRANCH  19  20
ATOM     20  C   UNL     1      33.667 -20.268 -21.045  0.00  0.00    +0.045 C 
BRANCH  20  21
ATOM     21  C   UNL     1      35.061 -19.660 -21.109  0.00  0.00    +0.208 C 
BRANCH  21  22
ATOM     22  O   UNL     1      35.527 -19.662 -22.452  0.00  0.00    -0.452 OA
BRANCH  22  28
ATOM     23  O   UNL     1      34.180 -12.893 -23.496  0.00  0.00    -0.275 OA
ATOM     24  N   UNL     1      34.650 -15.124 -23.218  0.00  0.00    -0.263 N 
ATOM     25  N   UNL     1      35.088 -17.418 -22.842  0.00  0.00    -0.357 NA
ATOM     26  C   UNL     1      34.036 -16.735 -24.908  0.00  0.00    +0.090 C 
ATOM     27  C   UNL     1      33.605 -15.614 -25.806  0.00  0.00    +0.022 C 
ATOM     28  C   UNL     1      35.024 -18.694 -23.282  0.00  0.00    +0.278 C 
ATOM     29  C   UNL     1      34.584 -16.460 -23.655  0.00  0.00    +0.170 C 
ATOM     30  C   UNL     1      33.109 -14.430 -24.992  0.00  0.00    +0.086 C 
ATOM     31  C   UNL     1      34.003 -18.064 -25.331  0.00  0.00    -0.012 C 
ATOM     32  C   UNL     1      34.495 -19.066 -24.505  0.00  0.00    +0.068 C 
ATOM     33  C   UNL     1      34.048 -14.061 -23.863  0.00  0.00    +0.228 C 
ATOM     34  H   UNL     1      35.160 -14.933 -22.398  0.00  0.00    +0.157 HD
ENDBRANCH  22  28
ENDBRANCH  21  22
ENDBRANCH  20  21
ENDBRANCH  19  20
ENDBRANCH  18  19
ENDBRANCH   1  18
TORSDOF 7
ENDMDL
MODEL 9
REMARK VINA RESULT:     -11.6      4.184      7.521
REMARK  Name = 11697676
REMARK  7 active torsions:
REMARK  status: ('A' for Active; 'I' for Inactive)
REMARK    1  A    between atoms: N_1  and  C_18
REMARK    2  A    between atoms: N_2  and  C_8
REMARK    3  A    between atoms: C_18  and  C_19
REMARK    4  A    between atoms: C_19  and  C_20
REMARK    5  A    between atoms: C_20  and  C_21
REMARK    6  A    between atoms: C_21  and  O_22
REMARK    7  A    between atoms: O_22  and  C_28
REMARK                            x       y       z     vdW  Elec       q    Type
REMARK                         _______ _______ _______ _____ _____    ______ ____
ROOT
ATOM      1  N   UNL     1      32.347  -9.508 -21.288  0.00  0.00    +0.389 N 
ATOM      2  N   UNL     1      32.875  -7.360 -23.095  0.00  0.00    -0.312 N 
ATOM      3  C   UNL     1      31.617  -9.410 -22.559  0.00  0.00    -0.055 C 
ATOM      4  C   UNL     1      32.644  -8.164 -20.778  0.00  0.00    -0.055 C 
ATOM      5  C   UNL     1      32.443  -8.665 -23.610  0.00  0.00    +0.068 C 
ATOM      6  C   UNL     1      33.504  -7.377 -21.771  0.00  0.00    +0.068 C 
ATOM      7  H   UNL     1      33.225 -10.001 -21.450  0.00  0.00    -0.080 HD
ENDROOT
BRANCH   2   8
ATOM      8  C   UNL     1      33.235  -6.374 -24.021  0.00  0.00    +0.048 C 
ATOM      9  C   UNL     1      32.517  -5.154 -24.165  0.00  0.00    +0.013 C 
ATOM     10  C   UNL     1      34.355  -6.593 -24.852  0.00  0.00    +0.015 C 
ATOM     11  C   UNL     1      32.924  -4.191 -25.118  0.00  0.00    +0.001 C 
ATOM     12  C   UNL     1      31.396  -4.894 -23.361  0.00  0.00    +0.001 C 
ATOM     13  C   UNL     1      34.756  -5.645 -25.790  0.00  0.00    +0.001 C 
ATOM     14  C   UNL     1      34.046  -4.452 -25.922  0.00  0.00    +0.000 C 
ATOM     15  C   UNL     1      32.197  -2.995 -25.240  0.00  0.00    +0.000 C 
ATOM     16  C   UNL     1      30.686  -3.700 -23.494  0.00  0.00    +0.000 C 
ATOM     17  C   UNL     1      31.086  -2.753 -24.432  0.00  0.00    +0.000 C 
ENDBRANCH   2   8
BRANCH   1  18
ATOM     18  C   UNL     1      31.571 -10.268 -20.309  0.00  0.00    -0.077 C 
BRANCH  18  19
ATOM     19  C   UNL     1      31.083 -11.580 -20.921  0.00  0.00    -0.019 C 
BRANCH  19  20
ATOM     20  C   UNL     1      32.232 -12.572 -21.091  0.00  0.00    +0.045 C 
BRANCH  20  21
ATOM     21  C   UNL     1      32.361 -13.042 -22.533  0.00  0.00    +0.208 C 
BRANCH  21  22
ATOM     22  O   UNL     1      33.729 -13.252 -22.852  0.00  0.00    -0.452 OA
BRANCH  22  28
ATOM     23  O   UNL     1      36.619 -19.077 -20.314  0.00  0.00    -0.275 OA
ATOM     24  N   UNL     1      35.616 -17.200 -21.177  0.00  0.00    -0.263 N 
ATOM     25  N   UNL     1      34.663 -15.212 -22.034  0.00  0.00    -0.357 NA
ATOM     26  C   UNL     1      34.913 -17.128 -23.486  0.00  0.00    +0.090 C 
ATOM     27  C   UNL     1      35.265 -18.578 -23.629  0.00  0.00    +0.022 C 
ATOM     28  C   UNL     1      34.121 -14.546 -23.078  0.00  0.00    +0.278 C 
ATOM     29  C   UNL     1      35.059 -16.487 -22.256  0.00  0.00    +0.170 C 
ATOM     30  C   UNL     1      36.408 -18.950 -22.699  0.00  0.00    +0.086 C 
ATOM     31  C   UNL     1      34.336 -16.409 -24.534  0.00  0.00    -0.012 C 
ATOM     32  C   UNL     1      33.940 -15.093 -24.335  0.00  0.00    +0.068 C 
ATOM     33  C   UNL     1      36.201 -18.447 -21.285  0.00  0.00    +0.228 C 
ATOM     34  H   UNL     1      35.587 -16.782 -20.286  0.00  0.00    +0.157 HD
ENDBRANCH  22  28
ENDBRANCH  21  22
ENDBRANCH  20  21
ENDBRANCH  19  20
ENDBRANCH  18  19
ENDBRANCH   1  18
TORSDOF 7
ENDMDL
