MODEL 1
REMARK VINA RESULT:     -11.1      0.000      0.000
REMARK  Name = 4261
REMARK  8 active torsions:
REMARK  status: ('A' for Active; 'I' for Inactive)
REMARK    1  A    between atoms: C_1  and  C_20
REMARK    2  A    between atoms: C_2  and  C_9
REMARK    3  A    between atoms: N_8  and  C_11
REMARK    4  A    between atoms: C_12  and  N_17
REMARK    5  A    between atoms: C_20  and  N_22
REMARK    6  A    between atoms: C_23  and  O_25
REMARK    7  A    between atoms: O_25  and  C_26
REMARK    8  A    between atoms: C_26  and  C_28
REMARK                            x       y       z     vdW  Elec       q    Type
REMARK                         _______ _______ _______ _____ _____    ______ ____
ROOT
ATOM      1  C   UNL     1      33.417 -14.225 -25.472  0.00  0.00    -0.002 C 
ATOM      2  C   UNL     1      33.765 -11.675 -24.419  0.00  0.00    +0.054 C 
ATOM      3  C   UNL     1      33.472 -13.129 -26.326  0.00  0.00    -0.002 C 
ATOM      4  C   UNL     1      33.534 -14.058 -24.097  0.00  0.00    -0.002 C 
ATOM      5  C   UNL     1      33.647 -11.851 -25.798  0.00  0.00    +0.004 C 
ATOM      6  C   UNL     1      33.709 -12.780 -23.568  0.00  0.00    +0.004 C 
ENDROOT
BRANCH   2   9
ATOM      7  O   UNL     1      35.081  -9.840 -23.863  0.00  0.00    -0.270 OA
ATOM      8  N   UNL     1      32.783  -9.711 -23.400  0.00  0.00    -0.279 N 
ATOM      9  C   UNL     1      33.945 -10.342 -23.868  0.00  0.00    +0.250 C 
ATOM     10  H   UNL     1      31.954 -10.236 -23.470  0.00  0.00    +0.155 HD
BRANCH   8  11
ATOM     11  C   UNL     1      32.648  -8.418 -22.840  0.00  0.00    +0.064 C 
ATOM     12  C   UNL     1      32.236  -8.262 -21.526  0.00  0.00    +0.055 C 
ATOM     13  C   UNL     1      32.936  -7.322 -23.639  0.00  0.00    +0.016 C 
ATOM     14  C   UNL     1      32.110  -6.977 -20.997  0.00  0.00    +0.015 C 
ATOM     15  C   UNL     1      32.810  -6.038 -23.110  0.00  0.00    +0.001 C 
ATOM     16  C   UNL     1      32.396  -5.866 -21.789  0.00  0.00    +0.001 C 
BRANCH  12  17
ATOM     17  N   UNL     1      31.941  -9.374 -20.706  0.00  0.00    -0.356 N 
ATOM     18  H   UNL     1      32.610 -10.087 -20.585  0.00  0.00    +0.142 HD
ATOM     19  H   UNL     1      31.068  -9.436 -20.256  0.00  0.00    +0.142 HD
ENDBRANCH  12  17
ENDBRANCH   8  11
ENDBRANCH   2   9
BRANCH   1  20
ATOM     20  C   UNL     1      33.231 -15.602 -26.040  0.00  0.00    +0.119 C 
BRANCH  20  22
ATOM     21  O   UNL     1      32.704 -18.456 -25.924  0.00  0.00    -0.226 OA
ATOM     22  N   UNL     1      33.938 -16.603 -25.275  0.00  0.00    -0.267 N 
ATOM     23  C   UNL     1      33.614 -17.942 -25.283  0.00  0.00    +0.402 C 
ATOM     24  H   UNL     1      34.695 -16.311 -24.716  0.00  0.00    +0.153 HD
BRANCH  23  25
ATOM     25  O   UNL     1      34.465 -18.627 -24.461  0.00  0.00    -0.430 OA
BRANCH  25  26
ATOM     26  C   UNL     1      35.127 -17.847 -23.458  0.00  0.00    +0.238 C 
BRANCH  26  28
ATOM     27  N   UNL     1      37.142 -19.382 -20.668  0.00  0.00    -0.243 NA
ATOM     28  C   UNL     1      35.510 -18.743 -22.316  0.00  0.00    +0.040 C 
ATOM     29  C   UNL     1      34.639 -19.718 -21.864  0.00  0.00    +0.002 C 
ATOM     30  C   UNL     1      36.735 -18.609 -21.699  0.00  0.00    +0.098 C 
ATOM     31  C   UNL     1      35.021 -20.532 -20.805  0.00  0.00    +0.020 C 
ATOM     32  C   UNL     1      36.272 -20.326 -20.246  0.00  0.00    +0.099 C 
ENDBRANCH  26  28
ENDBRANCH  25  26
ENDBRANCH  23  25
ENDBRANCH  20  22
ENDBRANCH   1  20
TORSDOF 8
ENDMDL
MODEL 2
REMARK VINA RESULT:     -11.0      5.044     11.860
REMARK  Name = 4261
REMARK  8 active torsions:
REMARK  status: ('A' for Active; 'I' for Inactive)
REMARK    1  A    between atoms: C_1  and  C_20
REMARK    2  A    between atoms: C_2  and  C_9
REMARK    3  A    between atoms: N_8  and  C_11
REMARK    4  A    between atoms: C_12  and  N_17
REMARK    5  A    between atoms: C_20  and  N_22
REMARK    6  A    between atoms: C_23  and  O_25
REMARK    7  A    between atoms: O_25  and  C_26
REMARK    8  A    between atoms: C_26  and  C_28
REMARK                            x       y       z     vdW  Elec       q    Type
REMARK                         _______ _______ _______ _____ _____    ______ ____
ROOT
ATOM      1  C   UNL     1      34.610 -20.503 -20.988  0.00  0.00    -0.002 C 
ATOM      2  C   UNL     1      33.900 -22.163 -18.873  0.00  0.00    +0.054 C 
ATOM      3  C   UNL     1      33.275 -20.603 -20.610  0.00  0.00    -0.002 C 
ATOM      4  C   UNL     1      35.592 -21.225 -20.320  0.00  0.00    -0.002 C 
ATOM      5  C   UNL     1      32.920 -21.435 -19.549  0.00  0.00    +0.004 C 
ATOM      6  C   UNL     1      35.237 -22.057 -19.259  0.00  0.00    +0.004 C 
ENDROOT
BRANCH   2   9
ATOM      7  O   UNL     1      34.332 -23.896 -17.384  0.00  0.00    -0.270 OA
ATOM      8  N   UNL     1      32.268 -22.793 -17.199  0.00  0.00    -0.279 N 
ATOM      9  C   UNL     1      33.528 -23.031 -17.768  0.00  0.00    +0.250 C 
ATOM     10  H   UNL     1      31.743 -22.070 -17.613  0.00  0.00    +0.155 HD
BRANCH   8  11
ATOM     11  C   UNL     1      31.654 -23.454 -16.109  0.00  0.00    +0.064 C 
ATOM     12  C   UNL     1      30.278 -23.603 -16.064  0.00  0.00    +0.055 C 
ATOM     13  C   UNL     1      32.465 -23.945 -15.096  0.00  0.00    +0.016 C 
ATOM     14  C   UNL     1      29.696 -24.258 -14.978  0.00  0.00    +0.015 C 
ATOM     15  C   UNL     1      31.883 -24.601 -14.012  0.00  0.00    +0.001 C 
ATOM     16  C   UNL     1      30.498 -24.757 -13.953  0.00  0.00    +0.001 C 
BRANCH  12  17
ATOM     17  N   UNL     1      29.445 -23.106 -17.092  0.00  0.00    -0.356 N 
ATOM     18  H   UNL     1      29.833 -22.572 -17.823  0.00  0.00    +0.142 HD
ATOM     19  H   UNL     1      28.480 -23.294 -17.078  0.00  0.00    +0.142 HD
ENDBRANCH  12  17
ENDBRANCH   8  11
ENDBRANCH   2   9
BRANCH   1  20
ATOM     20  C   UNL     1      34.993 -19.607 -22.129  0.00  0.00    +0.119 C 
BRANCH  20  22
ATOM     21  O   UNL     1      35.143 -17.200 -23.748  0.00  0.00    -0.226 OA
ATOM     22  N   UNL     1      35.268 -18.258 -21.688  0.00  0.00    -0.267 N 
ATOM     23  C   UNL     1      35.320 -17.172 -22.535  0.00  0.00    +0.402 C 
ATOM     24  H   UNL     1      35.428 -18.108 -20.728  0.00  0.00    +0.153 HD
BRANCH  23  25
ATOM     25  O   UNL     1      35.599 -16.043 -21.818  0.00  0.00    -0.430 OA
BRANCH  25  26
ATOM     26  C   UNL     1      34.607 -15.646 -20.863  0.00  0.00    +0.238 C 
BRANCH  26  28
ATOM     27  N   UNL     1      33.524 -12.877 -23.177  0.00  0.00    -0.243 NA
ATOM     28  C   UNL     1      33.826 -14.492 -21.420  0.00  0.00    +0.040 C 
ATOM     29  C   UNL     1      32.736 -13.985 -20.736  0.00  0.00    +0.002 C 
ATOM     30  C   UNL     1      34.183 -13.917 -22.621  0.00  0.00    +0.098 C 
ATOM     31  C   UNL     1      32.032 -12.915 -21.275  0.00  0.00    +0.020 C 
ATOM     32  C   UNL     1      32.462 -12.401 -22.488  0.00  0.00    +0.099 C 
ENDBRANCH  26  28
ENDBRANCH  25  26
ENDBRANCH  23  25
ENDBRANCH  20  22
ENDBRANCH   1  20
TORSDOF 8
ENDMDL
MODEL 3
REMARK VINA RESULT:     -11.0      2.188      2.891
REMARK  Name = 4261
REMARK  8 active torsions:
REMARK  status: ('A' for Active; 'I' for Inactive)
REMARK    1  A    between atoms: C_1  and  C_20
REMARK    2  A    between atoms: C_2  and  C_9
REMARK    3  A    between atoms: N_8  and  C_11
REMARK    4  A    between atoms: C_12  and  N_17
REMARK    5  A    between atoms: C_20  and  N_22
REMARK    6  A    between atoms: C_23  and  O_25
REMARK    7  A    between atoms: O_25  and  C_26
REMARK    8  A    between atoms: C_26  and  C_28
REMARK                            x       y       z     vdW  Elec       q    Type
REMARK                         _______ _______ _______ _____ _____    ______ ____
ROOT
ATOM      1  C   UNL     1      34.061 -14.367 -23.006  0.00  0.00    -0.002 C 
ATOM      2  C   UNL     1      32.636 -12.071 -22.351  0.00  0.00    +0.054 C 
ATOM      3  C   UNL     1      33.396 -14.295 -21.787  0.00  0.00    -0.002 C 
ATOM      4  C   UNL     1      34.021 -13.303 -23.900  0.00  0.00    -0.002 C 
ATOM      5  C   UNL     1      32.681 -13.144 -21.459  0.00  0.00    +0.004 C 
ATOM      6  C   UNL     1      33.306 -12.152 -23.572  0.00  0.00    +0.004 C 
ENDROOT
BRANCH   2   9
ATOM      7  O   UNL     1      30.804 -10.982 -21.420  0.00  0.00    -0.270 OA
ATOM      8  N   UNL     1      32.497  -9.655 -22.357  0.00  0.00    -0.279 N 
ATOM      9  C   UNL     1      31.892 -10.871 -22.007  0.00  0.00    +0.250 C 
ATOM     10  H   UNL     1      33.363  -9.726 -22.820  0.00  0.00    +0.155 HD
BRANCH   8  11
ATOM     11  C   UNL     1      32.026  -8.339 -22.131  0.00  0.00    +0.064 C 
ATOM     12  C   UNL     1      32.307  -7.690 -20.939  0.00  0.00    +0.055 C 
ATOM     13  C   UNL     1      31.284  -7.725 -23.128  0.00  0.00    +0.016 C 
ATOM     14  C   UNL     1      31.832  -6.393 -20.739  0.00  0.00    +0.015 C 
ATOM     15  C   UNL     1      30.809  -6.429 -22.928  0.00  0.00    +0.001 C 
ATOM     16  C   UNL     1      31.083  -5.763 -21.733  0.00  0.00    +0.001 C 
BRANCH  12  17
ATOM     17  N   UNL     1      33.064  -8.308 -19.919  0.00  0.00    -0.356 N 
ATOM     18  H   UNL     1      33.354  -7.785 -19.137  0.00  0.00    +0.142 HD
ATOM     19  H   UNL     1      33.301  -9.260 -19.990  0.00  0.00    +0.142 HD
ENDBRANCH  12  17
ENDBRANCH   8  11
ENDBRANCH   2   9
BRANCH   1  20
ATOM     20  C   UNL     1      34.829 -15.607 -23.361  0.00  0.00    +0.119 C 
BRANCH  20  22
ATOM     21  O   UNL     1      35.601 -18.406 -23.307  0.00  0.00    -0.226 OA
ATOM     22  N   UNL     1      35.087 -16.432 -22.203  0.00  0.00    -0.267 N 
ATOM     23  C   UNL     1      35.450 -17.760 -22.276  0.00  0.00    +0.402 C 
ATOM     24  H   UNL     1      34.998 -16.023 -21.312  0.00  0.00    +0.153 HD
BRANCH  23  25
ATOM     25  O   UNL     1      35.621 -18.260 -21.016  0.00  0.00    -0.430 OA
BRANCH  25  26
ATOM     26  C   UNL     1      36.345 -19.493 -20.926  0.00  0.00    +0.238 C 
BRANCH  26  28
ATOM     27  N   UNL     1      35.223 -22.559 -19.043  0.00  0.00    -0.243 NA
ATOM     28  C   UNL     1      35.448 -20.545 -20.341  0.00  0.00    +0.040 C 
ATOM     29  C   UNL     1      34.080 -20.494 -20.540  0.00  0.00    +0.002 C 
ATOM     30  C   UNL     1      35.973 -21.580 -19.596  0.00  0.00    +0.098 C 
ATOM     31  C   UNL     1      33.275 -21.482 -19.987  0.00  0.00    +0.020 C 
ATOM     32  C   UNL     1      33.889 -22.484 -19.253  0.00  0.00    +0.099 C 
ENDBRANCH  26  28
ENDBRANCH  25  26
ENDBRANCH  23  25
ENDBRANCH  20  22
ENDBRANCH   1  20
TORSDOF 8
ENDMDL
MODEL 4
REMARK VINA RESULT:     -10.7      6.620     11.577
REMARK  Name = 4261
REMARK  8 active torsions:
REMARK  status: ('A' for Active; 'I' for Inactive)
REMARK    1  A    between atoms: C_1  and  C_20
REMARK    2  A    between atoms: C_2  and  C_9
REMARK    3  A    between atoms: N_8  and  C_11
REMARK    4  A    between atoms: C_12  and  N_17
REMARK    5  A    between atoms: C_20  and  N_22
REMARK    6  A    between atoms: C_23  and  O_25
REMARK    7  A    between atoms: O_25  and  C_26
REMARK    8  A    between atoms: C_26  and  C_28
REMARK                            x       y       z     vdW  Elec       q    Type
REMARK                         _______ _______ _______ _____ _____    ______ ____
ROOT
ATOM      1  C   UNL     1      34.751 -23.236 -17.052  0.00  0.00    -0.002 C 
ATOM      2  C   UNL     1      34.151 -21.658 -19.262  0.00  0.00    +0.054 C 
ATOM      3  C   UNL     1      35.773 -22.575 -17.724  0.00  0.00    -0.002 C 
ATOM      4  C   UNL     1      33.432 -23.115 -17.475  0.00  0.00    -0.002 C 
ATOM      5  C   UNL     1      35.472 -21.783 -18.832  0.00  0.00    +0.004 C 
ATOM      6  C   UNL     1      33.130 -22.324 -18.582  0.00  0.00    +0.004 C 
ENDROOT
BRANCH   2   9
ATOM      7  O   UNL     1      32.666 -20.787 -20.826  0.00  0.00    -0.270 OA
ATOM      8  N   UNL     1      34.913 -20.124 -20.972  0.00  0.00    -0.279 N 
ATOM      9  C   UNL     1      33.838 -20.834 -20.417  0.00  0.00    +0.250 C 
ATOM     10  H   UNL     1      35.785 -20.262 -20.539  0.00  0.00    +0.155 HD
BRANCH   8  11
ATOM     11  C   UNL     1      34.906 -19.233 -22.073  0.00  0.00    +0.064 C 
ATOM     12  C   UNL     1      35.223 -17.896 -21.894  0.00  0.00    +0.055 C 
ATOM     13  C   UNL     1      34.577 -19.734 -23.323  0.00  0.00    +0.016 C 
ATOM     14  C   UNL     1      35.210 -17.038 -22.994  0.00  0.00    +0.015 C 
ATOM     15  C   UNL     1      34.564 -18.876 -24.422  0.00  0.00    +0.001 C 
ATOM     16  C   UNL     1      34.880 -17.528 -24.257  0.00  0.00    +0.001 C 
BRANCH  12  17
ATOM     17  N   UNL     1      35.560 -17.378 -20.623  0.00  0.00    -0.356 N 
ATOM     18  H   UNL     1      36.286 -16.718 -20.539  0.00  0.00    +0.142 HD
ATOM     19  H   UNL     1      35.070 -17.677 -19.824  0.00  0.00    +0.142 HD
ENDBRANCH  12  17
ENDBRANCH   8  11
ENDBRANCH   2   9
BRANCH   1  20
ATOM     20  C   UNL     1      35.074 -24.087 -15.859  0.00  0.00    +0.119 C 
BRANCH  20  22
ATOM     21  O   UNL     1      34.979 -24.159 -12.957  0.00  0.00    -0.226 OA
ATOM     22  N   UNL     1      33.919 -24.296 -15.016  0.00  0.00    -0.267 N 
ATOM     23  C   UNL     1      33.971 -24.314 -13.639  0.00  0.00    +0.402 C 
ATOM     24  H   UNL     1      33.046 -24.433 -15.450  0.00  0.00    +0.153 HD
BRANCH  23  25
ATOM     25  O   UNL     1      32.720 -24.533 -13.133  0.00  0.00    -0.430 OA
BRANCH  25  26
ATOM     26  C   UNL     1      31.794 -23.449 -13.268  0.00  0.00    +0.238 C 
BRANCH  26  28
ATOM     27  N   UNL     1      29.146 -25.416 -15.090  0.00  0.00    -0.243 NA
ATOM     28  C   UNL     1      30.754 -23.817 -14.286  0.00  0.00    +0.040 C 
ATOM     29  C   UNL     1      30.445 -22.952 -15.321  0.00  0.00    +0.002 C 
ATOM     30  C   UNL     1      30.091 -25.023 -14.207  0.00  0.00    +0.098 C 
ATOM     31  C   UNL     1      29.479 -23.321 -16.249  0.00  0.00    +0.020 C 
ATOM     32  C   UNL     1      28.863 -24.552 -16.091  0.00  0.00    +0.099 C 
ENDBRANCH  26  28
ENDBRANCH  25  26
ENDBRANCH  23  25
ENDBRANCH  20  22
ENDBRANCH   1  20
TORSDOF 8
ENDMDL
MODEL 5
REMARK VINA RESULT:     -10.6      6.619     11.666
REMARK  Name = 4261
REMARK  8 active torsions:
REMARK  status: ('A' for Active; 'I' for Inactive)
REMARK    1  A    between atoms: C_1  and  C_20
REMARK    2  A    between atoms: C_2  and  C_9
REMARK    3  A    between atoms: N_8  and  C_11
REMARK    4  A    between atoms: C_12  and  N_17
REMARK    5  A    between atoms: C_20  and  N_22
REMARK    6  A    between atoms: C_23  and  O_25
REMARK    7  A    between atoms: O_25  and  C_26
REMARK    8  A    between atoms: C_26  and  C_28
REMARK                            x       y       z     vdW  Elec       q    Type
REMARK                         _______ _______ _______ _____ _____    ______ ____
ROOT
ATOM      1  C   UNL     1      34.219 -23.243 -17.159  0.00  0.00    -0.002 C 
ATOM      2  C   UNL     1      33.791 -21.606 -19.366  0.00  0.00    +0.054 C 
ATOM      3  C   UNL     1      35.307 -22.722 -17.851  0.00  0.00    -0.002 C 
ATOM      4  C   UNL     1      32.919 -22.953 -17.560  0.00  0.00    -0.002 C 
ATOM      5  C   UNL     1      35.092 -21.901 -18.957  0.00  0.00    +0.004 C 
ATOM      6  C   UNL     1      32.705 -22.133 -18.667  0.00  0.00    +0.004 C 
ENDROOT
BRANCH   2   9
ATOM      7  O   UNL     1      32.415 -20.624 -20.963  0.00  0.00    -0.270 OA
ATOM      8  N   UNL     1      34.704 -20.109 -21.035  0.00  0.00    -0.279 N 
ATOM      9  C   UNL     1      33.568 -20.752 -20.521  0.00  0.00    +0.250 C 
ATOM     10  H   UNL     1      35.552 -20.309 -20.578  0.00  0.00    +0.155 HD
BRANCH   8  11
ATOM     11  C   UNL     1      34.790 -19.209 -22.125  0.00  0.00    +0.064 C 
ATOM     12  C   UNL     1      35.209 -17.904 -21.924  0.00  0.00    +0.055 C 
ATOM     13  C   UNL     1      34.445 -19.669 -23.386  0.00  0.00    +0.016 C 
ATOM     14  C   UNL     1      35.285 -17.036 -23.014  0.00  0.00    +0.015 C 
ATOM     15  C   UNL     1      34.521 -18.801 -24.475  0.00  0.00    +0.001 C 
ATOM     16  C   UNL     1      34.941 -17.484 -24.289  0.00  0.00    +0.001 C 
BRANCH  12  17
ATOM     17  N   UNL     1      35.563 -17.429 -20.642  0.00  0.00    -0.356 N 
ATOM     18  H   UNL     1      36.506 -17.439 -20.357  0.00  0.00    +0.142 HD
ATOM     19  H   UNL     1      34.869 -17.088 -20.034  0.00  0.00    +0.142 HD
ENDBRANCH  12  17
ENDBRANCH   8  11
ENDBRANCH   2   9
BRANCH   1  20
ATOM     20  C   UNL     1      34.449 -24.124 -15.967  0.00  0.00    +0.119 C 
BRANCH  20  22
ATOM     21  O   UNL     1      36.142 -26.446 -15.539  0.00  0.00    -0.226 OA
ATOM     22  N   UNL     1      35.839 -24.147 -15.572  0.00  0.00    -0.267 N 
ATOM     23  C   UNL     1      36.565 -25.305 -15.392  0.00  0.00    +0.402 C 
ATOM     24  H   UNL     1      36.293 -23.285 -15.423  0.00  0.00    +0.153 HD
BRANCH  23  25
ATOM     25  O   UNL     1      37.843 -24.994 -15.021  0.00  0.00    -0.430 OA
BRANCH  25  26
ATOM     26  C   UNL     1      38.314 -25.614 -13.819  0.00  0.00    +0.238 C 
BRANCH  26  28
ATOM     27  N   UNL     1      35.988 -25.408 -10.861  0.00  0.00    -0.243 NA
ATOM     28  C   UNL     1      37.557 -25.054 -12.650  0.00  0.00    +0.040 C 
ATOM     29  C   UNL     1      37.708 -23.727 -12.285  0.00  0.00    +0.002 C 
ATOM     30  C   UNL     1      36.699 -25.850 -11.922  0.00  0.00    +0.098 C 
ATOM     31  C   UNL     1      36.994 -23.236 -11.199  0.00  0.00    +0.020 C 
ATOM     32  C   UNL     1      36.155 -24.109 -10.525  0.00  0.00    +0.099 C 
ENDBRANCH  26  28
ENDBRANCH  25  26
ENDBRANCH  23  25
ENDBRANCH  20  22
ENDBRANCH   1  20
TORSDOF 8
ENDMDL
MODEL 6
REMARK VINA RESULT:     -10.5      2.078      9.871
REMARK  Name = 4261
REMARK  8 active torsions:
REMARK  status: ('A' for Active; 'I' for Inactive)
REMARK    1  A    between atoms: C_1  and  C_20
REMARK    2  A    between atoms: C_2  and  C_9
REMARK    3  A    between atoms: N_8  and  C_11
REMARK    4  A    between atoms: C_12  and  N_17
REMARK    5  A    between atoms: C_20  and  N_22
REMARK    6  A    between atoms: C_23  and  O_25
REMARK    7  A    between atoms: O_25  and  C_26
REMARK    8  A    between atoms: C_26  and  C_28
REMARK                            x       y       z     vdW  Elec       q    Type
REMARK                         _______ _______ _______ _____ _____    ______ ____
ROOT
ATOM      1  C   UNL     1      33.996 -14.937 -24.339  0.00  0.00    -0.002 C 
ATOM      2  C   UNL     1      35.032 -17.161 -23.031  0.00  0.00    +0.054 C 
ATOM      3  C   UNL     1      34.427 -14.821 -23.022  0.00  0.00    -0.002 C 
ATOM      4  C   UNL     1      34.078 -16.153 -25.008  0.00  0.00    -0.002 C 
ATOM      5  C   UNL     1      34.947 -15.937 -22.367  0.00  0.00    +0.004 C 
ATOM      6  C   UNL     1      34.598 -17.268 -24.353  0.00  0.00    +0.004 C 
ENDROOT
BRANCH   2   9
ATOM      7  O   UNL     1      36.765 -18.623 -22.516  0.00  0.00    -0.270 OA
ATOM      8  N   UNL     1      34.681 -19.011 -21.510  0.00  0.00    -0.279 N 
ATOM      9  C   UNL     1      35.573 -18.323 -22.346  0.00  0.00    +0.250 C 
ATOM     10  H   UNL     1      33.764 -18.653 -21.477  0.00  0.00    +0.155 HD
BRANCH   8  11
ATOM     11  C   UNL     1      34.926 -20.150 -20.706  0.00  0.00    +0.064 C 
ATOM     12  C   UNL     1      33.875 -20.946 -20.280  0.00  0.00    +0.055 C 
ATOM     13  C   UNL     1      36.237 -20.443 -20.363  0.00  0.00    +0.016 C 
ATOM     14  C   UNL     1      34.143 -22.064 -19.488  0.00  0.00    +0.015 C 
ATOM     15  C   UNL     1      36.504 -21.560 -19.573  0.00  0.00    +0.001 C 
ATOM     16  C   UNL     1      35.456 -22.371 -19.135  0.00  0.00    +0.001 C 
BRANCH  12  17
ATOM     17  N   UNL     1      32.537 -20.655 -20.626  0.00  0.00    -0.356 N 
ATOM     18  H   UNL     1      31.820 -20.779 -19.963  0.00  0.00    +0.142 HD
ATOM     19  H   UNL     1      32.322 -20.329 -21.529  0.00  0.00    +0.142 HD
ENDBRANCH  12  17
ENDBRANCH   8  11
ENDBRANCH   2   9
BRANCH   1  20
ATOM     20  C   UNL     1      33.438 -13.736 -25.046  0.00  0.00    +0.119 C 
BRANCH  20  22
ATOM     21  O   UNL     1      34.605 -11.195 -25.833  0.00  0.00    -0.226 OA
ATOM     22  N   UNL     1      33.562 -12.535 -24.252  0.00  0.00    -0.267 N 
ATOM     23  C   UNL     1      34.135 -11.369 -24.714  0.00  0.00    +0.402 C 
ATOM     24  H   UNL     1      33.219 -12.551 -23.329  0.00  0.00    +0.153 HD
BRANCH  23  25
ATOM     25  O   UNL     1      34.103 -10.420 -23.730  0.00  0.00    -0.430 OA
BRANCH  25  26
ATOM     26  C   UNL     1      32.891  -9.664 -23.631  0.00  0.00    +0.238 C 
BRANCH  26  28
ATOM     27  N   UNL     1      32.385  -8.497 -20.084  0.00  0.00    -0.243 NA
ATOM     28  C   UNL     1      32.443  -9.643 -22.198  0.00  0.00    +0.040 C 
ATOM     29  C   UNL     1      31.709 -10.693 -21.675  0.00  0.00    +0.002 C 
ATOM     30  C   UNL     1      32.756  -8.578 -21.381  0.00  0.00    +0.098 C 
ATOM     31  C   UNL     1      31.310 -10.646 -20.345  0.00  0.00    +0.020 C 
ATOM     32  C   UNL     1      31.669  -9.536 -19.598  0.00  0.00    +0.099 C 
ENDBRANCH  26  28
ENDBRANCH  25  26
ENDBRANCH  23  25
ENDBRANCH  20  22
ENDBRANCH   1  20
TORSDOF 8
ENDMDL
MODEL 7
REMARK VINA RESULT:     -10.5      6.217     10.883
REMARK  Name = 4261
REMARK  8 active torsions:
REMARK  status: ('A' for Active; 'I' for Inactive)
REMARK    1  A    between atoms: C_1  and  C_20
REMARK    2  A    between atoms: C_2  and  C_9
REMARK    3  A    between atoms: N_8  and  C_11
REMARK    4  A    between atoms: C_12  and  N_17
REMARK    5  A    between atoms: C_20  and  N_22
REMARK    6  A    between atoms: C_23  and  O_25
REMARK    7  A    between atoms: O_25  and  C_26
REMARK    8  A    between atoms: C_26  and  C_28
REMARK                            x       y       z     vdW  Elec       q    Type
REMARK                         _______ _______ _______ _____ _____    ______ ____
ROOT
ATOM      1  C   UNL     1      34.772 -22.627 -17.975  0.00  0.00    -0.002 C 
ATOM      2  C   UNL     1      34.053 -21.062 -20.159  0.00  0.00    +0.054 C 
ATOM      3  C   UNL     1      33.427 -22.445 -18.279  0.00  0.00    -0.002 C 
ATOM      4  C   UNL     1      35.760 -22.034 -18.752  0.00  0.00    -0.002 C 
ATOM      5  C   UNL     1      33.067 -21.661 -19.374  0.00  0.00    +0.004 C 
ATOM      6  C   UNL     1      35.401 -21.250 -19.848  0.00  0.00    +0.004 C 
ENDROOT
BRANCH   2   9
ATOM      7  O   UNL     1      32.474 -20.099 -21.569  0.00  0.00    -0.270 OA
ATOM      8  N   UNL     1      34.737 -19.651 -22.003  0.00  0.00    -0.279 N 
ATOM      9  C   UNL     1      33.678 -20.244 -21.300  0.00  0.00    +0.250 C 
ATOM     10  H   UNL     1      35.640 -19.858 -21.670  0.00  0.00    +0.155 HD
BRANCH   8  11
ATOM     11  C   UNL     1      34.677 -18.793 -23.127  0.00  0.00    +0.064 C 
ATOM     12  C   UNL     1      35.047 -17.462 -23.014  0.00  0.00    +0.055 C 
ATOM     13  C   UNL     1      34.242 -19.319 -24.334  0.00  0.00    +0.016 C 
ATOM     14  C   UNL     1      34.979 -16.636 -24.136  0.00  0.00    +0.015 C 
ATOM     15  C   UNL     1      34.174 -18.493 -25.456  0.00  0.00    +0.001 C 
ATOM     16  C   UNL     1      34.543 -17.151 -25.357  0.00  0.00    +0.001 C 
BRANCH  12  17
ATOM     17  N   UNL     1      35.493 -16.919 -21.788  0.00  0.00    -0.356 N 
ATOM     18  H   UNL     1      36.109 -16.151 -21.786  0.00  0.00    +0.142 HD
ATOM     19  H   UNL     1      35.188 -17.309 -20.937  0.00  0.00    +0.142 HD
ENDBRANCH  12  17
ENDBRANCH   8  11
ENDBRANCH   2   9
BRANCH   1  20
ATOM     20  C   UNL     1      35.160 -23.472 -16.798  0.00  0.00    +0.119 C 
BRANCH  20  22
ATOM     21  O   UNL     1      35.114 -24.462 -14.067  0.00  0.00    -0.226 OA
ATOM     22  N   UNL     1      34.010 -23.878 -16.022  0.00  0.00    -0.267 N 
ATOM     23  C   UNL     1      34.086 -24.338 -14.725  0.00  0.00    +0.402 C 
ATOM     24  H   UNL     1      33.122 -23.822 -16.444  0.00  0.00    +0.153 HD
BRANCH  23  25
ATOM     25  O   UNL     1      32.834 -24.639 -14.268  0.00  0.00    -0.430 OA
BRANCH  25  26
ATOM     26  C   UNL     1      31.951 -23.526 -14.083  0.00  0.00    +0.238 C 
BRANCH  26  28
ATOM     27  N   UNL     1      29.549 -22.957 -16.930  0.00  0.00    -0.243 NA
ATOM     28  C   UNL     1      30.763 -23.687 -14.985  0.00  0.00    +0.040 C 
ATOM     29  C   UNL     1      29.815 -24.664 -14.733  0.00  0.00    +0.002 C 
ATOM     30  C   UNL     1      30.595 -22.866 -16.079  0.00  0.00    +0.098 C 
ATOM     31  C   UNL     1      28.725 -24.789 -15.585  0.00  0.00    +0.020 C 
ATOM     32  C   UNL     1      28.639 -23.920 -16.661  0.00  0.00    +0.099 C 
ENDBRANCH  26  28
ENDBRANCH  25  26
ENDBRANCH  23  25
ENDBRANCH  20  22
ENDBRANCH   1  20
TORSDOF 8
ENDMDL
MODEL 8
REMARK VINA RESULT:     -10.5      6.236     10.799
REMARK  Name = 4261
REMARK  8 active torsions:
REMARK  status: ('A' for Active; 'I' for Inactive)
REMARK    1  A    between atoms: C_1  and  C_20
REMARK    2  A    between atoms: C_2  and  C_9
REMARK    3  A    between atoms: N_8  and  C_11
REMARK    4  A    between atoms: C_12  and  N_17
REMARK    5  A    between atoms: C_20  and  N_22
REMARK    6  A    between atoms: C_23  and  O_25
REMARK    7  A    between atoms: O_25  and  C_26
REMARK    8  A    between atoms: C_26  and  C_28
REMARK                            x       y       z     vdW  Elec       q    Type
REMARK                         _______ _______ _______ _____ _____    ______ ____
ROOT
ATOM      1  C   UNL     1      33.959 -22.778 -18.166  0.00  0.00    -0.002 C 
ATOM      2  C   UNL     1      34.833 -21.006 -20.123  0.00  0.00    +0.054 C 
ATOM      3  C   UNL     1      35.322 -22.559 -18.337  0.00  0.00    -0.002 C 
ATOM      4  C   UNL     1      33.030 -22.120 -18.964  0.00  0.00    -0.002 C 
ATOM      5  C   UNL     1      35.759 -21.670 -19.318  0.00  0.00    +0.004 C 
ATOM      6  C   UNL     1      33.467 -21.231 -19.944  0.00  0.00    +0.004 C 
ENDROOT
BRANCH   2   9
ATOM      7  O   UNL     1      36.495 -19.788 -21.201  0.00  0.00    -0.270 OA
ATOM      8  N   UNL     1      34.305 -19.603 -22.023  0.00  0.00    -0.279 N 
ATOM      9  C   UNL     1      35.290 -20.080 -21.146  0.00  0.00    +0.250 C 
ATOM     10  H   UNL     1      33.390 -19.924 -21.854  0.00  0.00    +0.155 HD
BRANCH   8  11
ATOM     11  C   UNL     1      34.455 -18.720 -23.120  0.00  0.00    +0.064 C 
ATOM     12  C   UNL     1      34.968 -17.447 -22.930  0.00  0.00    +0.055 C 
ATOM     13  C   UNL     1      34.076 -19.163 -24.378  0.00  0.00    +0.016 C 
ATOM     14  C   UNL     1      35.106 -16.595 -24.026  0.00  0.00    +0.015 C 
ATOM     15  C   UNL     1      34.214 -18.312 -25.473  0.00  0.00    +0.001 C 
ATOM     16  C   UNL     1      34.729 -17.028 -25.297  0.00  0.00    +0.001 C 
BRANCH  12  17
ATOM     17  N   UNL     1      35.358 -16.989 -21.651  0.00  0.00    -0.356 N 
ATOM     18  H   UNL     1      36.108 -16.358 -21.563  0.00  0.00    +0.142 HD
ATOM     19  H   UNL     1      34.879 -17.300 -20.850  0.00  0.00    +0.142 HD
ENDBRANCH  12  17
ENDBRANCH   8  11
ENDBRANCH   2   9
BRANCH   1  20
ATOM     20  C   UNL     1      33.488 -23.734 -17.109  0.00  0.00    +0.119 C 
BRANCH  20  22
ATOM     21  O   UNL     1      32.818 -24.581 -14.413  0.00  0.00    -0.226 OA
ATOM     22  N   UNL     1      34.330 -23.700 -15.936  0.00  0.00    -0.267 N 
ATOM     23  C   UNL     1      33.923 -24.126 -14.690  0.00  0.00    +0.402 C 
ATOM     24  H   UNL     1      35.246 -23.353 -16.032  0.00  0.00    +0.153 HD
BRANCH  23  25
ATOM     25  O   UNL     1      34.942 -23.967 -13.793  0.00  0.00    -0.430 OA
BRANCH  25  26
ATOM     26  C   UNL     1      36.119 -23.323 -14.293  0.00  0.00    +0.238 C 
BRANCH  26  28
ATOM     27  N   UNL     1      39.438 -25.020 -14.842  0.00  0.00    -0.243 NA
ATOM     28  C   UNL     1      37.299 -24.225 -14.079  0.00  0.00    +0.040 C 
ATOM     29  C   UNL     1      37.354 -25.065 -12.981  0.00  0.00    +0.002 C 
ATOM     30  C   UNL     1      38.348 -24.233 -14.974  0.00  0.00    +0.098 C 
ATOM     31  C   UNL     1      38.459 -25.889 -12.810  0.00  0.00    +0.020 C 
ATOM     32  C   UNL     1      39.466 -25.831 -13.760  0.00  0.00    +0.099 C 
ENDBRANCH  26  28
ENDBRANCH  25  26
ENDBRANCH  23  25
ENDBRANCH  20  22
ENDBRANCH   1  20
TORSDOF 8
ENDMDL
MODEL 9
REMARK VINA RESULT:     -10.2      6.246     10.834
REMARK  Name = 4261
REMARK  8 active torsions:
REMARK  status: ('A' for Active; 'I' for Inactive)
REMARK    1  A    between atoms: C_1  and  C_20
REMARK    2  A    between atoms: C_2  and  C_9
REMARK    3  A    between atoms: N_8  and  C_11
REMARK    4  A    between atoms: C_12  and  N_17
REMARK    5  A    between atoms: C_20  and  N_22
REMARK    6  A    between atoms: C_23  and  O_25
REMARK    7  A    between atoms: O_25  and  C_26
REMARK    8  A    between atoms: C_26  and  C_28
REMARK                            x       y       z     vdW  Elec       q    Type
REMARK                         _______ _______ _______ _____ _____    ______ ____
ROOT
ATOM      1  C   UNL     1      36.314 -22.036 -18.190  0.00  0.00    -0.002 C 
ATOM      2  C   UNL     1      34.972 -20.811 -20.295  0.00  0.00    +0.054 C 
ATOM      3  C   UNL     1      37.010 -21.197 -19.054  0.00  0.00    -0.002 C 
ATOM      4  C   UNL     1      34.955 -22.268 -18.368  0.00  0.00    -0.002 C 
ATOM      5  C   UNL     1      36.336 -20.583 -20.109  0.00  0.00    +0.004 C 
ATOM      6  C   UNL     1      34.282 -21.654 -19.423  0.00  0.00    +0.004 C 
ENDROOT
BRANCH   2   9
ATOM      7  O   UNL     1      33.031 -20.214 -21.428  0.00  0.00    -0.270 OA
ATOM      8  N   UNL     1      35.079 -19.522 -22.341  0.00  0.00    -0.279 N 
ATOM      9  C   UNL     1      34.271 -20.171 -21.396  0.00  0.00    +0.250 C 
ATOM     10  H   UNL     1      36.049 -19.574 -22.182  0.00  0.00    +0.155 HD
BRANCH   8  11
ATOM     11  C   UNL     1      34.682 -18.801 -23.493  0.00  0.00    +0.064 C 
ATOM     12  C   UNL     1      34.981 -17.453 -23.613  0.00  0.00    +0.055 C 
ATOM     13  C   UNL     1      33.993 -19.478 -24.488  0.00  0.00    +0.016 C 
ATOM     14  C   UNL     1      34.579 -16.764 -24.758  0.00  0.00    +0.015 C 
ATOM     15  C   UNL     1      33.592 -18.788 -25.632  0.00  0.00    +0.001 C 
ATOM     16  C   UNL     1      33.884 -17.431 -25.767  0.00  0.00    +0.001 C 
BRANCH  12  17
ATOM     17  N   UNL     1      35.684 -16.757 -22.604  0.00  0.00    -0.356 N 
ATOM     18  H   UNL     1      35.199 -16.157 -21.993  0.00  0.00    +0.142 HD
ATOM     19  H   UNL     1      36.657 -16.872 -22.514  0.00  0.00    +0.142 HD
ENDBRANCH  12  17
ENDBRANCH   8  11
ENDBRANCH   2   9
BRANCH   1  20
ATOM     20  C   UNL     1      37.038 -22.696 -17.053  0.00  0.00    +0.119 C 
BRANCH  20  22
ATOM     21  O   UNL     1      37.589 -23.074 -14.227  0.00  0.00    -0.226 OA
ATOM     22  N   UNL     1      36.129 -23.154 -16.027  0.00  0.00    -0.267 N 
ATOM     23  C   UNL     1      36.483 -23.303 -14.703  0.00  0.00    +0.402 C 
ATOM     24  H   UNL     1      35.205 -23.371 -16.289  0.00  0.00    +0.153 HD
BRANCH  23  25
ATOM     25  O   UNL     1      35.408 -23.750 -13.987  0.00  0.00    -0.430 OA
BRANCH  25  26
ATOM     26  C   UNL     1      34.595 -24.738 -14.631  0.00  0.00    +0.238 C 
BRANCH  26  28
ATOM     27  N   UNL     1      31.103 -24.826 -13.217  0.00  0.00    -0.243 NA
ATOM     28  C   UNL     1      33.149 -24.402 -14.410  0.00  0.00    +0.040 C 
ATOM     29  C   UNL     1      32.537 -23.408 -15.153  0.00  0.00    +0.002 C 
ATOM     30  C   UNL     1      32.408 -25.078 -13.465  0.00  0.00    +0.098 C 
ATOM     31  C   UNL     1      31.196 -23.119 -14.927  0.00  0.00    +0.020 C 
ATOM     32  C   UNL     1      30.529 -23.850 -13.956  0.00  0.00    +0.099 C 
ENDBRANCH  26  28
ENDBRANCH  25  26
ENDBRANCH  23  25
ENDBRANCH  20  22
ENDBRANCH   1  20
TORSDOF 8
ENDMDL
