MODEL 1
REMARK VINA RESULT:     -12.1      0.000      0.000
REMARK  Name = 24767976
REMARK  5 active torsions:
REMARK  status: ('A' for Active; 'I' for Inactive)
REMARK    1  A    between atoms: C_1  and  N_9
REMARK    2  A    between atoms: C_2  and  O_19
REMARK    3  A    between atoms: C_10  and  C_14
REMARK    4  A    between atoms: O_19  and  C_27
REMARK    5  A    between atoms: C_31  and  C_33
REMARK                            x       y       z     vdW  Elec       q    Type
REMARK                         _______ _______ _______ _____ _____    ______ ____
ROOT
ATOM      1  C   UNL     1      32.480 -10.790 -22.781  0.00  0.00    +0.050 C 
ATOM      2  C   UNL     1      33.439 -12.794 -23.730  0.00  0.00    +0.148 C 
ATOM      3  C   UNL     1      31.962 -11.538 -21.725  0.00  0.00    -0.008 C 
ATOM      4  C   UNL     1      33.219 -11.418 -23.784  0.00  0.00    +0.052 C 
ATOM      5  C   UNL     1      32.182 -12.915 -21.671  0.00  0.00    +0.000 C 
ATOM      6  C   UNL     1      32.921 -13.543 -22.674  0.00  0.00    +0.037 C 
ATOM      7  C   UNL     1      31.166 -10.892 -20.637  0.00  0.00    +0.032 C 
ENDROOT
BRANCH   1   9
ATOM      8  O   UNL     1      34.446  -8.545 -23.067  0.00  0.00    -0.268 OA
ATOM      9  N   UNL     1      32.272  -9.411 -22.852  0.00  0.00    -0.279 N 
ATOM     10  C   UNL     1      33.231  -8.400 -22.986  0.00  0.00    +0.265 C 
ATOM     11  H   UNL     1      31.334  -9.112 -22.801  0.00  0.00    +0.155 HD
BRANCH  10  14
ATOM     12  N   UNL     1      32.308  -6.300 -21.908  0.00  0.00    -0.206 N 
ATOM     13  N   UNL     1      31.860  -5.066 -22.194  0.00  0.00    -0.182 NA
ATOM     14  C   UNL     1      32.697  -7.013 -23.004  0.00  0.00    +0.124 C 
ATOM     15  C   UNL     1      32.488  -6.188 -24.082  0.00  0.00    +0.037 C 
ATOM     16  C   UNL     1      31.972  -5.003 -23.523  0.00  0.00    +0.078 C 
ATOM     17  C   UNL     1      32.337  -6.741 -20.532  0.00  0.00    +0.140 C 
ATOM     18  C   UNL     1      31.571  -3.777 -24.234  0.00  0.00    +0.054 C 
ENDBRANCH  10  14
ENDBRANCH   1   9
BRANCH   2  19
ATOM     19  O   UNL     1      34.177 -13.421 -24.732  0.00  0.00    -0.435 OA
BRANCH  19  27
ATOM     20  N   UNL     1      34.326 -18.696 -23.951  0.00  0.00    -0.373 NA
ATOM     21  N   UNL     1      34.805 -16.587 -23.405  0.00  0.00    -0.173 N 
ATOM     22  N   UNL     1      34.857 -15.227 -23.463  0.00  0.00    -0.138 NA
ATOM     23  C   UNL     1      35.058 -18.663 -22.790  0.00  0.00    +0.187 C 
ATOM     24  C   UNL     1      35.366 -17.372 -22.433  0.00  0.00    +0.193 C 
ATOM     25  C   UNL     1      34.184 -17.435 -24.307  0.00  0.00    +0.204 C 
ATOM     26  C   UNL     1      33.529 -16.839 -25.410  0.00  0.00    +0.054 C 
ATOM     27  C   UNL     1      34.240 -14.747 -24.493  0.00  0.00    +0.245 C 
ATOM     28  C   UNL     1      33.530 -15.507 -25.544  0.00  0.00    +0.063 C 
ATOM     29  O   UNL     1      36.634 -18.997 -20.248  0.00  0.00    -0.275 OA
ATOM     30  N   UNL     1      35.416 -19.799 -22.104  0.00  0.00    -0.261 N 
ATOM     31  C   UNL     1      36.159 -19.909 -20.911  0.00  0.00    +0.227 C 
ATOM     32  H   UNL     1      35.113 -20.648 -22.498  0.00  0.00    +0.157 HD
BRANCH  31  33
ATOM     33  C   UNL     1      36.365 -21.314 -20.436  0.00  0.00    +0.077 C 
ATOM     34  C   UNL     1      35.311 -21.957 -19.582  0.00  0.00    +0.010 C 
ATOM     35  C   UNL     1      36.626 -21.560 -18.979  0.00  0.00    +0.010 C 
ENDBRANCH  31  33
ENDBRANCH  19  27
ENDBRANCH   2  19
TORSDOF 5
ENDMDL
MODEL 2
REMARK VINA RESULT:     -11.8      3.591     12.632
REMARK  Name = 24767976
REMARK  5 active torsions:
REMARK  status: ('A' for Active; 'I' for Inactive)
REMARK    1  A    between atoms: C_1  and  N_9
REMARK    2  A    between atoms: C_2  and  O_19
REMARK    3  A    between atoms: C_10  and  C_14
REMARK    4  A    between atoms: O_19  and  C_27
REMARK    5  A    between atoms: C_31  and  C_33
REMARK                            x       y       z     vdW  Elec       q    Type
REMARK                         _______ _______ _______ _____ _____    ______ ____
ROOT
ATOM      1  C   UNL     1      35.172 -22.013 -18.722  0.00  0.00    +0.050 C 
ATOM      2  C   UNL     1      35.652 -20.588 -20.612  0.00  0.00    +0.148 C 
ATOM      3  C   UNL     1      33.809 -21.918 -18.996  0.00  0.00    -0.008 C 
ATOM      4  C   UNL     1      36.095 -21.348 -19.530  0.00  0.00    +0.052 C 
ATOM      5  C   UNL     1      33.366 -21.158 -20.079  0.00  0.00    +0.000 C 
ATOM      6  C   UNL     1      34.288 -20.493 -20.887  0.00  0.00    +0.037 C 
ATOM      7  C   UNL     1      32.798 -22.620 -18.147  0.00  0.00    +0.032 C 
ENDROOT
BRANCH   1   9
ATOM      8  O   UNL     1      37.109 -21.303 -16.545  0.00  0.00    -0.268 OA
ATOM      9  N   UNL     1      35.635 -22.770 -17.642  0.00  0.00    -0.279 N 
ATOM     10  C   UNL     1      36.545 -22.388 -16.650  0.00  0.00    +0.265 C 
ATOM     11  H   UNL     1      35.278 -23.685 -17.571  0.00  0.00    +0.155 HD
BRANCH  10  14
ATOM     12  N   UNL     1      35.964 -24.026 -14.805  0.00  0.00    -0.206 N 
ATOM     13  N   UNL     1      36.507 -24.941 -13.985  0.00  0.00    -0.182 NA
ATOM     14  C   UNL     1      36.864 -23.433 -15.641  0.00  0.00    +0.124 C 
ATOM     15  C   UNL     1      38.080 -24.000 -15.349  0.00  0.00    +0.037 C 
ATOM     16  C   UNL     1      37.800 -24.922 -14.322  0.00  0.00    +0.078 C 
ATOM     17  C   UNL     1      34.545 -23.763 -14.730  0.00  0.00    +0.140 C 
ATOM     18  C   UNL     1      38.749 -25.811 -13.631  0.00  0.00    +0.054 C 
ENDBRANCH  10  14
ENDBRANCH   1   9
BRANCH   2  19
ATOM     19  O   UNL     1      36.573 -19.924 -21.419  0.00  0.00    -0.435 OA
BRANCH  19  27
ATOM     20  N   UNL     1      33.996 -16.620 -24.721  0.00  0.00    -0.373 NA
ATOM     21  N   UNL     1      35.165 -17.085 -22.879  0.00  0.00    -0.173 N 
ATOM     22  N   UNL     1      35.853 -17.792 -21.940  0.00  0.00    -0.138 NA
ATOM     23  C   UNL     1      34.200 -15.477 -23.991  0.00  0.00    +0.187 C 
ATOM     24  C   UNL     1      34.918 -15.737 -22.849  0.00  0.00    +0.193 C 
ATOM     25  C   UNL     1      34.585 -17.579 -24.035  0.00  0.00    +0.204 C 
ATOM     26  C   UNL     1      34.712 -18.967 -24.280  0.00  0.00    +0.054 C 
ATOM     27  C   UNL     1      35.932 -19.052 -22.224  0.00  0.00    +0.245 C 
ATOM     28  C   UNL     1      35.373 -19.738 -23.408  0.00  0.00    +0.063 C 
ATOM     29  O   UNL     1      34.439 -12.777 -22.682  0.00  0.00    -0.275 OA
ATOM     30  N   UNL     1      33.728 -14.248 -24.386  0.00  0.00    -0.261 N 
ATOM     31  C   UNL     1      33.863 -13.002 -23.739  0.00  0.00    +0.227 C 
ATOM     32  H   UNL     1      33.230 -14.235 -25.234  0.00  0.00    +0.157 HD
BRANCH  31  33
ATOM     33  C   UNL     1      33.222 -11.856 -24.457  0.00  0.00    +0.077 C 
ATOM     34  C   UNL     1      34.089 -10.890 -25.210  0.00  0.00    +0.010 C 
ATOM     35  C   UNL     1      33.422 -10.464 -23.934  0.00  0.00    +0.010 C 
ENDBRANCH  31  33
ENDBRANCH  19  27
ENDBRANCH   2  19
TORSDOF 5
ENDMDL
MODEL 3
REMARK VINA RESULT:     -11.5      4.753     12.894
REMARK  Name = 24767976
REMARK  5 active torsions:
REMARK  status: ('A' for Active; 'I' for Inactive)
REMARK    1  A    between atoms: C_1  and  N_9
REMARK    2  A    between atoms: C_2  and  O_19
REMARK    3  A    between atoms: C_10  and  C_14
REMARK    4  A    between atoms: O_19  and  C_27
REMARK    5  A    between atoms: C_31  and  C_33
REMARK                            x       y       z     vdW  Elec       q    Type
REMARK                         _______ _______ _______ _____ _____    ______ ____
ROOT
ATOM      1  C   UNL     1      34.824 -22.416 -18.388  0.00  0.00    +0.050 C 
ATOM      2  C   UNL     1      35.219 -21.179 -20.424  0.00  0.00    +0.148 C 
ATOM      3  C   UNL     1      33.454 -22.188 -18.514  0.00  0.00    -0.008 C 
ATOM      4  C   UNL     1      35.707 -21.912 -19.343  0.00  0.00    +0.052 C 
ATOM      5  C   UNL     1      32.966 -21.455 -19.596  0.00  0.00    +0.000 C 
ATOM      6  C   UNL     1      33.849 -20.950 -20.551  0.00  0.00    +0.037 C 
ATOM      7  C   UNL     1      32.486 -22.716 -17.505  0.00  0.00    +0.032 C 
ENDROOT
BRANCH   1   9
ATOM      8  O   UNL     1      36.647 -21.577 -16.160  0.00  0.00    -0.268 OA
ATOM      9  N   UNL     1      35.332 -23.149 -17.312  0.00  0.00    -0.279 N 
ATOM     10  C   UNL     1      36.185 -22.705 -16.294  0.00  0.00    +0.265 C 
ATOM     11  H   UNL     1      35.057 -24.093 -17.264  0.00  0.00    +0.155 HD
BRANCH  10  14
ATOM     12  N   UNL     1      35.733 -24.343 -14.413  0.00  0.00    -0.206 N 
ATOM     13  N   UNL     1      36.337 -25.241 -13.617  0.00  0.00    -0.182 NA
ATOM     14  C   UNL     1      36.576 -23.736 -15.297  0.00  0.00    +0.124 C 
ATOM     15  C   UNL     1      37.818 -24.275 -15.063  0.00  0.00    +0.037 C 
ATOM     16  C   UNL     1      37.610 -25.196 -14.018  0.00  0.00    +0.078 C 
ATOM     17  C   UNL     1      34.314 -24.111 -14.269  0.00  0.00    +0.140 C 
ATOM     18  C   UNL     1      38.612 -26.059 -13.371  0.00  0.00    +0.054 C 
ENDBRANCH  10  14
ENDBRANCH   1   9
BRANCH   2  19
ATOM     19  O   UNL     1      36.099 -20.675 -21.378  0.00  0.00    -0.435 OA
BRANCH  19  27
ATOM     20  N   UNL     1      34.734 -15.651 -22.541  0.00  0.00    -0.373 NA
ATOM     21  N   UNL     1      34.979 -17.814 -23.031  0.00  0.00    -0.173 N 
ATOM     22  N   UNL     1      35.280 -19.135 -22.891  0.00  0.00    -0.138 NA
ATOM     23  C   UNL     1      34.334 -15.891 -23.831  0.00  0.00    +0.187 C 
ATOM     24  C   UNL     1      34.477 -17.218 -24.158  0.00  0.00    +0.193 C 
ATOM     25  C   UNL     1      35.119 -16.822 -22.074  0.00  0.00    +0.204 C 
ATOM     26  C   UNL     1      35.630 -17.208 -20.812  0.00  0.00    +0.054 C 
ATOM     27  C   UNL     1      35.741 -19.420 -21.717  0.00  0.00    +0.245 C 
ATOM     28  C   UNL     1      35.952 -18.488 -20.589  0.00  0.00    +0.063 C 
ATOM     29  O   UNL     1      33.374 -16.019 -26.681  0.00  0.00    -0.275 OA
ATOM     30  N   UNL     1      33.859 -14.902 -24.659  0.00  0.00    -0.261 N 
ATOM     31  C   UNL     1      33.418 -15.007 -25.994  0.00  0.00    +0.227 C 
ATOM     32  H   UNL     1      33.821 -14.000 -24.267  0.00  0.00    +0.157 HD
BRANCH  31  33
ATOM     33  C   UNL     1      32.959 -13.717 -26.600  0.00  0.00    +0.077 C 
ATOM     34  C   UNL     1      33.978 -12.785 -27.189  0.00  0.00    +0.010 C 
ATOM     35  C   UNL     1      33.288 -12.428 -25.905  0.00  0.00    +0.010 C 
ENDBRANCH  31  33
ENDBRANCH  19  27
ENDBRANCH   2  19
TORSDOF 5
ENDMDL
MODEL 4
REMARK VINA RESULT:     -11.3      3.053      6.364
REMARK  Name = 24767976
REMARK  5 active torsions:
REMARK  status: ('A' for Active; 'I' for Inactive)
REMARK    1  A    between atoms: C_1  and  N_9
REMARK    2  A    between atoms: C_2  and  O_19
REMARK    3  A    between atoms: C_10  and  C_14
REMARK    4  A    between atoms: O_19  and  C_27
REMARK    5  A    between atoms: C_31  and  C_33
REMARK                            x       y       z     vdW  Elec       q    Type
REMARK                         _______ _______ _______ _____ _____    ______ ____
ROOT
ATOM      1  C   UNL     1      34.364 -16.655 -24.019  0.00  0.00    +0.050 C 
ATOM      2  C   UNL     1      35.479 -18.595 -23.111  0.00  0.00    +0.148 C 
ATOM      3  C   UNL     1      33.909 -17.419 -25.094  0.00  0.00    -0.008 C 
ATOM      4  C   UNL     1      35.149 -17.243 -23.028  0.00  0.00    +0.052 C 
ATOM      5  C   UNL     1      34.239 -18.772 -25.177  0.00  0.00    +0.000 C 
ATOM      6  C   UNL     1      35.025 -19.360 -24.185  0.00  0.00    +0.037 C 
ATOM      7  C   UNL     1      33.067 -16.815 -26.171  0.00  0.00    +0.032 C 
ENDROOT
BRANCH   1   9
ATOM      8  O   UNL     1      34.625 -14.769 -21.703  0.00  0.00    -0.268 OA
ATOM      9  N   UNL     1      34.043 -15.299 -23.918  0.00  0.00    -0.279 N 
ATOM     10  C   UNL     1      34.185 -14.461 -22.806  0.00  0.00    +0.265 C 
ATOM     11  H   UNL     1      33.669 -14.882 -24.729  0.00  0.00    +0.155 HD
BRANCH  10  14
ATOM     12  N   UNL     1      32.721 -12.454 -22.305  0.00  0.00    -0.206 N 
ATOM     13  N   UNL     1      32.498 -11.181 -22.673  0.00  0.00    -0.182 NA
ATOM     14  C   UNL     1      33.725 -13.061 -23.001  0.00  0.00    +0.124 C 
ATOM     15  C   UNL     1      34.191 -12.120 -23.885  0.00  0.00    +0.037 C 
ATOM     16  C   UNL     1      33.399 -10.982 -23.638  0.00  0.00    +0.078 C 
ATOM     17  C   UNL     1      31.915 -13.038 -21.257  0.00  0.00    +0.140 C 
ATOM     18  C   UNL     1      33.475  -9.674 -24.310  0.00  0.00    +0.054 C 
ENDBRANCH  10  14
ENDBRANCH   1   9
BRANCH   2  19
ATOM     19  O   UNL     1      36.263 -19.183 -22.121  0.00  0.00    -0.435 OA
BRANCH  19  27
ATOM     20  N   UNL     1      33.043 -22.022 -18.955  0.00  0.00    -0.373 NA
ATOM     21  N   UNL     1      35.038 -21.263 -19.601  0.00  0.00    -0.173 N 
ATOM     22  N   UNL     1      35.987 -20.594 -20.314  0.00  0.00    -0.138 NA
ATOM     23  C   UNL     1      34.025 -22.516 -18.133  0.00  0.00    +0.187 C 
ATOM     24  C   UNL     1      35.265 -22.062 -18.512  0.00  0.00    +0.193 C 
ATOM     25  C   UNL     1      33.673 -21.269 -19.834  0.00  0.00    +0.204 C 
ATOM     26  C   UNL     1      33.199 -20.503 -20.925  0.00  0.00    +0.054 C 
ATOM     27  C   UNL     1      35.488 -19.914 -21.295  0.00  0.00    +0.245 C 
ATOM     28  C   UNL     1      34.064 -19.813 -21.679  0.00  0.00    +0.063 C 
ATOM     29  O   UNL     1      35.878 -23.789 -16.132  0.00  0.00    -0.275 OA
ATOM     30  N   UNL     1      33.759 -23.355 -17.077  0.00  0.00    -0.261 N 
ATOM     31  C   UNL     1      34.663 -23.931 -16.161  0.00  0.00    +0.227 C 
ATOM     32  H   UNL     1      32.812 -23.584 -16.943  0.00  0.00    +0.157 HD
BRANCH  31  33
ATOM     33  C   UNL     1      34.024 -24.803 -15.124  0.00  0.00    +0.077 C 
ATOM     34  C   UNL     1      33.135 -24.175 -14.091  0.00  0.00    +0.010 C 
ATOM     35  C   UNL     1      34.486 -24.699 -13.700  0.00  0.00    +0.010 C 
ENDBRANCH  31  33
ENDBRANCH  19  27
ENDBRANCH   2  19
TORSDOF 5
ENDMDL
MODEL 5
REMARK VINA RESULT:     -11.0      4.610      9.567
REMARK  Name = 24767976
REMARK  5 active torsions:
REMARK  status: ('A' for Active; 'I' for Inactive)
REMARK    1  A    between atoms: C_1  and  N_9
REMARK    2  A    between atoms: C_2  and  O_19
REMARK    3  A    between atoms: C_10  and  C_14
REMARK    4  A    between atoms: O_19  and  C_27
REMARK    5  A    between atoms: C_31  and  C_33
REMARK                            x       y       z     vdW  Elec       q    Type
REMARK                         _______ _______ _______ _____ _____    ______ ____
ROOT
ATOM      1  C   UNL     1      35.092 -19.427 -21.188  0.00  0.00    +0.050 C 
ATOM      2  C   UNL     1      34.200 -21.373 -20.068  0.00  0.00    +0.148 C 
ATOM      3  C   UNL     1      36.387 -19.897 -20.974  0.00  0.00    -0.008 C 
ATOM      4  C   UNL     1      33.998 -20.165 -20.735  0.00  0.00    +0.052 C 
ATOM      5  C   UNL     1      36.589 -21.106 -20.306  0.00  0.00    +0.000 C 
ATOM      6  C   UNL     1      35.495 -21.843 -19.854  0.00  0.00    +0.037 C 
ATOM      7  C   UNL     1      37.578 -19.128 -21.448  0.00  0.00    +0.032 C 
ENDROOT
BRANCH   1   9
ATOM      8  O   UNL     1      35.333 -16.602 -20.214  0.00  0.00    -0.268 OA
ATOM      9  N   UNL     1      34.869 -18.220 -21.855  0.00  0.00    -0.279 N 
ATOM     10  C   UNL     1      34.997 -16.921 -21.350  0.00  0.00    +0.265 C 
ATOM     11  H   UNL     1      34.587 -18.292 -22.796  0.00  0.00    +0.155 HD
BRANCH  10  14
ATOM     12  N   UNL     1      34.605 -15.956 -23.661  0.00  0.00    -0.206 N 
ATOM     13  N   UNL     1      34.277 -14.819 -24.298  0.00  0.00    -0.182 NA
ATOM     14  C   UNL     1      34.660 -15.831 -22.304  0.00  0.00    +0.124 C 
ATOM     15  C   UNL     1      34.346 -14.522 -22.034  0.00  0.00    +0.037 C 
ATOM     16  C   UNL     1      34.119 -13.947 -23.299  0.00  0.00    +0.078 C 
ATOM     17  C   UNL     1      34.859 -17.150 -24.433  0.00  0.00    +0.140 C 
ATOM     18  C   UNL     1      33.747 -12.554 -23.597  0.00  0.00    +0.054 C 
ENDBRANCH  10  14
ENDBRANCH   1   9
BRANCH   2  19
ATOM     19  O   UNL     1      33.108 -22.109 -19.615  0.00  0.00    -0.435 OA
BRANCH  19  27
ATOM     20  N   UNL     1      33.887 -23.980 -14.681  0.00  0.00    -0.373 NA
ATOM     21  N   UNL     1      34.588 -23.225 -16.659  0.00  0.00    -0.173 N 
ATOM     22  N   UNL     1      34.558 -22.741 -17.932  0.00  0.00    -0.138 NA
ATOM     23  C   UNL     1      35.259 -23.959 -14.719  0.00  0.00    +0.187 C 
ATOM     24  C   UNL     1      35.716 -23.497 -15.930  0.00  0.00    +0.193 C 
ATOM     25  C   UNL     1      33.501 -23.534 -15.859  0.00  0.00    +0.204 C 
ATOM     26  C   UNL     1      32.214 -23.331 -16.411  0.00  0.00    +0.054 C 
ATOM     27  C   UNL     1      33.353 -22.579 -18.376  0.00  0.00    +0.245 C 
ATOM     28  C   UNL     1      32.092 -22.858 -17.658  0.00  0.00    +0.063 C 
ATOM     29  O   UNL     1      38.252 -24.056 -14.422  0.00  0.00    -0.275 OA
ATOM     30  N   UNL     1      36.038 -24.358 -13.660  0.00  0.00    -0.261 N 
ATOM     31  C   UNL     1      37.445 -24.388 -13.563  0.00  0.00    +0.227 C 
ATOM     32  H   UNL     1      35.550 -24.663 -12.863  0.00  0.00    +0.157 HD
BRANCH  31  33
ATOM     33  C   UNL     1      37.967 -24.882 -12.250  0.00  0.00    +0.077 C 
ATOM     34  C   UNL     1      37.751 -26.319 -11.874  0.00  0.00    +0.010 C 
ATOM     35  C   UNL     1      36.993 -25.235 -11.165  0.00  0.00    +0.010 C 
ENDBRANCH  31  33
ENDBRANCH  19  27
ENDBRANCH   2  19
TORSDOF 5
ENDMDL
MODEL 6
REMARK VINA RESULT:     -10.3      4.844     13.589
REMARK  Name = 24767976
REMARK  5 active torsions:
REMARK  status: ('A' for Active; 'I' for Inactive)
REMARK    1  A    between atoms: C_1  and  N_9
REMARK    2  A    between atoms: C_2  and  O_19
REMARK    3  A    between atoms: C_10  and  C_14
REMARK    4  A    between atoms: O_19  and  C_27
REMARK    5  A    between atoms: C_31  and  C_33
REMARK                            x       y       z     vdW  Elec       q    Type
REMARK                         _______ _______ _______ _____ _____    ______ ____
ROOT
ATOM      1  C   UNL     1      35.259 -22.861 -16.829  0.00  0.00    +0.050 C 
ATOM      2  C   UNL     1      35.973 -21.858 -18.906  0.00  0.00    +0.148 C 
ATOM      3  C   UNL     1      33.972 -23.012 -17.344  0.00  0.00    -0.008 C 
ATOM      4  C   UNL     1      36.260 -22.284 -17.610  0.00  0.00    +0.052 C 
ATOM      5  C   UNL     1      33.685 -22.585 -18.641  0.00  0.00    +0.000 C 
ATOM      6  C   UNL     1      34.686 -22.008 -19.422  0.00  0.00    +0.037 C 
ATOM      7  C   UNL     1      32.880 -23.627 -16.529  0.00  0.00    +0.032 C 
ENDROOT
BRANCH   1   9
ATOM      8  O   UNL     1      35.895 -25.598 -15.781  0.00  0.00    -0.268 OA
ATOM      9  N   UNL     1      35.566 -23.283 -15.533  0.00  0.00    -0.279 N 
ATOM     10  C   UNL     1      35.856 -24.581 -15.096  0.00  0.00    +0.265 C 
ATOM     11  H   UNL     1      35.579 -22.581 -14.841  0.00  0.00    +0.155 HD
BRANCH  10  14
ATOM     12  N   UNL     1      37.298 -25.108 -13.079  0.00  0.00    -0.206 N 
ATOM     13  N   UNL     1      37.274 -25.153 -11.736  0.00  0.00    -0.182 NA
ATOM     14  C   UNL     1      36.116 -24.718 -13.638  0.00  0.00    +0.124 C 
ATOM     15  C   UNL     1      35.260 -24.493 -12.589  0.00  0.00    +0.037 C 
ATOM     16  C   UNL     1      36.027 -24.776 -11.442  0.00  0.00    +0.078 C 
ATOM     17  C   UNL     1      38.514 -25.459 -13.776  0.00  0.00    +0.140 C 
ATOM     18  C   UNL     1      35.599 -24.698 -10.035  0.00  0.00    +0.054 C 
ENDBRANCH  10  14
ENDBRANCH   1   9
BRANCH   2  19
ATOM     19  O   UNL     1      36.972 -21.281 -19.687  0.00  0.00    -0.435 OA
BRANCH  19  27
ATOM     20  N   UNL     1      34.785 -17.978 -23.260  0.00  0.00    -0.373 NA
ATOM     21  N   UNL     1      35.752 -18.440 -21.303  0.00  0.00    -0.173 N 
ATOM     22  N   UNL     1      36.332 -19.147 -20.294  0.00  0.00    -0.138 NA
ATOM     23  C   UNL     1      34.923 -16.832 -22.520  0.00  0.00    +0.187 C 
ATOM     24  C   UNL     1      35.517 -17.090 -21.308  0.00  0.00    +0.193 C 
ATOM     25  C   UNL     1      35.290 -18.938 -22.510  0.00  0.00    +0.204 C 
ATOM     26  C   UNL     1      35.429 -20.328 -22.732  0.00  0.00    +0.054 C 
ATOM     27  C   UNL     1      36.428 -20.409 -20.559  0.00  0.00    +0.245 C 
ATOM     28  C   UNL     1      35.988 -21.099 -21.791  0.00  0.00    +0.063 C 
ATOM     29  O   UNL     1      35.052 -14.125 -21.210  0.00  0.00    -0.275 OA
ATOM     30  N   UNL     1      34.507 -15.601 -22.970  0.00  0.00    -0.261 N 
ATOM     31  C   UNL     1      34.587 -14.352 -22.319  0.00  0.00    +0.227 C 
ATOM     32  H   UNL     1      34.100 -15.590 -23.865  0.00  0.00    +0.157 HD
BRANCH  31  33
ATOM     33  C   UNL     1      34.034 -13.206 -23.108  0.00  0.00    +0.077 C 
ATOM     34  C   UNL     1      32.553 -12.967 -23.108  0.00  0.00    +0.010 C 
ATOM     35  C   UNL     1      33.229 -13.490 -24.341  0.00  0.00    +0.010 C 
ENDBRANCH  31  33
ENDBRANCH  19  27
ENDBRANCH   2  19
TORSDOF 5
ENDMDL
MODEL 7
REMARK VINA RESULT:      -9.9      3.213      6.859
REMARK  Name = 24767976
REMARK  5 active torsions:
REMARK  status: ('A' for Active; 'I' for Inactive)
REMARK    1  A    between atoms: C_1  and  N_9
REMARK    2  A    between atoms: C_2  and  O_19
REMARK    3  A    between atoms: C_10  and  C_14
REMARK    4  A    between atoms: O_19  and  C_27
REMARK    5  A    between atoms: C_31  and  C_33
REMARK                            x       y       z     vdW  Elec       q    Type
REMARK                         _______ _______ _______ _____ _____    ______ ____
ROOT
ATOM      1  C   UNL     1      34.861 -16.938 -23.810  0.00  0.00    +0.050 C 
ATOM      2  C   UNL     1      36.071 -18.590 -22.528  0.00  0.00    +0.148 C 
ATOM      3  C   UNL     1      34.253 -17.954 -24.546  0.00  0.00    -0.008 C 
ATOM      4  C   UNL     1      35.770 -17.256 -22.800  0.00  0.00    +0.052 C 
ATOM      5  C   UNL     1      34.554 -19.289 -24.273  0.00  0.00    +0.000 C 
ATOM      6  C   UNL     1      35.463 -19.607 -23.264  0.00  0.00    +0.037 C 
ATOM      7  C   UNL     1      33.276 -17.643 -25.634  0.00  0.00    +0.032 C 
ENDROOT
BRANCH   1   9
ATOM      8  O   UNL     1      33.934 -14.766 -21.963  0.00  0.00    -0.268 OA
ATOM      9  N   UNL     1      34.572 -15.596 -24.068  0.00  0.00    -0.279 N 
ATOM     10  C   UNL     1      34.140 -14.619 -23.163  0.00  0.00    +0.265 C 
ATOM     11  H   UNL     1      34.686 -15.300 -25.001  0.00  0.00    +0.155 HD
BRANCH  10  14
ATOM     12  N   UNL     1      33.455 -13.036 -25.020  0.00  0.00    -0.206 N 
ATOM     13  N   UNL     1      33.304 -11.731 -25.304  0.00  0.00    -0.182 NA
ATOM     14  C   UNL     1      33.887 -13.276 -23.749  0.00  0.00    +0.124 C 
ATOM     15  C   UNL     1      34.029 -12.043 -23.161  0.00  0.00    +0.037 C 
ATOM     16  C   UNL     1      33.656 -11.130 -24.165  0.00  0.00    +0.078 C 
ATOM     17  C   UNL     1      33.161 -14.019 -26.037  0.00  0.00    +0.140 C 
ATOM     18  C   UNL     1      33.622  -9.660 -24.073  0.00  0.00    +0.054 C 
ENDBRANCH  10  14
ENDBRANCH   1   9
BRANCH   2  19
ATOM     19  O   UNL     1      36.978 -18.908 -21.520  0.00  0.00    -0.435 OA
BRANCH  19  27
ATOM     20  N   UNL     1      34.674 -22.497 -18.317  0.00  0.00    -0.373 NA
ATOM     21  N   UNL     1      36.378 -21.217 -18.975  0.00  0.00    -0.173 N 
ATOM     22  N   UNL     1      37.104 -20.317 -19.696  0.00  0.00    -0.138 NA
ATOM     23  C   UNL     1      35.753 -22.686 -17.491  0.00  0.00    +0.187 C 
ATOM     24  C   UNL     1      36.817 -21.908 -17.876  0.00  0.00    +0.193 C 
ATOM     25  C   UNL     1      35.070 -21.608 -19.206  0.00  0.00    +0.204 C 
ATOM     26  C   UNL     1      34.403 -21.018 -20.306  0.00  0.00    +0.054 C 
ATOM     27  C   UNL     1      36.437 -19.817 -20.685  0.00  0.00    +0.245 C 
ATOM     28  C   UNL     1      35.043 -20.123 -21.069  0.00  0.00    +0.063 C 
ATOM     29  O   UNL     1      37.883 -23.365 -15.476  0.00  0.00    -0.275 OA
ATOM     30  N   UNL     1      35.730 -23.554 -16.424  0.00  0.00    -0.261 N 
ATOM     31  C   UNL     1      36.756 -23.843 -15.502  0.00  0.00    +0.227 C 
ATOM     32  H   UNL     1      34.884 -24.037 -16.286  0.00  0.00    +0.157 HD
BRANCH  31  33
ATOM     33  C   UNL     1      36.385 -24.846 -14.454  0.00  0.00    +0.077 C 
ATOM     34  C   UNL     1      37.203 -26.097 -14.320  0.00  0.00    +0.010 C 
ATOM     35  C   UNL     1      35.812 -26.166 -14.879  0.00  0.00    +0.010 C 
ENDBRANCH  31  33
ENDBRANCH  19  27
ENDBRANCH   2  19
TORSDOF 5
ENDMDL
MODEL 8
REMARK VINA RESULT:      -9.7      6.806     14.376
REMARK  Name = 24767976
REMARK  5 active torsions:
REMARK  status: ('A' for Active; 'I' for Inactive)
REMARK    1  A    between atoms: C_1  and  N_9
REMARK    2  A    between atoms: C_2  and  O_19
REMARK    3  A    between atoms: C_10  and  C_14
REMARK    4  A    between atoms: O_19  and  C_27
REMARK    5  A    between atoms: C_31  and  C_33
REMARK                            x       y       z     vdW  Elec       q    Type
REMARK                         _______ _______ _______ _____ _____    ______ ____
ROOT
ATOM      1  C   UNL     1      34.179 -24.173 -14.914  0.00  0.00    +0.050 C 
ATOM      2  C   UNL     1      32.574 -23.569 -16.614  0.00  0.00    +0.148 C 
ATOM      3  C   UNL     1      33.295 -23.742 -13.926  0.00  0.00    -0.008 C 
ATOM      4  C   UNL     1      33.818 -24.087 -16.259  0.00  0.00    +0.052 C 
ATOM      5  C   UNL     1      32.049 -23.224 -14.282  0.00  0.00    +0.000 C 
ATOM      6  C   UNL     1      31.689 -23.137 -15.627  0.00  0.00    +0.037 C 
ATOM      7  C   UNL     1      33.655 -23.823 -12.477  0.00  0.00    +0.032 C 
ENDROOT
BRANCH   1   9
ATOM      8  O   UNL     1      36.886 -22.884 -14.928  0.00  0.00    -0.268 OA
ATOM      9  N   UNL     1      35.430 -24.696 -14.578  0.00  0.00    -0.279 N 
ATOM     10  C   UNL     1      36.669 -24.047 -14.603  0.00  0.00    +0.265 C 
ATOM     11  H   UNL     1      35.441 -25.638 -14.288  0.00  0.00    +0.155 HD
BRANCH  10  14
ATOM     12  N   UNL     1      37.975 -25.542 -13.026  0.00  0.00    -0.206 N 
ATOM     13  N   UNL     1      39.124 -26.230 -12.920  0.00  0.00    -0.182 NA
ATOM     14  C   UNL     1      37.835 -24.884 -14.213  0.00  0.00    +0.124 C 
ATOM     15  C   UNL     1      38.971 -25.161 -14.932  0.00  0.00    +0.037 C 
ATOM     16  C   UNL     1      39.728 -25.994 -14.087  0.00  0.00    +0.078 C 
ATOM     17  C   UNL     1      37.036 -25.559 -11.928  0.00  0.00    +0.140 C 
ATOM     18  C   UNL     1      41.046 -26.591 -14.362  0.00  0.00    +0.054 C 
ENDBRANCH  10  14
ENDBRANCH   1   9
BRANCH   2  19
ATOM     19  O   UNL     1      32.213 -23.481 -17.957  0.00  0.00    -0.435 OA
BRANCH  19  27
ATOM     20  N   UNL     1      35.801 -20.418 -20.446  0.00  0.00    -0.373 NA
ATOM     21  N   UNL     1      33.752 -21.252 -20.155  0.00  0.00    -0.173 N 
ATOM     22  N   UNL     1      32.724 -21.976 -19.632  0.00  0.00    -0.138 NA
ATOM     23  C   UNL     1      34.944 -19.906 -21.388  0.00  0.00    +0.187 C 
ATOM     24  C   UNL     1      33.675 -20.406 -21.231  0.00  0.00    +0.193 C 
ATOM     25  C   UNL     1      35.064 -21.227 -19.712  0.00  0.00    +0.204 C 
ATOM     26  C   UNL     1      35.385 -22.036 -18.596  0.00  0.00    +0.054 C 
ATOM     27  C   UNL     1      33.084 -22.692 -18.616  0.00  0.00    +0.245 C 
ATOM     28  C   UNL     1      34.434 -22.781 -18.019  0.00  0.00    +0.063 C 
ATOM     29  O   UNL     1      33.388 -18.577 -23.595  0.00  0.00    -0.275 OA
ATOM     30  N   UNL     1      35.347 -19.011 -22.351  0.00  0.00    -0.261 N 
ATOM     31  C   UNL     1      34.580 -18.411 -23.371  0.00  0.00    +0.227 C 
ATOM     32  H   UNL     1      36.296 -18.754 -22.324  0.00  0.00    +0.157 HD
BRANCH  31  33
ATOM     33  C   UNL     1      35.344 -17.472 -24.252  0.00  0.00    +0.077 C 
ATOM     34  C   UNL     1      35.012 -16.009 -24.220  0.00  0.00    +0.010 C 
ATOM     35  C   UNL     1      34.647 -16.835 -25.418  0.00  0.00    +0.010 C 
ENDBRANCH  31  33
ENDBRANCH  19  27
ENDBRANCH   2  19
TORSDOF 5
ENDMDL
MODEL 9
REMARK VINA RESULT:      -9.2      5.792     13.848
REMARK  Name = 24767976
REMARK  5 active torsions:
REMARK  status: ('A' for Active; 'I' for Inactive)
REMARK    1  A    between atoms: C_1  and  N_9
REMARK    2  A    between atoms: C_2  and  O_19
REMARK    3  A    between atoms: C_10  and  C_14
REMARK    4  A    between atoms: O_19  and  C_27
REMARK    5  A    between atoms: C_31  and  C_33
REMARK                            x       y       z     vdW  Elec       q    Type
REMARK                         _______ _______ _______ _____ _____    ______ ____
ROOT
ATOM      1  C   UNL     1      34.122 -23.268 -16.097  0.00  0.00    +0.050 C 
ATOM      2  C   UNL     1      34.404 -23.082 -18.488  0.00  0.00    +0.148 C 
ATOM      3  C   UNL     1      32.786 -22.889 -16.225  0.00  0.00    -0.008 C 
ATOM      4  C   UNL     1      34.931 -23.365 -17.229  0.00  0.00    +0.052 C 
ATOM      5  C   UNL     1      32.259 -22.606 -17.485  0.00  0.00    +0.000 C 
ATOM      6  C   UNL     1      33.069 -22.703 -18.617  0.00  0.00    +0.037 C 
ATOM      7  C   UNL     1      31.896 -22.777 -15.029  0.00  0.00    +0.032 C 
ENDROOT
BRANCH   1   9
ATOM      8  O   UNL     1      35.792 -25.590 -15.198  0.00  0.00    -0.268 OA
ATOM      9  N   UNL     1      34.668 -23.556 -14.843  0.00  0.00    -0.279 N 
ATOM     10  C   UNL     1      35.444 -24.662 -14.476  0.00  0.00    +0.265 C 
ATOM     11  H   UNL     1      34.483 -22.902 -14.131  0.00  0.00    +0.155 HD
BRANCH  10  14
ATOM     12  N   UNL     1      37.144 -24.746 -12.598  0.00  0.00    -0.206 N 
ATOM     13  N   UNL     1      37.249 -24.778 -11.259  0.00  0.00    -0.182 NA
ATOM     14  C   UNL     1      35.857 -24.703 -13.048  0.00  0.00    +0.124 C 
ATOM     15  C   UNL     1      35.066 -24.707 -11.926  0.00  0.00    +0.037 C 
ATOM     16  C   UNL     1      35.977 -24.754 -10.854  0.00  0.00    +0.078 C 
ATOM     17  C   UNL     1      38.345 -24.760 -13.402  0.00  0.00    +0.140 C 
ATOM     18  C   UNL     1      35.667 -24.777  -9.414  0.00  0.00    +0.054 C 
ENDBRANCH  10  14
ENDBRANCH   1   9
BRANCH   2  19
ATOM     19  O   UNL     1      35.212 -23.178 -19.619  0.00  0.00    -0.435 OA
BRANCH  19  27
ATOM     20  N   UNL     1      36.323 -18.291 -21.445  0.00  0.00    -0.373 NA
ATOM     21  N   UNL     1      35.197 -20.216 -21.462  0.00  0.00    -0.173 N 
ATOM     22  N   UNL     1      34.795 -21.471 -21.117  0.00  0.00    -0.138 NA
ATOM     23  C   UNL     1      35.390 -18.282 -22.450  0.00  0.00    +0.187 C 
ATOM     24  C   UNL     1      34.682 -19.459 -22.482  0.00  0.00    +0.193 C 
ATOM     25  C   UNL     1      36.193 -19.465 -20.860  0.00  0.00    +0.204 C 
ATOM     26  C   UNL     1      36.875 -20.052 -19.769  0.00  0.00    +0.054 C 
ATOM     27  C   UNL     1      35.458 -21.949 -20.114  0.00  0.00    +0.245 C 
ATOM     28  C   UNL     1      36.544 -21.284 -19.363  0.00  0.00    +0.063 C 
ATOM     29  O   UNL     1      33.476 -17.888 -24.740  0.00  0.00    -0.275 OA
ATOM     30  N   UNL     1      35.217 -17.212 -23.295  0.00  0.00    -0.261 N 
ATOM     31  C   UNL     1      34.304 -17.069 -24.361  0.00  0.00    +0.227 C 
ATOM     32  H   UNL     1      35.809 -16.443 -23.136  0.00  0.00    +0.157 HD
BRANCH  31  33
ATOM     33  C   UNL     1      34.387 -15.758 -25.078  0.00  0.00    +0.077 C 
ATOM     34  C   UNL     1      33.331 -14.721 -24.826  0.00  0.00    +0.010 C 
ATOM     35  C   UNL     1      33.376 -15.443 -26.141  0.00  0.00    +0.010 C 
ENDBRANCH  31  33
ENDBRANCH  19  27
ENDBRANCH   2  19
TORSDOF 5
ENDMDL
