MODEL 1
REMARK VINA RESULT:     -11.3      0.000      0.000
REMARK  Name = 21302490
REMARK  5 active torsions:
REMARK  status: ('A' for Active; 'I' for Inactive)
REMARK    1  A    between atoms: N_2  and  C_19
REMARK    2  A    between atoms: C_19  and  C_20
REMARK    3  A    between atoms: C_20  and  C_21
REMARK    4  A    between atoms: C_21  and  C_23
REMARK    5  A    between atoms: C_23  and  C_25
REMARK                            x       y       z     vdW  Elec       q    Type
REMARK                         _______ _______ _______ _____ _____    ______ ____
ROOT
ATOM      1  N   UNL     1      33.077 -11.295 -23.216  0.00  0.00    -0.307 N 
ATOM      2  N   UNL     1      33.769 -14.823 -21.915  0.00  0.00    +0.387 N 
ATOM      3  N   UNL     1      33.179  -8.475 -22.757  0.00  0.00    -0.303 N 
ATOM      4  C   UNL     1      32.407 -12.601 -23.270  0.00  0.00    +0.073 C 
ATOM      5  C   UNL     1      32.106 -12.976 -21.782  0.00  0.00    +0.021 C 
ATOM      6  C   UNL     1      33.215 -13.662 -24.008  0.00  0.00    -0.003 C 
ATOM      7  C   UNL     1      33.247 -13.734 -21.085  0.00  0.00    -0.071 C 
ATOM      8  C   UNL     1      31.965 -11.603 -21.190  0.00  0.00    -0.008 C 
ATOM      9  C   UNL     1      32.558 -10.682 -22.058  0.00  0.00    +0.057 C 
ATOM     10  C   UNL     1      34.325 -14.281 -23.163  0.00  0.00    -0.076 C 
ATOM     11  C   UNL     1      33.245 -10.397 -24.339  0.00  0.00    +0.112 C 
ATOM     12  C   UNL     1      32.611  -9.313 -21.805  0.00  0.00    +0.061 C 
ATOM     13  C   UNL     1      33.924  -9.103 -23.859  0.00  0.00    +0.112 C 
ATOM     14  C   UNL     1      31.406 -11.188 -20.000  0.00  0.00    -0.003 C 
ATOM     15  C   UNL     1      32.032  -8.899 -20.598  0.00  0.00    +0.016 C 
ATOM     16  C   UNL     1      31.442  -9.823 -19.709  0.00  0.00    +0.001 C 
ATOM     17  C   UNL     1      33.381  -7.062 -22.493  0.00  0.00    +0.112 C 
ATOM     18  H   UNL     1      33.005 -15.461 -22.143  0.00  0.00    -0.080 HD
ENDROOT
BRANCH   2  19
ATOM     19  C   UNL     1      34.795 -15.571 -21.187  0.00  0.00    -0.077 C 
BRANCH  19  20
ATOM     20  C   UNL     1      35.344 -16.703 -22.058  0.00  0.00    -0.015 C 
BRANCH  20  21
ATOM     21  C   UNL     1      35.714 -17.942 -21.237  0.00  0.00    +0.067 C 
BRANCH  21  23
ATOM     22  O   UNL     1      34.854 -19.396 -22.960  0.00  0.00    -0.291 OA
ATOM     23  C   UNL     1      35.090 -19.225 -21.767  0.00  0.00    +0.173 C 
BRANCH  23  25
ATOM     24  F   UNL     1      33.910 -23.339 -18.125  0.00  0.00    -0.204 F 
ATOM     25  C   UNL     1      34.777 -20.318 -20.801  0.00  0.00    +0.035 C 
ATOM     26  C   UNL     1      35.812 -21.025 -20.190  0.00  0.00    +0.005 C 
ATOM     27  C   UNL     1      33.450 -20.630 -20.508  0.00  0.00    +0.005 C 
ATOM     28  C   UNL     1      35.519 -22.046 -19.286  0.00  0.00    +0.030 C 
ATOM     29  C   UNL     1      33.156 -21.651 -19.605  0.00  0.00    +0.030 C 
ATOM     30  C   UNL     1      34.191 -22.359 -18.993  0.00  0.00    +0.140 C 
ENDBRANCH  23  25
ENDBRANCH  21  23
ENDBRANCH  20  21
ENDBRANCH  19  20
ENDBRANCH   2  19
TORSDOF 5
ENDMDL
MODEL 2
REMARK VINA RESULT:     -11.0      3.387      5.908
REMARK  Name = 21302490
REMARK  5 active torsions:
REMARK  status: ('A' for Active; 'I' for Inactive)
REMARK    1  A    between atoms: N_2  and  C_19
REMARK    2  A    between atoms: C_19  and  C_20
REMARK    3  A    between atoms: C_20  and  C_21
REMARK    4  A    between atoms: C_21  and  C_23
REMARK    5  A    between atoms: C_23  and  C_25
REMARK                            x       y       z     vdW  Elec       q    Type
REMARK                         _______ _______ _______ _____ _____    ______ ____
ROOT
ATOM      1  N   UNL     1      32.158  -6.483 -22.213  0.00  0.00    -0.307 N 
ATOM      2  N   UNL     1      33.049 -10.185 -22.560  0.00  0.00    +0.387 N 
ATOM      3  N   UNL     1      31.301  -4.064 -23.473  0.00  0.00    -0.303 N 
ATOM      4  C   UNL     1      33.162  -7.394 -21.649  0.00  0.00    +0.073 C 
ATOM      5  C   UNL     1      33.995  -7.904 -22.871  0.00  0.00    +0.021 C 
ATOM      6  C   UNL     1      32.553  -8.521 -20.822  0.00  0.00    -0.003 C 
ATOM      7  C   UNL     1      33.417  -9.160 -23.541  0.00  0.00    -0.071 C 
ATOM      8  C   UNL     1      33.859  -6.723 -23.788  0.00  0.00    -0.008 C 
ATOM      9  C   UNL     1      32.773  -5.952 -23.364  0.00  0.00    +0.057 C 
ATOM     10  C   UNL     1      32.005  -9.669 -21.664  0.00  0.00    -0.076 C 
ATOM     11  C   UNL     1      31.386  -5.520 -21.455  0.00  0.00    +0.112 C 
ATOM     12  C   UNL     1      32.363  -4.785 -24.005  0.00  0.00    +0.061 C 
ATOM     13  C   UNL     1      30.504  -4.705 -22.416  0.00  0.00    +0.112 C 
ATOM     14  C   UNL     1      34.584  -6.362 -24.905  0.00  0.00    -0.003 C 
ATOM     15  C   UNL     1      33.111  -4.421 -25.132  0.00  0.00    +0.016 C 
ATOM     16  C   UNL     1      34.202  -5.199 -25.577  0.00  0.00    +0.001 C 
ATOM     17  C   UNL     1      30.748  -2.915 -24.167  0.00  0.00    +0.112 C 
ATOM     18  H   UNL     1      33.872 -10.423 -22.006  0.00  0.00    -0.080 HD
ENDROOT
BRANCH   2  19
ATOM     19  C   UNL     1      32.582 -11.394 -23.239  0.00  0.00    -0.077 C 
BRANCH  19  20
ATOM     20  C   UNL     1      33.729 -12.041 -24.018  0.00  0.00    -0.015 C 
BRANCH  20  21
ATOM     21  C   UNL     1      33.959 -13.499 -23.610  0.00  0.00    +0.067 C 
BRANCH  21  23
ATOM     22  O   UNL     1      33.002 -14.163 -25.724  0.00  0.00    -0.291 OA
ATOM     23  C   UNL     1      33.597 -14.496 -24.702  0.00  0.00    +0.173 C 
BRANCH  23  25
ATOM     24  F   UNL     1      35.129 -19.864 -24.059  0.00  0.00    -0.204 F 
ATOM     25  C   UNL     1      34.003 -15.921 -24.531  0.00  0.00    +0.035 C 
ATOM     26  C   UNL     1      33.550 -16.887 -25.429  0.00  0.00    +0.005 C 
ATOM     27  C   UNL     1      34.836 -16.287 -23.474  0.00  0.00    +0.005 C 
ATOM     28  C   UNL     1      33.931 -18.220 -25.270  0.00  0.00    +0.030 C 
ATOM     29  C   UNL     1      35.216 -17.619 -23.313  0.00  0.00    +0.030 C 
ATOM     30  C   UNL     1      34.764 -18.585 -24.212  0.00  0.00    +0.140 C 
ENDBRANCH  23  25
ENDBRANCH  21  23
ENDBRANCH  20  21
ENDBRANCH  19  20
ENDBRANCH   2  19
TORSDOF 5
ENDMDL
MODEL 3
REMARK VINA RESULT:     -10.5      4.699      9.981
REMARK  Name = 21302490
REMARK  5 active torsions:
REMARK  status: ('A' for Active; 'I' for Inactive)
REMARK    1  A    between atoms: N_2  and  C_19
REMARK    2  A    between atoms: C_19  and  C_20
REMARK    3  A    between atoms: C_20  and  C_21
REMARK    4  A    between atoms: C_21  and  C_23
REMARK    5  A    between atoms: C_23  and  C_25
REMARK                            x       y       z     vdW  Elec       q    Type
REMARK                         _______ _______ _______ _____ _____    ______ ____
ROOT
ATOM      1  N   UNL     1      34.026 -15.636 -24.286  0.00  0.00    -0.307 N 
ATOM      2  N   UNL     1      32.898 -13.039 -21.718  0.00  0.00    +0.387 N 
ATOM      3  N   UNL     1      34.163 -18.385 -25.061  0.00  0.00    -0.303 N 
ATOM      4  C   UNL     1      34.569 -14.396 -23.716  0.00  0.00    +0.073 C 
ATOM      5  C   UNL     1      34.717 -14.672 -22.184  0.00  0.00    +0.021 C 
ATOM      6  C   UNL     1      33.720 -13.169 -24.029  0.00  0.00    -0.003 C 
ATOM      7  C   UNL     1      33.457 -14.347 -21.366  0.00  0.00    -0.071 C 
ATOM      8  C   UNL     1      34.945 -16.157 -22.208  0.00  0.00    -0.008 C 
ATOM      9  C   UNL     1      34.512 -16.653 -23.441  0.00  0.00    +0.057 C 
ATOM     10  C   UNL     1      32.495 -13.029 -23.130  0.00  0.00    -0.076 C 
ATOM     11  C   UNL     1      34.033 -15.980 -25.693  0.00  0.00    +0.112 C 
ATOM     12  C   UNL     1      34.572 -18.001 -23.790  0.00  0.00    +0.061 C 
ATOM     13  C   UNL     1      33.448 -17.390 -25.876  0.00  0.00    +0.112 C 
ATOM     14  C   UNL     1      35.448 -17.006 -21.246  0.00  0.00    -0.003 C 
ATOM     15  C   UNL     1      35.094 -18.855 -22.810  0.00  0.00    +0.016 C 
ATOM     16  C   UNL     1      35.522 -18.366 -21.557  0.00  0.00    +0.001 C 
ATOM     17  C   UNL     1      34.080 -19.785 -25.435  0.00  0.00    +0.112 C 
ATOM     18  H   UNL     1      33.611 -12.324 -21.573  0.00  0.00    -0.080 HD
ENDROOT
BRANCH   2  19
ATOM     19  C   UNL     1      31.752 -12.730 -20.861  0.00  0.00    -0.077 C 
BRANCH  19  20
ATOM     20  C   UNL     1      31.944 -11.368 -20.191  0.00  0.00    -0.015 C 
BRANCH  20  21
ATOM     21  C   UNL     1      31.570 -10.206 -21.116  0.00  0.00    +0.067 C 
BRANCH  21  23
ATOM     22  O   UNL     1      32.321  -8.540 -19.539  0.00  0.00    -0.291 OA
ATOM     23  C   UNL     1      32.209  -8.884 -20.713  0.00  0.00    +0.173 C 
BRANCH  23  25
ATOM     24  F   UNL     1      34.194  -5.522 -24.755  0.00  0.00    -0.204 F 
ATOM     25  C   UNL     1      32.737  -7.991 -21.785  0.00  0.00    +0.035 C 
ATOM     26  C   UNL     1      33.762  -8.436 -22.621  0.00  0.00    +0.005 C 
ATOM     27  C   UNL     1      32.205  -6.714 -21.953  0.00  0.00    +0.005 C 
ATOM     28  C   UNL     1      34.254  -7.601 -23.624  0.00  0.00    +0.030 C 
ATOM     29  C   UNL     1      32.697  -5.879 -22.956  0.00  0.00    +0.030 C 
ATOM     30  C   UNL     1      33.721  -6.323 -23.791  0.00  0.00    +0.140 C 
ENDBRANCH  23  25
ENDBRANCH  21  23
ENDBRANCH  20  21
ENDBRANCH  19  20
ENDBRANCH   2  19
TORSDOF 5
ENDMDL
MODEL 4
REMARK VINA RESULT:     -10.5      5.859     10.873
REMARK  Name = 21302490
REMARK  5 active torsions:
REMARK  status: ('A' for Active; 'I' for Inactive)
REMARK    1  A    between atoms: N_2  and  C_19
REMARK    2  A    between atoms: C_19  and  C_20
REMARK    3  A    between atoms: C_20  and  C_21
REMARK    4  A    between atoms: C_21  and  C_23
REMARK    5  A    between atoms: C_23  and  C_25
REMARK                            x       y       z     vdW  Elec       q    Type
REMARK                         _______ _______ _______ _____ _____    ______ ____
ROOT
ATOM      1  N   UNL     1      32.300 -12.132 -21.509  0.00  0.00    -0.307 N 
ATOM      2  N   UNL     1      32.038  -8.398 -20.731  0.00  0.00    +0.387 N 
ATOM      3  N   UNL     1      33.855 -14.291 -22.554  0.00  0.00    -0.303 N 
ATOM      4  C   UNL     1      31.258 -11.100 -21.581  0.00  0.00    +0.073 C 
ATOM      5  C   UNL     1      31.796 -10.034 -22.592  0.00  0.00    +0.021 C 
ATOM      6  C   UNL     1      30.898 -10.513 -20.221  0.00  0.00    -0.003 C 
ATOM      7  C   UNL     1      32.659  -8.939 -21.945  0.00  0.00    -0.071 C 
ATOM      8  C   UNL     1      32.649 -10.911 -23.464  0.00  0.00    -0.008 C 
ATOM      9  C   UNL     1      32.916 -12.098 -22.776  0.00  0.00    +0.057 C 
ATOM     10  C   UNL     1      31.888  -9.461 -19.729  0.00  0.00    -0.076 C 
ATOM     11  C   UNL     1      32.117 -13.466 -20.974  0.00  0.00    +0.112 C 
ATOM     12  C   UNL     1      33.692 -13.130 -23.299  0.00  0.00    +0.061 C 
ATOM     13  C   UNL     1      33.418 -14.267 -21.150  0.00  0.00    +0.112 C 
ATOM     14  C   UNL     1      33.172 -10.693 -24.721  0.00  0.00    -0.003 C 
ATOM     15  C   UNL     1      34.212 -12.904 -24.581  0.00  0.00    +0.016 C 
ATOM     16  C   UNL     1      33.958 -11.703 -25.278  0.00  0.00    +0.001 C 
ATOM     17  C   UNL     1      34.756 -15.344 -22.988  0.00  0.00    +0.112 C 
ATOM     18  H   UNL     1      31.115  -8.032 -20.966  0.00  0.00    -0.080 HD
ENDROOT
BRANCH   2  19
ATOM     19  C   UNL     1      32.846  -7.303 -20.192  0.00  0.00    -0.077 C 
BRANCH  19  20
ATOM     20  C   UNL     1      32.276  -5.955 -20.638  0.00  0.00    -0.015 C 
BRANCH  20  21
ATOM     21  C   UNL     1      31.223  -6.104 -21.740  0.00  0.00    +0.067 C 
BRANCH  21  23
ATOM     22  O   UNL     1      30.534  -4.077 -22.852  0.00  0.00    -0.291 OA
ATOM     23  C   UNL     1      31.312  -5.026 -22.810  0.00  0.00    +0.173 C 
BRANCH  23  25
ATOM     24  F   UNL     1      35.412  -5.371 -26.639  0.00  0.00    -0.204 F 
ATOM     25  C   UNL     1      32.400  -5.118 -23.827  0.00  0.00    +0.035 C 
ATOM     26  C   UNL     1      32.424  -4.232 -24.903  0.00  0.00    +0.005 C 
ATOM     27  C   UNL     1      33.393  -6.089 -23.700  0.00  0.00    +0.005 C 
ATOM     28  C   UNL     1      33.442  -4.317 -25.854  0.00  0.00    +0.030 C 
ATOM     29  C   UNL     1      34.410  -6.175 -24.650  0.00  0.00    +0.030 C 
ATOM     30  C   UNL     1      34.435  -5.289 -25.726  0.00  0.00    +0.140 C 
ENDBRANCH  23  25
ENDBRANCH  21  23
ENDBRANCH  20  21
ENDBRANCH  19  20
ENDBRANCH   2  19
TORSDOF 5
ENDMDL
MODEL 5
REMARK VINA RESULT:      -9.4      7.641     13.035
REMARK  Name = 21302490
REMARK  5 active torsions:
REMARK  status: ('A' for Active; 'I' for Inactive)
REMARK    1  A    between atoms: N_2  and  C_19
REMARK    2  A    between atoms: C_19  and  C_20
REMARK    3  A    between atoms: C_20  and  C_21
REMARK    4  A    between atoms: C_21  and  C_23
REMARK    5  A    between atoms: C_23  and  C_25
REMARK                            x       y       z     vdW  Elec       q    Type
REMARK                         _______ _______ _______ _____ _____    ______ ____
ROOT
ATOM      1  N   UNL     1      38.027 -23.902 -15.314  0.00  0.00    -0.307 N 
ATOM      2  N   UNL     1      34.464 -23.026 -16.386  0.00  0.00    +0.387 N 
ATOM      3  N   UNL     1      39.849 -25.868 -14.317  0.00  0.00    -0.303 N 
ATOM      4  C   UNL     1      37.129 -22.748 -15.183  0.00  0.00    +0.073 C 
ATOM      5  C   UNL     1      35.899 -23.267 -14.367  0.00  0.00    +0.021 C 
ATOM      6  C   UNL     1      36.747 -22.129 -16.523  0.00  0.00    -0.003 C 
ATOM      7  C   UNL     1      34.785 -23.874 -15.235  0.00  0.00    -0.071 C 
ATOM      8  C   UNL     1      36.562 -24.342 -13.555  0.00  0.00    -0.008 C 
ATOM      9  C   UNL     1      37.776 -24.674 -14.162  0.00  0.00    +0.057 C 
ATOM     10  C   UNL     1      35.642 -22.888 -17.252  0.00  0.00    -0.076 C 
ATOM     11  C   UNL     1      39.424 -23.834 -15.689  0.00  0.00    +0.112 C 
ATOM     12  C   UNL     1      38.640 -25.649 -13.667  0.00  0.00    +0.061 C 
ATOM     13  C   UNL     1      40.035 -25.244 -15.637  0.00  0.00    +0.112 C 
ATOM     14  C   UNL     1      36.143 -24.997 -12.416  0.00  0.00    -0.003 C 
ATOM     15  C   UNL     1      38.211 -26.302 -12.504  0.00  0.00    +0.016 C 
ATOM     16  C   UNL     1      36.980 -25.983 -11.891  0.00  0.00    +0.001 C 
ATOM     17  C   UNL     1      40.727 -26.956 -13.927  0.00  0.00    +0.112 C 
ATOM     18  H   UNL     1      34.191 -22.101 -16.051  0.00  0.00    -0.080 HD
ENDROOT
BRANCH   2  19
ATOM     19  C   UNL     1      33.345 -23.594 -17.139  0.00  0.00    -0.077 C 
BRANCH  19  20
ATOM     20  C   UNL     1      32.767 -22.551 -18.098  0.00  0.00    -0.015 C 
BRANCH  20  21
ATOM     21  C   UNL     1      33.492 -22.535 -19.446  0.00  0.00    +0.067 C 
BRANCH  21  23
ATOM     22  O   UNL     1      32.322 -20.648 -20.392  0.00  0.00    -0.291 OA
ATOM     23  C   UNL     1      33.397 -21.198 -20.167  0.00  0.00    +0.173 C 
BRANCH  23  25
ATOM     24  F   UNL     1      38.152 -18.669 -21.773  0.00  0.00    -0.204 F 
ATOM     25  C   UNL     1      34.659 -20.526 -20.592  0.00  0.00    +0.035 C 
ATOM     26  C   UNL     1      35.889 -20.994 -20.128  0.00  0.00    +0.005 C 
ATOM     27  C   UNL     1      34.610 -19.432 -21.455  0.00  0.00    +0.005 C 
ATOM     28  C   UNL     1      37.069 -20.367 -20.527  0.00  0.00    +0.030 C 
ATOM     29  C   UNL     1      35.790 -18.804 -21.854  0.00  0.00    +0.030 C 
ATOM     30  C   UNL     1      37.019 -19.272 -21.390  0.00  0.00    +0.140 C 
ENDBRANCH  23  25
ENDBRANCH  21  23
ENDBRANCH  20  21
ENDBRANCH  19  20
ENDBRANCH   2  19
TORSDOF 5
ENDMDL
MODEL 6
REMARK VINA RESULT:      -9.4      7.718     13.225
REMARK  Name = 21302490
REMARK  5 active torsions:
REMARK  status: ('A' for Active; 'I' for Inactive)
REMARK    1  A    between atoms: N_2  and  C_19
REMARK    2  A    between atoms: C_19  and  C_20
REMARK    3  A    between atoms: C_20  and  C_21
REMARK    4  A    between atoms: C_21  and  C_23
REMARK    5  A    between atoms: C_23  and  C_25
REMARK                            x       y       z     vdW  Elec       q    Type
REMARK                         _______ _______ _______ _____ _____    ______ ____
ROOT
ATOM      1  N   UNL     1      35.147 -24.140 -13.061  0.00  0.00    -0.307 N 
ATOM      2  N   UNL     1      32.706 -23.802 -15.984  0.00  0.00    +0.387 N 
ATOM      3  N   UNL     1      37.853 -24.093 -12.139  0.00  0.00    -0.303 N 
ATOM      4  C   UNL     1      33.913 -24.805 -13.501  0.00  0.00    +0.073 C 
ATOM      5  C   UNL     1      34.249 -25.424 -14.897  0.00  0.00    +0.021 C 
ATOM      6  C   UNL     1      32.706 -23.874 -13.528  0.00  0.00    -0.003 C 
ATOM      7  C   UNL     1      34.007 -24.471 -16.078  0.00  0.00    -0.071 C 
ATOM      8  C   UNL     1      35.722 -25.666 -14.727  0.00  0.00    -0.008 C 
ATOM      9  C   UNL     1      36.181 -24.886 -13.662  0.00  0.00    +0.057 C 
ATOM     10  C   UNL     1      32.651 -22.982 -14.765  0.00  0.00    -0.076 C 
ATOM     11  C   UNL     1      35.430 -23.721 -11.704  0.00  0.00    +0.112 C 
ATOM     12  C   UNL     1      37.509 -24.866 -13.241  0.00  0.00    +0.061 C 
ATOM     13  C   UNL     1      36.852 -23.139 -11.637  0.00  0.00    +0.112 C 
ATOM     14  C   UNL     1      36.592 -26.461 -15.442  0.00  0.00    -0.003 C 
ATOM     15  C   UNL     1      38.384 -25.684 -13.968  0.00  0.00    +0.016 C 
ATOM     16  C   UNL     1      37.933 -26.466 -15.053  0.00  0.00    +0.001 C 
ATOM     17  C   UNL     1      39.238 -23.930 -11.737  0.00  0.00    +0.112 C 
ATOM     18  H   UNL     1      31.972 -24.509 -15.939  0.00  0.00    -0.080 HD
ENDROOT
BRANCH   2  19
ATOM     19  C   UNL     1      32.476 -22.969 -17.165  0.00  0.00    -0.077 C 
BRANCH  19  20
ATOM     20  C   UNL     1      33.579 -23.202 -18.200  0.00  0.00    -0.015 C 
BRANCH  20  21
ATOM     21  C   UNL     1      33.686 -22.053 -19.206  0.00  0.00    +0.067 C 
BRANCH  21  23
ATOM     22  O   UNL     1      36.085 -22.207 -18.994  0.00  0.00    -0.291 OA
ATOM     23  C   UNL     1      35.121 -21.654 -19.518  0.00  0.00    +0.173 C 
BRANCH  23  25
ATOM     24  F   UNL     1      36.021 -17.560 -23.261  0.00  0.00    -0.204 F 
ATOM     25  C   UNL     1      35.360 -20.568 -20.512  0.00  0.00    +0.035 C 
ATOM     26  C   UNL     1      34.342 -20.187 -21.386  0.00  0.00    +0.005 C 
ATOM     27  C   UNL     1      36.601 -19.933 -20.567  0.00  0.00    +0.005 C 
ATOM     28  C   UNL     1      34.565 -19.170 -22.315  0.00  0.00    +0.030 C 
ATOM     29  C   UNL     1      36.825 -18.917 -21.495  0.00  0.00    +0.030 C 
ATOM     30  C   UNL     1      35.807 -18.536 -22.369  0.00  0.00    +0.140 C 
ENDBRANCH  23  25
ENDBRANCH  21  23
ENDBRANCH  20  21
ENDBRANCH  19  20
ENDBRANCH   2  19
TORSDOF 5
ENDMDL
MODEL 7
REMARK VINA RESULT:      -9.3      5.242     10.956
REMARK  Name = 21302490
REMARK  5 active torsions:
REMARK  status: ('A' for Active; 'I' for Inactive)
REMARK    1  A    between atoms: N_2  and  C_19
REMARK    2  A    between atoms: C_19  and  C_20
REMARK    3  A    between atoms: C_20  and  C_21
REMARK    4  A    between atoms: C_21  and  C_23
REMARK    5  A    between atoms: C_23  and  C_25
REMARK                            x       y       z     vdW  Elec       q    Type
REMARK                         _______ _______ _______ _____ _____    ______ ____
ROOT
ATOM      1  N   UNL     1      33.734 -14.319 -22.367  0.00  0.00    -0.307 N 
ATOM      2  N   UNL     1      33.435 -11.114 -24.429  0.00  0.00    +0.387 N 
ATOM      3  N   UNL     1      35.144 -16.754 -21.853  0.00  0.00    -0.303 N 
ATOM      4  C   UNL     1      32.645 -13.521 -22.942  0.00  0.00    +0.073 C 
ATOM      5  C   UNL     1      32.884 -13.541 -24.488  0.00  0.00    +0.021 C 
ATOM      6  C   UNL     1      32.560 -12.113 -22.363  0.00  0.00    -0.003 C 
ATOM      7  C   UNL     1      33.804 -12.417 -24.992  0.00  0.00    -0.071 C 
ATOM      8  C   UNL     1      33.573 -14.869 -24.626  0.00  0.00    -0.008 C 
ATOM      9  C   UNL     1      34.053 -15.254 -23.372  0.00  0.00    +0.057 C 
ATOM     10  C   UNL     1      33.571 -11.143 -22.967  0.00  0.00    -0.076 C 
ATOM     11  C   UNL     1      33.752 -14.863 -21.024  0.00  0.00    +0.112 C 
ATOM     12  C   UNL     1      34.753 -16.438 -23.148  0.00  0.00    +0.061 C 
ATOM     13  C   UNL     1      35.026 -15.702 -20.831  0.00  0.00    +0.112 C 
ATOM     14  C   UNL     1      33.793 -15.657 -25.736  0.00  0.00    -0.003 C 
ATOM     15  C   UNL     1      34.964 -17.237 -24.280  0.00  0.00    +0.016 C 
ATOM     16  C   UNL     1      34.494 -16.850 -25.554  0.00  0.00    +0.001 C 
ATOM     17  C   UNL     1      35.986 -17.904 -21.579  0.00  0.00    +0.112 C 
ATOM     18  H   UNL     1      32.464 -10.914 -24.667  0.00  0.00    -0.080 HD
ENDROOT
BRANCH   2  19
ATOM     19  C   UNL     1      34.278 -10.060 -24.996  0.00  0.00    -0.077 C 
BRANCH  19  20
ATOM     20  C   UNL     1      34.867  -9.195 -23.880  0.00  0.00    -0.015 C 
BRANCH  20  21
ATOM     21  C   UNL     1      34.525  -7.712 -24.051  0.00  0.00    +0.067 C 
BRANCH  21  23
ATOM     22  O   UNL     1      33.384  -7.738 -21.925  0.00  0.00    -0.291 OA
ATOM     23  C   UNL     1      33.532  -7.198 -23.018  0.00  0.00    +0.173 C 
BRANCH  23  25
ATOM     24  F   UNL     1      30.519  -2.613 -24.233  0.00  0.00    -0.204 F 
ATOM     25  C   UNL     1      32.732  -5.982 -23.341  0.00  0.00    +0.035 C 
ATOM     26  C   UNL     1      31.742  -5.545 -22.461  0.00  0.00    +0.005 C 
ATOM     27  C   UNL     1      32.974  -5.281 -24.522  0.00  0.00    +0.005 C 
ATOM     28  C   UNL     1      30.994  -4.406 -22.762  0.00  0.00    +0.030 C 
ATOM     29  C   UNL     1      32.227  -4.143 -24.824  0.00  0.00    +0.030 C 
ATOM     30  C   UNL     1      31.237  -3.706 -23.944  0.00  0.00    +0.140 C 
ENDBRANCH  23  25
ENDBRANCH  21  23
ENDBRANCH  20  21
ENDBRANCH  19  20
ENDBRANCH   2  19
TORSDOF 5
ENDMDL
MODEL 8
REMARK VINA RESULT:      -9.2      4.711      7.604
REMARK  Name = 21302490
REMARK  5 active torsions:
REMARK  status: ('A' for Active; 'I' for Inactive)
REMARK    1  A    between atoms: N_2  and  C_19
REMARK    2  A    between atoms: C_19  and  C_20
REMARK    3  A    between atoms: C_20  and  C_21
REMARK    4  A    between atoms: C_21  and  C_23
REMARK    5  A    between atoms: C_23  and  C_25
REMARK                            x       y       z     vdW  Elec       q    Type
REMARK                         _______ _______ _______ _____ _____    ______ ____
ROOT
ATOM      1  N   UNL     1      32.294  -5.697 -24.715  0.00  0.00    -0.307 N 
ATOM      2  N   UNL     1      31.890  -8.010 -21.698  0.00  0.00    +0.387 N 
ATOM      3  N   UNL     1      33.118  -3.156 -25.733  0.00  0.00    -0.303 N 
ATOM      4  C   UNL     1      31.302  -6.673 -24.246  0.00  0.00    +0.073 C 
ATOM      5  C   UNL     1      30.785  -6.118 -22.879  0.00  0.00    +0.021 C 
ATOM      6  C   UNL     1      31.853  -8.092 -24.152  0.00  0.00    -0.003 C 
ATOM      7  C   UNL     1      31.615  -6.570 -21.667  0.00  0.00    -0.071 C 
ATOM      8  C   UNL     1      30.972  -4.646 -23.109  0.00  0.00    -0.008 C 
ATOM      9  C   UNL     1      31.865  -4.471 -24.170  0.00  0.00    +0.057 C 
ATOM     10  C   UNL     1      32.676  -8.345 -22.893  0.00  0.00    -0.076 C 
ATOM     11  C   UNL     1      32.795  -5.601 -26.071  0.00  0.00    +0.112 C 
ATOM     12  C   UNL     1      32.266  -3.221 -24.638  0.00  0.00    +0.061 C 
ATOM     13  C   UNL     1      33.756  -4.406 -26.175  0.00  0.00    +0.112 C 
ATOM     14  C   UNL     1      30.447  -3.557 -22.445  0.00  0.00    -0.003 C 
ATOM     15  C   UNL     1      31.720  -2.121 -23.963  0.00  0.00    +0.016 C 
ATOM     16  C   UNL     1      30.828  -2.287 -22.882  0.00  0.00    +0.001 C 
ATOM     17  C   UNL     1      33.672  -1.891 -26.182  0.00  0.00    +0.112 C 
ATOM     18  H   UNL     1      31.005  -8.516 -21.732  0.00  0.00    -0.080 HD
ENDROOT
BRANCH   2  19
ATOM     19  C   UNL     1      32.609  -8.416 -20.489  0.00  0.00    -0.077 C 
BRANCH  19  20
ATOM     20  C   UNL     1      31.687  -9.221 -19.570  0.00  0.00    -0.015 C 
BRANCH  20  21
ATOM     21  C   UNL     1      31.939 -10.728 -19.670  0.00  0.00    +0.067 C 
BRANCH  21  23
ATOM     22  O   UNL     1      30.487 -10.979 -21.581  0.00  0.00    -0.291 OA
ATOM     23  C   UNL     1      31.516 -11.324 -21.005  0.00  0.00    +0.173 C 
BRANCH  23  25
ATOM     24  F   UNL     1      34.840 -15.170 -23.402  0.00  0.00    -0.204 F 
ATOM     25  C   UNL     1      32.397 -12.345 -21.642  0.00  0.00    +0.035 C 
ATOM     26  C   UNL     1      32.909 -12.124 -22.920  0.00  0.00    +0.005 C 
ATOM     27  C   UNL     1      32.710 -13.520 -20.958  0.00  0.00    +0.005 C 
ATOM     28  C   UNL     1      33.735 -13.078 -23.515  0.00  0.00    +0.030 C 
ATOM     29  C   UNL     1      33.535 -14.474 -21.552  0.00  0.00    +0.030 C 
ATOM     30  C   UNL     1      34.047 -14.253 -22.830  0.00  0.00    +0.140 C 
ENDBRANCH  23  25
ENDBRANCH  21  23
ENDBRANCH  20  21
ENDBRANCH  19  20
ENDBRANCH   2  19
TORSDOF 5
ENDMDL
MODEL 9
REMARK VINA RESULT:      -9.1      3.275      6.290
REMARK  Name = 21302490
REMARK  5 active torsions:
REMARK  status: ('A' for Active; 'I' for Inactive)
REMARK    1  A    between atoms: N_2  and  C_19
REMARK    2  A    between atoms: C_19  and  C_20
REMARK    3  A    between atoms: C_20  and  C_21
REMARK    4  A    between atoms: C_21  and  C_23
REMARK    5  A    between atoms: C_23  and  C_25
REMARK                            x       y       z     vdW  Elec       q    Type
REMARK                         _______ _______ _______ _____ _____    ______ ____
ROOT
ATOM      1  N   UNL     1      34.999 -16.292 -22.295  0.00  0.00    -0.307 N 
ATOM      2  N   UNL     1      34.727 -20.018 -21.482  0.00  0.00    +0.387 N 
ATOM      3  N   UNL     1      33.794 -13.960 -23.429  0.00  0.00    -0.303 N 
ATOM      4  C   UNL     1      35.897 -17.454 -22.310  0.00  0.00    +0.073 C 
ATOM      5  C   UNL     1      35.272 -18.452 -23.338  0.00  0.00    +0.021 C 
ATOM      6  C   UNL     1      36.111 -18.065 -20.929  0.00  0.00    -0.003 C 
ATOM      7  C   UNL     1      34.242 -19.415 -22.728  0.00  0.00    -0.071 C 
ATOM      8  C   UNL     1      34.585 -17.481 -24.257  0.00  0.00    -0.008 C 
ATOM      9  C   UNL     1      34.445 -16.261 -23.591  0.00  0.00    +0.057 C 
ATOM     10  C   UNL     1      34.969 -18.971 -20.480  0.00  0.00    -0.076 C 
ATOM     11  C   UNL     1      35.331 -14.987 -21.760  0.00  0.00    +0.112 C 
ATOM     12  C   UNL     1      33.838 -15.142 -24.157  0.00  0.00    +0.061 C 
ATOM     13  C   UNL     1      34.158 -14.024 -22.005  0.00  0.00    +0.112 C 
ATOM     14  C   UNL     1      34.098 -17.644 -25.536  0.00  0.00    -0.003 C 
ATOM     15  C   UNL     1      33.355 -15.314 -25.461  0.00  0.00    +0.016 C 
ATOM     16  C   UNL     1      33.480 -16.546 -26.138  0.00  0.00    +0.001 C 
ATOM     17  C   UNL     1      33.062 -12.803 -23.913  0.00  0.00    +0.112 C 
ATOM     18  H   UNL     1      35.604 -20.505 -21.669  0.00  0.00    -0.080 HD
ENDROOT
BRANCH   2  19
ATOM     19  C   UNL     1      33.756 -20.990 -20.976  0.00  0.00    -0.077 C 
BRANCH  19  20
ATOM     20  C   UNL     1      34.354 -21.775 -19.807  0.00  0.00    -0.015 C 
BRANCH  20  21
ATOM     21  C   UNL     1      33.284 -22.251 -18.819  0.00  0.00    +0.067 C 
BRANCH  21  23
ATOM     22  O   UNL     1      35.050 -23.265 -17.524  0.00  0.00    -0.291 OA
ATOM     23  C   UNL     1      33.858 -22.982 -17.614  0.00  0.00    +0.173 C 
BRANCH  23  25
ATOM     24  F   UNL     1      30.399 -24.352 -13.402  0.00  0.00    -0.204 F 
ATOM     25  C   UNL     1      32.940 -23.344 -16.495  0.00  0.00    +0.035 C 
ATOM     26  C   UNL     1      31.561 -23.206 -16.653  0.00  0.00    +0.005 C 
ATOM     27  C   UNL     1      33.461 -23.824 -15.294  0.00  0.00    +0.005 C 
ATOM     28  C   UNL     1      30.703 -23.546 -15.607  0.00  0.00    +0.030 C 
ATOM     29  C   UNL     1      32.603 -24.164 -14.248  0.00  0.00    +0.030 C 
ATOM     30  C   UNL     1      31.224 -24.025 -14.405  0.00  0.00    +0.140 C 
ENDBRANCH  23  25
ENDBRANCH  21  23
ENDBRANCH  20  21
ENDBRANCH  19  20
ENDBRANCH   2  19
TORSDOF 5
ENDMDL
