MODEL 1
REMARK VINA RESULT:     -11.5      0.000      0.000
REMARK  Name = 6918388
REMARK  5 active torsions:
REMARK  status: ('A' for Active; 'I' for Inactive)
REMARK    1  A    between atoms: N_1  and  C_4
REMARK    2  A    between atoms: N_1  and  C_15
REMARK    3  A    between atoms: C_4  and  C_6
REMARK    4  A    between atoms: C_15  and  C_17
REMARK    5  A    between atoms: C_19  and  C_23
REMARK                            x       y       z     vdW  Elec       q    Type
REMARK                         _______ _______ _______ _____ _____    ______ ____
ROOT
ATOM      1  N   UNL     1      35.912 -17.727 -23.084  0.00  0.00    +0.389 N 
ATOM      2  H   UNL     1      35.113 -18.169 -23.538  0.00  0.00    -0.084 HD
ATOM      3  H   UNL     1      36.596 -17.427 -23.779  0.00  0.00    -0.084 HD
ENDROOT
BRANCH   1   4
ATOM      4  C   UNL     1      36.547 -18.689 -22.194  0.00  0.00    -0.037 C 
BRANCH   4   6
ATOM      5  O   UNL     1      36.212 -20.308 -20.478  0.00  0.00    -0.482 OA
ATOM      6  C   UNL     1      35.535 -19.286 -21.225  0.00  0.00    +0.145 C 
ATOM      7  C   UNL     1      34.331 -19.852 -21.976  0.00  0.00    +0.046 C 
ATOM      8  C   UNL     1      33.322 -20.390 -20.969  0.00  0.00    +0.033 C 
ATOM      9  C   UNL     1      34.014 -21.211 -19.919  0.00  0.00    +0.012 C 
ATOM     10  C   UNL     1      35.398 -21.116 -19.728  0.00  0.00    +0.134 C 
ATOM     11  C   UNL     1      33.267 -22.065 -19.096  0.00  0.00    -0.001 C 
ATOM     12  C   UNL     1      36.030 -21.896 -18.756  0.00  0.00    +0.037 C 
ATOM     13  C   UNL     1      33.898 -22.833 -18.117  0.00  0.00    -0.000 C 
ATOM     14  C   UNL     1      35.279 -22.751 -17.950  0.00  0.00    +0.003 C 
ENDBRANCH   4   6
ENDBRANCH   1   4
BRANCH   1  15
ATOM     15  C   UNL     1      35.455 -16.557 -22.348  0.00  0.00    -0.053 C 
BRANCH  15  17
ATOM     16  N   UNL     1      33.525 -15.245 -25.305  0.00  0.00    -0.243 NA
ATOM     17  C   UNL     1      34.615 -15.647 -23.204  0.00  0.00    -0.025 C 
ATOM     18  C   UNL     1      34.178 -14.432 -22.712  0.00  0.00    -0.003 C 
ATOM     19  C   UNL     1      33.404 -13.613 -23.525  0.00  0.00    +0.019 C 
ATOM     20  C   UNL     1      34.275 -16.014 -24.485  0.00  0.00    +0.092 C 
ATOM     21  C   UNL     1      33.107 -14.061 -24.803  0.00  0.00    +0.099 C 
BRANCH  19  23
ATOM     22  F   UNL     1      31.541  -8.681 -21.711  0.00  0.00    -0.204 F 
ATOM     23  C   UNL     1      32.923 -12.335 -23.055  0.00  0.00    +0.002 C 
ATOM     24  C   UNL     1      32.015 -12.276 -21.996  0.00  0.00    +0.002 C 
ATOM     25  C   UNL     1      33.361 -11.156 -23.659  0.00  0.00    +0.002 C 
ATOM     26  C   UNL     1      31.549 -11.042 -21.542  0.00  0.00    +0.030 C 
ATOM     27  C   UNL     1      32.895  -9.922 -23.205  0.00  0.00    +0.030 C 
ATOM     28  C   UNL     1      31.989  -9.865 -22.147  0.00  0.00    +0.140 C 
ENDBRANCH  19  23
ENDBRANCH  15  17
ENDBRANCH   1  15
TORSDOF 5
ENDMDL
MODEL 2
REMARK VINA RESULT:     -11.5      1.335      2.191
REMARK  Name = 6918388
REMARK  5 active torsions:
REMARK  status: ('A' for Active; 'I' for Inactive)
REMARK    1  A    between atoms: N_1  and  C_4
REMARK    2  A    between atoms: N_1  and  C_15
REMARK    3  A    between atoms: C_4  and  C_6
REMARK    4  A    between atoms: C_15  and  C_17
REMARK    5  A    between atoms: C_19  and  C_23
REMARK                            x       y       z     vdW  Elec       q    Type
REMARK                         _______ _______ _______ _____ _____    ______ ____
ROOT
ATOM      1  N   UNL     1      35.667 -16.807 -22.994  0.00  0.00    +0.389 N 
ATOM      2  H   UNL     1      36.097 -16.388 -23.818  0.00  0.00    -0.084 HD
ATOM      3  H   UNL     1      36.380 -17.062 -22.311  0.00  0.00    -0.084 HD
ENDROOT
BRANCH   1   4
ATOM      4  C   UNL     1      34.951 -18.011 -23.390  0.00  0.00    -0.037 C 
BRANCH   4   6
ATOM      5  O   UNL     1      34.192 -19.607 -21.791  0.00  0.00    -0.482 OA
ATOM      6  C   UNL     1      35.356 -19.197 -22.523  0.00  0.00    +0.145 C 
ATOM      7  C   UNL     1      36.498 -18.817 -21.582  0.00  0.00    +0.046 C 
ATOM      8  C   UNL     1      36.908 -20.042 -20.774  0.00  0.00    +0.033 C 
ATOM      9  C   UNL     1      35.695 -20.752 -20.244  0.00  0.00    +0.012 C 
ATOM     10  C   UNL     1      34.425 -20.506 -20.783  0.00  0.00    +0.134 C 
ATOM     11  C   UNL     1      35.830 -21.694 -19.216  0.00  0.00    -0.001 C 
ATOM     12  C   UNL     1      33.304 -21.164 -20.271  0.00  0.00    +0.037 C 
ATOM     13  C   UNL     1      34.711 -22.359 -18.715  0.00  0.00    -0.000 C 
ATOM     14  C   UNL     1      33.449 -22.091 -19.240  0.00  0.00    +0.003 C 
ENDBRANCH   4   6
ENDBRANCH   1   4
BRANCH   1  15
ATOM     15  C   UNL     1      34.765 -15.840 -22.384  0.00  0.00    -0.053 C 
BRANCH  15  17
ATOM     16  N   UNL     1      33.247 -14.462 -25.544  0.00  0.00    -0.243 NA
ATOM     17  C   UNL     1      34.232 -14.855 -23.390  0.00  0.00    -0.025 C 
ATOM     18  C   UNL     1      34.233 -13.503 -23.111  0.00  0.00    -0.003 C 
ATOM     19  C   UNL     1      33.734 -12.617 -24.059  0.00  0.00    +0.019 C 
ATOM     20  C   UNL     1      33.740 -15.292 -24.598  0.00  0.00    +0.092 C 
ATOM     21  C   UNL     1      33.256 -13.143 -25.250  0.00  0.00    +0.099 C 
BRANCH  19  23
ATOM     22  F   UNL     1      33.658  -7.124 -23.106  0.00  0.00    -0.204 F 
ATOM     23  C   UNL     1      33.713 -11.195 -23.813  0.00  0.00    +0.002 C 
ATOM     24  C   UNL     1      34.710 -10.377 -24.350  0.00  0.00    +0.002 C 
ATOM     25  C   UNL     1      32.699 -10.632 -23.036  0.00  0.00    +0.002 C 
ATOM     26  C   UNL     1      34.691  -9.002 -24.111  0.00  0.00    +0.030 C 
ATOM     27  C   UNL     1      32.680  -9.258 -22.798  0.00  0.00    +0.030 C 
ATOM     28  C   UNL     1      33.676  -8.444 -23.335  0.00  0.00    +0.140 C 
ENDBRANCH  19  23
ENDBRANCH  15  17
ENDBRANCH   1  15
TORSDOF 5
ENDMDL
MODEL 3
REMARK VINA RESULT:     -11.4      4.656      7.766
REMARK  Name = 6918388
REMARK  5 active torsions:
REMARK  status: ('A' for Active; 'I' for Inactive)
REMARK    1  A    between atoms: N_1  and  C_4
REMARK    2  A    between atoms: N_1  and  C_15
REMARK    3  A    between atoms: C_4  and  C_6
REMARK    4  A    between atoms: C_15  and  C_17
REMARK    5  A    between atoms: C_19  and  C_23
REMARK                            x       y       z     vdW  Elec       q    Type
REMARK                         _______ _______ _______ _____ _____    ______ ____
ROOT
ATOM      1  N   UNL     1      33.706 -23.685 -17.847  0.00  0.00    +0.389 N 
ATOM      2  H   UNL     1      33.417 -24.573 -18.255  0.00  0.00    -0.084 HD
ATOM      3  H   UNL     1      34.722 -23.647 -17.758  0.00  0.00    -0.084 HD
ENDROOT
BRANCH   1   4
ATOM      4  C   UNL     1      33.119 -23.556 -16.521  0.00  0.00    -0.037 C 
BRANCH   4   6
ATOM      5  O   UNL     1      34.980 -24.861 -15.804  0.00  0.00    -0.482 OA
ATOM      6  C   UNL     1      34.176 -23.730 -15.437  0.00  0.00    +0.145 C 
ATOM      7  C   UNL     1      33.524 -23.933 -14.070  0.00  0.00    +0.046 C 
ATOM      8  C   UNL     1      34.612 -24.049 -13.010  0.00  0.00    +0.033 C 
ATOM      9  C   UNL     1      35.701 -24.973 -13.474  0.00  0.00    +0.012 C 
ATOM     10  C   UNL     1      35.829 -25.313 -14.827  0.00  0.00    +0.134 C 
ATOM     11  C   UNL     1      36.623 -25.486 -12.551  0.00  0.00    -0.001 C 
ATOM     12  C   UNL     1      36.839 -26.185 -15.242  0.00  0.00    +0.037 C 
ATOM     13  C   UNL     1      37.639 -26.345 -12.970  0.00  0.00    -0.000 C 
ATOM     14  C   UNL     1      37.743 -26.698 -14.314  0.00  0.00    +0.003 C 
ENDBRANCH   4   6
ENDBRANCH   1   4
BRANCH   1  15
ATOM     15  C   UNL     1      33.276 -22.598 -18.716  0.00  0.00    -0.053 C 
BRANCH  15  17
ATOM     16  N   UNL     1      36.805 -21.396 -19.259  0.00  0.00    -0.243 NA
ATOM     17  C   UNL     1      34.443 -21.833 -19.279  0.00  0.00    -0.025 C 
ATOM     18  C   UNL     1      34.251 -20.905 -20.284  0.00  0.00    -0.003 C 
ATOM     19  C   UNL     1      35.348 -20.214 -20.785  0.00  0.00    +0.019 C 
ATOM     20  C   UNL     1      35.715 -22.049 -18.798  0.00  0.00    +0.092 C 
ATOM     21  C   UNL     1      36.593 -20.494 -20.243  0.00  0.00    +0.099 C 
BRANCH  19  23
ATOM     22  F   UNL     1      34.768 -16.439 -24.847  0.00  0.00    -0.204 F 
ATOM     23  C   UNL     1      35.197 -19.236 -21.836  0.00  0.00    +0.002 C 
ATOM     24  C   UNL     1      34.682 -19.616 -23.077  0.00  0.00    +0.002 C 
ATOM     25  C   UNL     1      35.567 -17.908 -21.616  0.00  0.00    +0.002 C 
ATOM     26  C   UNL     1      34.537 -18.671 -24.093  0.00  0.00    +0.030 C 
ATOM     27  C   UNL     1      35.423 -16.964 -22.633  0.00  0.00    +0.030 C 
ATOM     28  C   UNL     1      34.908 -17.346 -23.871  0.00  0.00    +0.140 C 
ENDBRANCH  19  23
ENDBRANCH  15  17
ENDBRANCH   1  15
TORSDOF 5
ENDMDL
MODEL 4
REMARK VINA RESULT:     -11.4      3.779      9.935
REMARK  Name = 6918388
REMARK  5 active torsions:
REMARK  status: ('A' for Active; 'I' for Inactive)
REMARK    1  A    between atoms: N_1  and  C_4
REMARK    2  A    between atoms: N_1  and  C_15
REMARK    3  A    between atoms: C_4  and  C_6
REMARK    4  A    between atoms: C_15  and  C_17
REMARK    5  A    between atoms: C_19  and  C_23
REMARK                            x       y       z     vdW  Elec       q    Type
REMARK                         _______ _______ _______ _____ _____    ______ ____
ROOT
ATOM      1  N   UNL     1      33.655 -14.478 -22.937  0.00  0.00    +0.389 N 
ATOM      2  H   UNL     1      32.940 -15.203 -22.885  0.00  0.00    -0.084 HD
ATOM      3  H   UNL     1      33.680 -13.939 -22.072  0.00  0.00    -0.084 HD
ENDROOT
BRANCH   1   4
ATOM      4  C   UNL     1      33.341 -13.577 -24.036  0.00  0.00    -0.037 C 
BRANCH   4   6
ATOM      5  O   UNL     1      32.940 -11.392 -23.172  0.00  0.00    -0.482 OA
ATOM      6  C   UNL     1      33.947 -12.199 -23.802  0.00  0.00    +0.145 C 
ATOM      7  C   UNL     1      34.411 -11.578 -25.119  0.00  0.00    +0.046 C 
ATOM      8  C   UNL     1      35.057 -10.228 -24.835  0.00  0.00    +0.033 C 
ATOM      9  C   UNL     1      34.214  -9.433 -23.879  0.00  0.00    +0.012 C 
ATOM     10  C   UNL     1      33.225 -10.053 -23.104  0.00  0.00    +0.134 C 
ATOM     11  C   UNL     1      34.432  -8.057 -23.734  0.00  0.00    -0.001 C 
ATOM     12  C   UNL     1      32.440  -9.299 -22.229  0.00  0.00    +0.037 C 
ATOM     13  C   UNL     1      33.655  -7.307 -22.849  0.00  0.00    -0.000 C 
ATOM     14  C   UNL     1      32.657  -7.928 -22.101  0.00  0.00    +0.003 C 
ENDBRANCH   4   6
ENDBRANCH   1   4
BRANCH   1  15
ATOM     15  C   UNL     1      34.956 -15.105 -23.131  0.00  0.00    -0.053 C 
BRANCH  15  17
ATOM     16  N   UNL     1      34.465 -18.404 -24.883  0.00  0.00    -0.243 NA
ATOM     17  C   UNL     1      34.837 -16.588 -23.355  0.00  0.00    -0.025 C 
ATOM     18  C   UNL     1      34.981 -17.468 -22.301  0.00  0.00    -0.003 C 
ATOM     19  C   UNL     1      34.867 -18.832 -22.538  0.00  0.00    +0.019 C 
ATOM     20  C   UNL     1      34.583 -17.084 -24.614  0.00  0.00    +0.092 C 
ATOM     21  C   UNL     1      34.610 -19.246 -23.836  0.00  0.00    +0.099 C 
BRANCH  19  23
ATOM     22  F   UNL     1      35.417 -22.528 -18.399  0.00  0.00    -0.204 F 
ATOM     23  C   UNL     1      35.010 -19.790 -21.467  0.00  0.00    +0.002 C 
ATOM     24  C   UNL     1      33.880 -20.396 -20.914  0.00  0.00    +0.002 C 
ATOM     25  C   UNL     1      36.277 -20.113 -20.979  0.00  0.00    +0.002 C 
ATOM     26  C   UNL     1      34.017 -21.320 -19.878  0.00  0.00    +0.030 C 
ATOM     27  C   UNL     1      36.415 -21.037 -19.943  0.00  0.00    +0.030 C 
ATOM     28  C   UNL     1      35.285 -21.640 -19.393  0.00  0.00    +0.140 C 
ENDBRANCH  19  23
ENDBRANCH  15  17
ENDBRANCH   1  15
TORSDOF 5
ENDMDL
MODEL 5
REMARK VINA RESULT:     -11.3      4.503     10.462
REMARK  Name = 6918388
REMARK  5 active torsions:
REMARK  status: ('A' for Active; 'I' for Inactive)
REMARK    1  A    between atoms: N_1  and  C_4
REMARK    2  A    between atoms: N_1  and  C_15
REMARK    3  A    between atoms: C_4  and  C_6
REMARK    4  A    between atoms: C_15  and  C_17
REMARK    5  A    between atoms: C_19  and  C_23
REMARK                            x       y       z     vdW  Elec       q    Type
REMARK                         _______ _______ _______ _____ _____    ______ ____
ROOT
ATOM      1  N   UNL     1      35.344 -19.539 -20.833  0.00  0.00    +0.389 N 
ATOM      2  H   UNL     1      34.578 -19.534 -21.506  0.00  0.00    -0.084 HD
ATOM      3  H   UNL     1      35.038 -19.154 -19.940  0.00  0.00    -0.084 HD
ENDROOT
BRANCH   1   4
ATOM      4  C   UNL     1      36.433 -18.718 -21.344  0.00  0.00    -0.037 C 
BRANCH   4   6
ATOM      5  O   UNL     1      35.419 -16.694 -22.090  0.00  0.00    -0.482 OA
ATOM      6  C   UNL     1      35.989 -17.922 -22.565  0.00  0.00    +0.145 C 
ATOM      7  C   UNL     1      34.983 -18.717 -23.396  0.00  0.00    +0.046 C 
ATOM      8  C   UNL     1      34.607 -17.910 -24.632  0.00  0.00    +0.033 C 
ATOM      9  C   UNL     1      34.324 -16.482 -24.261  0.00  0.00    +0.012 C 
ATOM     10  C   UNL     1      34.749 -15.960 -23.034  0.00  0.00    +0.134 C 
ATOM     11  C   UNL     1      33.648 -15.648 -25.162  0.00  0.00    -0.001 C 
ATOM     12  C   UNL     1      34.466 -14.633 -22.697  0.00  0.00    +0.037 C 
ATOM     13  C   UNL     1      33.378 -14.320 -24.829  0.00  0.00    -0.000 C 
ATOM     14  C   UNL     1      33.783 -13.815 -23.595  0.00  0.00    +0.003 C 
ENDBRANCH   4   6
ENDBRANCH   1   4
BRANCH   1  15
ATOM     15  C   UNL     1      35.783 -20.912 -20.619  0.00  0.00    -0.053 C 
BRANCH  15  17
ATOM     16  N   UNL     1      32.771 -22.383 -18.898  0.00  0.00    -0.243 NA
ATOM     17  C   UNL     1      34.940 -21.617 -19.591  0.00  0.00    -0.025 C 
ATOM     18  C   UNL     1      35.517 -22.126 -18.444  0.00  0.00    -0.003 C 
ATOM     19  C   UNL     1      34.714 -22.772 -17.512  0.00  0.00    +0.019 C 
ATOM     20  C   UNL     1      33.584 -21.762 -19.781  0.00  0.00    +0.092 C 
ATOM     21  C   UNL     1      33.358 -22.874 -17.784  0.00  0.00    +0.099 C 
BRANCH  19  23
ATOM     22  F   UNL     1      36.876 -24.895 -12.831  0.00  0.00    -0.204 F 
ATOM     23  C   UNL     1      35.273 -23.321 -16.299  0.00  0.00    +0.002 C 
ATOM     24  C   UNL     1      36.605 -23.068 -15.965  0.00  0.00    +0.002 C 
ATOM     25  C   UNL     1      34.485 -24.108 -15.458  0.00  0.00    +0.002 C 
ATOM     26  C   UNL     1      37.146 -23.600 -14.794  0.00  0.00    +0.030 C 
ATOM     27  C   UNL     1      35.026 -24.640 -14.287  0.00  0.00    +0.030 C 
ATOM     28  C   UNL     1      36.356 -24.385 -13.955  0.00  0.00    +0.140 C 
ENDBRANCH  19  23
ENDBRANCH  15  17
ENDBRANCH   1  15
TORSDOF 5
ENDMDL
MODEL 6
REMARK VINA RESULT:     -11.3      4.612     10.450
REMARK  Name = 6918388
REMARK  5 active torsions:
REMARK  status: ('A' for Active; 'I' for Inactive)
REMARK    1  A    between atoms: N_1  and  C_4
REMARK    2  A    between atoms: N_1  and  C_15
REMARK    3  A    between atoms: C_4  and  C_6
REMARK    4  A    between atoms: C_15  and  C_17
REMARK    5  A    between atoms: C_19  and  C_23
REMARK                            x       y       z     vdW  Elec       q    Type
REMARK                         _______ _______ _______ _____ _____    ______ ____
ROOT
ATOM      1  N   UNL     1      35.289 -20.545 -20.108  0.00  0.00    +0.389 N 
ATOM      2  H   UNL     1      34.581 -20.349 -20.815  0.00  0.00    -0.084 HD
ATOM      3  H   UNL     1      35.043 -20.101 -19.224  0.00  0.00    -0.084 HD
ENDROOT
BRANCH   1   4
ATOM      4  C   UNL     1      36.568 -20.011 -20.555  0.00  0.00    -0.037 C 
BRANCH   4   6
ATOM      5  O   UNL     1      35.701 -17.796 -20.690  0.00  0.00    -0.482 OA
ATOM      6  C   UNL     1      36.369 -18.804 -21.462  0.00  0.00    +0.145 C 
ATOM      7  C   UNL     1      35.559 -19.182 -22.701  0.00  0.00    +0.046 C 
ATOM      8  C   UNL     1      35.430 -17.963 -23.605  0.00  0.00    +0.033 C 
ATOM      9  C   UNL     1      35.061 -16.749 -22.801  0.00  0.00    +0.012 C 
ATOM     10  C   UNL     1      35.225 -16.731 -21.410  0.00  0.00    +0.134 C 
ATOM     11  C   UNL     1      34.570 -15.606 -23.446  0.00  0.00    -0.001 C 
ATOM     12  C   UNL     1      34.865 -15.600 -20.673  0.00  0.00    +0.037 C 
ATOM     13  C   UNL     1      34.223 -14.473 -22.709  0.00  0.00    -0.000 C 
ATOM     14  C   UNL     1      34.366 -14.472 -21.324  0.00  0.00    +0.003 C 
ENDBRANCH   4   6
ENDBRANCH   1   4
BRANCH   1  15
ATOM     15  C   UNL     1      35.368 -21.984 -19.898  0.00  0.00    -0.053 C 
BRANCH  15  17
ATOM     16  N   UNL     1      36.653 -22.464 -16.390  0.00  0.00    -0.243 NA
ATOM     17  C   UNL     1      35.402 -22.337 -18.436  0.00  0.00    -0.025 C 
ATOM     18  C   UNL     1      34.276 -22.836 -17.811  0.00  0.00    -0.003 C 
ATOM     19  C   UNL     1      34.337 -23.153 -16.460  0.00  0.00    +0.019 C 
ATOM     20  C   UNL     1      36.556 -22.167 -17.705  0.00  0.00    +0.092 C 
ATOM     21  C   UNL     1      35.539 -22.951 -15.799  0.00  0.00    +0.099 C 
BRANCH  19  23
ATOM     22  F   UNL     1      29.893 -25.183 -13.772  0.00  0.00    -0.204 F 
ATOM     23  C   UNL     1      33.186 -23.677 -15.763  0.00  0.00    +0.002 C 
ATOM     24  C   UNL     1      33.351 -24.381 -14.569  0.00  0.00    +0.002 C 
ATOM     25  C   UNL     1      31.904 -23.485 -16.283  0.00  0.00    +0.002 C 
ATOM     26  C   UNL     1      32.239 -24.890 -13.896  0.00  0.00    +0.030 C 
ATOM     27  C   UNL     1      30.793 -23.993 -15.611  0.00  0.00    +0.030 C 
ATOM     28  C   UNL     1      30.960 -24.695 -14.418  0.00  0.00    +0.140 C 
ENDBRANCH  19  23
ENDBRANCH  15  17
ENDBRANCH   1  15
TORSDOF 5
ENDMDL
MODEL 7
REMARK VINA RESULT:     -11.2      4.636      7.222
REMARK  Name = 6918388
REMARK  5 active torsions:
REMARK  status: ('A' for Active; 'I' for Inactive)
REMARK    1  A    between atoms: N_1  and  C_4
REMARK    2  A    between atoms: N_1  and  C_15
REMARK    3  A    between atoms: C_4  and  C_6
REMARK    4  A    between atoms: C_15  and  C_17
REMARK    5  A    between atoms: C_19  and  C_23
REMARK                            x       y       z     vdW  Elec       q    Type
REMARK                         _______ _______ _______ _____ _____    ______ ____
ROOT
ATOM      1  N   UNL     1      36.618 -21.718 -17.110  0.00  0.00    +0.389 N 
ATOM      2  H   UNL     1      37.114 -20.846 -16.929  0.00  0.00    -0.084 HD
ATOM      3  H   UNL     1      35.629 -21.621 -16.879  0.00  0.00    -0.084 HD
ENDROOT
BRANCH   1   4
ATOM      4  C   UNL     1      37.187 -22.771 -16.281  0.00  0.00    -0.037 C 
BRANCH   4   6
ATOM      5  O   UNL     1      34.837 -23.146 -16.151  0.00  0.00    -0.482 OA
ATOM      6  C   UNL     1      36.091 -23.594 -15.615  0.00  0.00    +0.145 C 
ATOM      7  C   UNL     1      36.135 -23.431 -14.096  0.00  0.00    +0.046 C 
ATOM      8  C   UNL     1      35.061 -24.309 -13.468  0.00  0.00    +0.033 C 
ATOM      9  C   UNL     1      33.762 -24.161 -14.208  0.00  0.00    +0.012 C 
ATOM     10  C   UNL     1      33.726 -23.606 -15.493  0.00  0.00    +0.134 C 
ATOM     11  C   UNL     1      32.570 -24.605 -13.621  0.00  0.00    -0.001 C 
ATOM     12  C   UNL     1      32.508 -23.462 -16.164  0.00  0.00    +0.037 C 
ATOM     13  C   UNL     1      31.357 -24.473 -14.298  0.00  0.00    -0.000 C 
ATOM     14  C   UNL     1      31.327 -23.898 -15.567  0.00  0.00    +0.003 C 
ENDBRANCH   4   6
ENDBRANCH   1   4
BRANCH   1  15
ATOM     15  C   UNL     1      36.733 -22.048 -18.524  0.00  0.00    -0.053 C 
BRANCH  15  17
ATOM     16  N   UNL     1      33.182 -21.614 -19.707  0.00  0.00    -0.243 NA
ATOM     17  C   UNL     1      35.551 -21.554 -19.314  0.00  0.00    -0.025 C 
ATOM     18  C   UNL     1      35.724 -20.631 -20.327  0.00  0.00    -0.003 C 
ATOM     19  C   UNL     1      34.614 -20.193 -21.039  0.00  0.00    +0.019 C 
ATOM     20  C   UNL     1      34.285 -22.017 -19.036  0.00  0.00    +0.092 C 
ATOM     21  C   UNL     1      33.375 -20.710 -20.693  0.00  0.00    +0.099 C 
BRANCH  19  23
ATOM     22  F   UNL     1      35.118 -16.465 -25.155  0.00  0.00    -0.204 F 
ATOM     23  C   UNL     1      34.745 -19.229 -22.106  0.00  0.00    +0.002 C 
ATOM     24  C   UNL     1      35.362 -17.999 -21.865  0.00  0.00    +0.002 C 
ATOM     25  C   UNL     1      34.254 -19.520 -23.379  0.00  0.00    +0.002 C 
ATOM     26  C   UNL     1      35.488 -17.066 -22.895  0.00  0.00    +0.030 C 
ATOM     27  C   UNL     1      34.380 -18.588 -24.409  0.00  0.00    +0.030 C 
ATOM     28  C   UNL     1      34.997 -17.361 -24.166  0.00  0.00    +0.140 C 
ENDBRANCH  19  23
ENDBRANCH  15  17
ENDBRANCH   1  15
TORSDOF 5
ENDMDL
MODEL 8
REMARK VINA RESULT:     -11.0      4.519      7.284
REMARK  Name = 6918388
REMARK  5 active torsions:
REMARK  status: ('A' for Active; 'I' for Inactive)
REMARK    1  A    between atoms: N_1  and  C_4
REMARK    2  A    between atoms: N_1  and  C_15
REMARK    3  A    between atoms: C_4  and  C_6
REMARK    4  A    between atoms: C_15  and  C_17
REMARK    5  A    between atoms: C_19  and  C_23
REMARK                            x       y       z     vdW  Elec       q    Type
REMARK                         _______ _______ _______ _____ _____    ______ ____
ROOT
ATOM      1  N   UNL     1      36.376 -22.251 -17.809  0.00  0.00    +0.389 N 
ATOM      2  H   UNL     1      35.402 -22.037 -17.598  0.00  0.00    -0.084 HD
ATOM      3  H   UNL     1      36.525 -23.260 -17.828  0.00  0.00    -0.084 HD
ENDROOT
BRANCH   1   4
ATOM      4  C   UNL     1      37.224 -21.676 -16.774  0.00  0.00    -0.037 C 
BRANCH   4   6
ATOM      5  O   UNL     1      38.028 -23.460 -15.413  0.00  0.00    -0.482 OA
ATOM      6  C   UNL     1      37.047 -22.413 -15.452  0.00  0.00    +0.145 C 
ATOM      7  C   UNL     1      35.632 -22.974 -15.328  0.00  0.00    +0.046 C 
ATOM      8  C   UNL     1      35.481 -23.654 -13.973  0.00  0.00    +0.033 C 
ATOM      9  C   UNL     1      36.669 -24.528 -13.689  0.00  0.00    +0.012 C 
ATOM     10  C   UNL     1      37.862 -24.376 -14.406  0.00  0.00    +0.134 C 
ATOM     11  C   UNL     1      36.600 -25.492 -12.675  0.00  0.00    -0.001 C 
ATOM     12  C   UNL     1      38.955 -25.205 -14.140  0.00  0.00    +0.037 C 
ATOM     13  C   UNL     1      37.697 -26.310 -12.401  0.00  0.00    -0.000 C 
ATOM     14  C   UNL     1      38.872 -26.168 -13.137  0.00  0.00    +0.003 C 
ENDBRANCH   4   6
ENDBRANCH   1   4
BRANCH   1  15
ATOM     15  C   UNL     1      36.711 -21.708 -19.118  0.00  0.00    -0.053 C 
BRANCH  15  17
ATOM     16  N   UNL     1      33.103 -21.229 -20.091  0.00  0.00    -0.243 NA
ATOM     17  C   UNL     1      35.492 -21.213 -19.850  0.00  0.00    -0.025 C 
ATOM     18  C   UNL     1      35.622 -20.328 -20.903  0.00  0.00    -0.003 C 
ATOM     19  C   UNL     1      34.478 -19.887 -21.559  0.00  0.00    +0.019 C 
ATOM     20  C   UNL     1      34.237 -21.635 -19.478  0.00  0.00    +0.092 C 
ATOM     21  C   UNL     1      33.253 -20.363 -21.118  0.00  0.00    +0.099 C 
BRANCH  19  23
ATOM     22  F   UNL     1      34.802 -16.311 -25.825  0.00  0.00    -0.204 F 
ATOM     23  C   UNL     1      34.563 -18.962 -22.664  0.00  0.00    +0.002 C 
ATOM     24  C   UNL     1      35.175 -17.719 -22.491  0.00  0.00    +0.002 C 
ATOM     25  C   UNL     1      34.032 -19.306 -23.908  0.00  0.00    +0.002 C 
ATOM     26  C   UNL     1      35.255 -16.824 -23.558  0.00  0.00    +0.030 C 
ATOM     27  C   UNL     1      34.112 -18.411 -24.976  0.00  0.00    +0.030 C 
ATOM     28  C   UNL     1      34.724 -17.170 -24.800  0.00  0.00    +0.140 C 
ENDBRANCH  19  23
ENDBRANCH  15  17
ENDBRANCH   1  15
TORSDOF 5
ENDMDL
MODEL 9
REMARK VINA RESULT:     -11.0      3.776      9.792
REMARK  Name = 6918388
REMARK  5 active torsions:
REMARK  status: ('A' for Active; 'I' for Inactive)
REMARK    1  A    between atoms: N_1  and  C_4
REMARK    2  A    between atoms: N_1  and  C_15
REMARK    3  A    between atoms: C_4  and  C_6
REMARK    4  A    between atoms: C_15  and  C_17
REMARK    5  A    between atoms: C_19  and  C_23
REMARK                            x       y       z     vdW  Elec       q    Type
REMARK                         _______ _______ _______ _____ _____    ______ ____
ROOT
ATOM      1  N   UNL     1      33.216 -13.362 -23.297  0.00  0.00    +0.389 N 
ATOM      2  H   UNL     1      33.412 -12.419 -23.629  0.00  0.00    -0.084 HD
ATOM      3  H   UNL     1      32.828 -13.932 -24.049  0.00  0.00    -0.084 HD
ENDROOT
BRANCH   1   4
ATOM      4  C   UNL     1      32.241 -13.295 -22.217  0.00  0.00    -0.037 C 
BRANCH   4   6
ATOM      5  O   UNL     1      32.665 -11.012 -22.752  0.00  0.00    -0.482 OA
ATOM      6  C   UNL     1      31.839 -11.854 -21.934  0.00  0.00    +0.145 C 
ATOM      7  C   UNL     1      32.007 -11.524 -20.451  0.00  0.00    +0.046 C 
ATOM      8  C   UNL     1      31.544 -10.094 -20.202  0.00  0.00    +0.033 C 
ATOM      9  C   UNL     1      32.099  -9.172 -21.250  0.00  0.00    +0.012 C 
ATOM     10  C   UNL     1      32.611  -9.675 -22.453  0.00  0.00    +0.134 C 
ATOM     11  C   UNL     1      32.084  -7.787 -21.041  0.00  0.00    -0.001 C 
ATOM     12  C   UNL     1      33.136  -8.807 -23.413  0.00  0.00    +0.037 C 
ATOM     13  C   UNL     1      32.597  -6.920 -22.007  0.00  0.00    -0.000 C 
ATOM     14  C   UNL     1      33.126  -7.431 -23.190  0.00  0.00    +0.003 C 
ENDBRANCH   4   6
ENDBRANCH   1   4
BRANCH   1  15
ATOM     15  C   UNL     1      34.456 -13.976 -22.843  0.00  0.00    -0.053 C 
BRANCH  15  17
ATOM     16  N   UNL     1      34.343 -17.047 -25.023  0.00  0.00    -0.243 NA
ATOM     17  C   UNL     1      34.563 -15.414 -23.276  0.00  0.00    -0.025 C 
ATOM     18  C   UNL     1      34.958 -16.386 -22.378  0.00  0.00    -0.003 C 
ATOM     19  C   UNL     1      35.048 -17.705 -22.807  0.00  0.00    +0.019 C 
ATOM     20  C   UNL     1      34.268 -15.775 -24.571  0.00  0.00    +0.092 C 
ATOM     21  C   UNL     1      34.733 -17.981 -24.128  0.00  0.00    +0.099 C 
BRANCH  19  23
ATOM     22  F   UNL     1      36.624 -21.762 -19.320  0.00  0.00    -0.204 F 
ATOM     23  C   UNL     1      35.457 -18.756 -21.905  0.00  0.00    +0.002 C 
ATOM     24  C   UNL     1      34.536 -19.719 -21.489  0.00  0.00    +0.002 C 
ATOM     25  C   UNL     1      36.773 -18.812 -21.443  0.00  0.00    +0.002 C 
ATOM     26  C   UNL     1      34.930 -20.734 -20.616  0.00  0.00    +0.030 C 
ATOM     27  C   UNL     1      37.167 -19.826 -20.571  0.00  0.00    +0.030 C 
ATOM     28  C   UNL     1      36.245 -20.787 -20.158  0.00  0.00    +0.140 C 
ENDBRANCH  19  23
ENDBRANCH  15  17
ENDBRANCH   1  15
TORSDOF 5
ENDMDL
