MODEL 1
REMARK VINA RESULT:     -11.3      0.000      0.000
REMARK  Name = 445756
REMARK  6 active torsions:
REMARK  status: ('A' for Active; 'I' for Inactive)
REMARK    1  A    between atoms: C_3  and  C_11
REMARK    2  A    between atoms: C_6  and  C_22
REMARK    3  A    between atoms: C_11  and  N_12
REMARK    4  A    between atoms: C_22  and  N_23
REMARK    5  A    between atoms: N_23  and  C_25
REMARK    6  A    between atoms: C_30  and  C_33
REMARK                            x       y       z     vdW  Elec       q    Type
REMARK                         _______ _______ _______ _____ _____    ______ ____
ROOT
ATOM      1  N   UNL     1      34.875 -16.078 -21.542  0.00  0.00    -0.261 N 
ATOM      2  N   UNL     1      35.145 -16.093 -23.748  0.00  0.00    -0.392 NA
ATOM      3  C   UNL     1      33.310 -12.846 -23.508  0.00  0.00    -0.017 C 
ATOM      4  C   UNL     1      34.286 -14.924 -21.991  0.00  0.00    +0.079 C 
ATOM      5  C   UNL     1      34.468 -14.957 -23.371  0.00  0.00    +0.128 C 
ATOM      6  C   UNL     1      35.373 -16.743 -22.628  0.00  0.00    +0.183 C 
ATOM      7  C   UNL     1      33.973 -13.899 -24.152  0.00  0.00    +0.084 C 
ATOM      8  C   UNL     1      33.145 -12.841 -22.121  0.00  0.00    -0.005 C 
ATOM      9  C   UNL     1      33.631 -13.885 -21.328  0.00  0.00    +0.017 C 
ATOM     10  C   UNL     1      34.954 -16.512 -20.165  0.00  0.00    +0.120 C 
ENDROOT
BRANCH   3  11
ATOM     11  C   UNL     1      32.777 -11.711 -24.319  0.00  0.00    +0.120 C 
BRANCH  11  12
ATOM     12  N   UNL     1      33.443 -10.447 -23.989  0.00  0.00    -0.260 N 
ATOM     13  N   UNL     1      34.926  -8.818 -24.056  0.00  0.00    -0.394 NA
ATOM     14  C   UNL     1      33.017  -9.557 -23.053  0.00  0.00    +0.079 C 
ATOM     15  C   UNL     1      34.577  -9.979 -24.565  0.00  0.00    +0.164 C 
ATOM     16  C   UNL     1      33.965  -8.539 -23.112  0.00  0.00    +0.128 C 
ATOM     17  C   UNL     1      31.926  -9.539 -22.183  0.00  0.00    +0.017 C 
ATOM     18  C   UNL     1      35.296 -10.711 -25.626  0.00  0.00    +0.084 C 
ATOM     19  C   UNL     1      33.831  -7.430 -22.259  0.00  0.00    +0.086 C 
ATOM     20  C   UNL     1      31.810  -8.428 -21.341  0.00  0.00    -0.003 C 
ATOM     21  C   UNL     1      32.745  -7.391 -21.377  0.00  0.00    -0.019 C 
ENDBRANCH  11  12
ENDBRANCH   3  11
BRANCH   6  22
ATOM     22  C   UNL     1      36.075 -18.036 -22.505  0.00  0.00    +0.164 C 
BRANCH  22  23
ATOM     23  N   UNL     1      35.234 -19.217 -22.662  0.00  0.00    -0.326 N 
ATOM     24  H   UNL     1      34.919 -19.450 -23.566  0.00  0.00    +0.147 HD
BRANCH  23  25
ATOM     25  C   UNL     1      34.857 -20.022 -21.609  0.00  0.00    +0.045 C 
ATOM     26  C   UNL     1      35.817 -20.707 -20.834  0.00  0.00    +0.014 C 
ATOM     27  C   UNL     1      33.498 -20.192 -21.271  0.00  0.00    +0.014 C 
ATOM     28  C   UNL     1      35.436 -21.523 -19.769  0.00  0.00    +0.004 C 
ATOM     29  C   UNL     1      33.116 -21.008 -20.207  0.00  0.00    +0.004 C 
ATOM     30  C   UNL     1      34.085 -21.674 -19.457  0.00  0.00    +0.031 C 
BRANCH  30  33
ATOM     31  N   UNL     1      32.345 -22.702 -18.013  0.00  0.00    -0.343 N 
ATOM     32  N   UNL     1      34.607 -23.150 -17.633  0.00  0.00    -0.285 NA
ATOM     33  C   UNL     1      33.686 -22.527 -18.348  0.00  0.00    +0.117 C 
ATOM     34  H   UNL     1      32.098 -23.284 -17.258  0.00  0.00    +0.144 HD
ATOM     35  H   UNL     1      31.644 -22.244 -18.532  0.00  0.00    +0.144 HD
ATOM     36  H   UNL     1      34.339 -23.727 -16.881  0.00  0.00    +0.188 HD
ENDBRANCH  30  33
ENDBRANCH  23  25
ENDBRANCH  22  23
ENDBRANCH   6  22
TORSDOF 6
ENDMDL
MODEL 2
REMARK VINA RESULT:     -11.3      1.702      2.821
REMARK  Name = 445756
REMARK  6 active torsions:
REMARK  status: ('A' for Active; 'I' for Inactive)
REMARK    1  A    between atoms: C_3  and  C_11
REMARK    2  A    between atoms: C_6  and  C_22
REMARK    3  A    between atoms: C_11  and  N_12
REMARK    4  A    between atoms: C_22  and  N_23
REMARK    5  A    between atoms: N_23  and  C_25
REMARK    6  A    between atoms: C_30  and  C_33
REMARK                            x       y       z     vdW  Elec       q    Type
REMARK                         _______ _______ _______ _____ _____    ______ ____
ROOT
ATOM      1  N   UNL     1      34.589 -15.388 -22.839  0.00  0.00    -0.261 N 
ATOM      2  N   UNL     1      34.067 -15.293 -20.681  0.00  0.00    -0.392 NA
ATOM      3  C   UNL     1      31.973 -12.411 -21.811  0.00  0.00    -0.017 C 
ATOM      4  C   UNL     1      33.716 -14.338 -22.720  0.00  0.00    +0.079 C 
ATOM      5  C   UNL     1      33.405 -14.299 -21.363  0.00  0.00    +0.128 C 
ATOM      6  C   UNL     1      34.768 -15.926 -21.595  0.00  0.00    +0.183 C 
ATOM      7  C   UNL     1      32.515 -13.319 -20.892  0.00  0.00    +0.084 C 
ATOM      8  C   UNL     1      32.304 -12.476 -23.166  0.00  0.00    -0.005 C 
ATOM      9  C   UNL     1      33.187 -13.445 -23.653  0.00  0.00    +0.017 C 
ATOM     10  C   UNL     1      35.208 -15.842 -24.064  0.00  0.00    +0.120 C 
ENDROOT
BRANCH   3  11
ATOM     11  C   UNL     1      31.024 -11.362 -21.333  0.00  0.00    +0.120 C 
BRANCH  11  12
ATOM     12  N   UNL     1      31.717 -10.114 -20.996  0.00  0.00    -0.260 N 
ATOM     13  N   UNL     1      32.731  -8.582 -19.780  0.00  0.00    -0.394 NA
ATOM     14  C   UNL     1      32.034  -9.130 -21.879  0.00  0.00    +0.079 C 
ATOM     15  C   UNL     1      32.144  -9.758 -19.761  0.00  0.00    +0.164 C 
ATOM     16  C   UNL     1      32.672  -8.175 -21.093  0.00  0.00    +0.128 C 
ATOM     17  C   UNL     1      31.833  -8.983 -23.252  0.00  0.00    +0.017 C 
ATOM     18  C   UNL     1      31.954 -10.612 -18.571  0.00  0.00    +0.084 C 
ATOM     19  C   UNL     1      33.144  -6.997 -21.696  0.00  0.00    +0.086 C 
ATOM     20  C   UNL     1      32.309  -7.803 -23.835  0.00  0.00    -0.003 C 
ATOM     21  C   UNL     1      32.953  -6.827 -23.072  0.00  0.00    -0.019 C 
ENDBRANCH  11  12
ENDBRANCH   3  11
BRANCH   6  22
ATOM     22  C   UNL     1      35.655 -17.083 -21.360  0.00  0.00    +0.164 C 
BRANCH  22  23
ATOM     23  N   UNL     1      35.227 -18.330 -21.985  0.00  0.00    -0.326 N 
ATOM     24  H   UNL     1      35.238 -18.388 -22.968  0.00  0.00    +0.147 HD
BRANCH  23  25
ATOM     25  C   UNL     1      34.809 -19.430 -21.267  0.00  0.00    +0.045 C 
ATOM     26  C   UNL     1      33.439 -19.757 -21.166  0.00  0.00    +0.014 C 
ATOM     27  C   UNL     1      35.734 -20.265 -20.607  0.00  0.00    +0.014 C 
ATOM     28  C   UNL     1      33.016 -20.868 -20.438  0.00  0.00    +0.004 C 
ATOM     29  C   UNL     1      35.310 -21.377 -19.879  0.00  0.00    +0.004 C 
ATOM     30  C   UNL     1      33.951 -21.678 -19.794  0.00  0.00    +0.031 C 
BRANCH  30  33
ATOM     31  N   UNL     1      32.572 -22.717 -18.010  0.00  0.00    -0.343 N 
ATOM     32  N   UNL     1      34.002 -24.032 -19.309  0.00  0.00    -0.285 NA
ATOM     33  C   UNL     1      33.509 -22.837 -19.034  0.00  0.00    +0.117 C 
ATOM     34  H   UNL     1      32.287 -23.515 -17.508  0.00  0.00    +0.144 HD
ATOM     35  H   UNL     1      32.196 -21.835 -17.787  0.00  0.00    +0.144 HD
ATOM     36  H   UNL     1      33.704 -24.817 -18.796  0.00  0.00    +0.188 HD
ENDBRANCH  30  33
ENDBRANCH  23  25
ENDBRANCH  22  23
ENDBRANCH   6  22
TORSDOF 6
ENDMDL
MODEL 3
REMARK VINA RESULT:     -11.2      2.484      5.257
REMARK  Name = 445756
REMARK  6 active torsions:
REMARK  status: ('A' for Active; 'I' for Inactive)
REMARK    1  A    between atoms: C_3  and  C_11
REMARK    2  A    between atoms: C_6  and  C_22
REMARK    3  A    between atoms: C_11  and  N_12
REMARK    4  A    between atoms: C_22  and  N_23
REMARK    5  A    between atoms: N_23  and  C_25
REMARK    6  A    between atoms: C_30  and  C_33
REMARK                            x       y       z     vdW  Elec       q    Type
REMARK                         _______ _______ _______ _____ _____    ______ ____
ROOT
ATOM      1  N   UNL     1      32.262 -12.042 -21.783  0.00  0.00    -0.261 N 
ATOM      2  N   UNL     1      33.231 -11.021 -23.503  0.00  0.00    -0.392 NA
ATOM      3  C   UNL     1      32.666  -7.986 -21.396  0.00  0.00    -0.017 C 
ATOM      4  C   UNL     1      32.295 -10.713 -21.448  0.00  0.00    +0.079 C 
ATOM      5  C   UNL     1      32.905 -10.097 -22.538  0.00  0.00    +0.128 C 
ATOM      6  C   UNL     1      32.832 -12.176 -23.019  0.00  0.00    +0.183 C 
ATOM      7  C   UNL     1      33.098  -8.705 -22.519  0.00  0.00    +0.084 C 
ATOM      8  C   UNL     1      32.059  -8.633 -20.318  0.00  0.00    -0.005 C 
ATOM      9  C   UNL     1      31.859 -10.017 -20.320  0.00  0.00    +0.017 C 
ATOM     10  C   UNL     1      31.721 -13.109 -20.972  0.00  0.00    +0.120 C 
ENDROOT
BRANCH   3  11
ATOM     11  C   UNL     1      32.863  -6.506 -21.353  0.00  0.00    +0.120 C 
BRANCH  11  12
ATOM     12  N   UNL     1      32.376  -5.858 -22.575  0.00  0.00    -0.260 N 
ATOM     13  N   UNL     1      31.017  -4.790 -23.942  0.00  0.00    -0.394 NA
ATOM     14  C   UNL     1      33.081  -5.734 -23.731  0.00  0.00    +0.079 C 
ATOM     15  C   UNL     1      31.157  -5.289 -22.734  0.00  0.00    +0.164 C 
ATOM     16  C   UNL     1      32.207  -5.058 -24.578  0.00  0.00    +0.128 C 
ATOM     17  C   UNL     1      34.363  -6.133 -24.112  0.00  0.00    +0.017 C 
ATOM     18  C   UNL     1      30.144  -5.253 -21.659  0.00  0.00    +0.084 C 
ATOM     19  C   UNL     1      32.620  -4.754 -25.887  0.00  0.00    +0.086 C 
ATOM     20  C   UNL     1      34.756  -5.823 -25.418  0.00  0.00    -0.003 C 
ATOM     21  C   UNL     1      33.902  -5.146 -26.291  0.00  0.00    -0.019 C 
ENDBRANCH  11  12
ENDBRANCH   3  11
BRANCH   6  22
ATOM     22  C   UNL     1      32.959 -13.487 -23.688  0.00  0.00    +0.164 C 
BRANCH  22  23
ATOM     23  N   UNL     1      34.307 -14.046 -23.705  0.00  0.00    -0.326 N 
ATOM     24  H   UNL     1      35.009 -13.558 -24.194  0.00  0.00    +0.147 HD
BRANCH  23  25
ATOM     25  C   UNL     1      34.644 -15.223 -23.073  0.00  0.00    +0.045 C 
ATOM     26  C   UNL     1      34.746 -15.293 -21.667  0.00  0.00    +0.014 C 
ATOM     27  C   UNL     1      34.902 -16.398 -23.809  0.00  0.00    +0.014 C 
ATOM     28  C   UNL     1      35.090 -16.484 -21.028  0.00  0.00    +0.004 C 
ATOM     29  C   UNL     1      35.246 -17.589 -23.170  0.00  0.00    +0.004 C 
ATOM     30  C   UNL     1      35.340 -17.632 -21.780  0.00  0.00    +0.031 C 
BRANCH  30  33
ATOM     31  N   UNL     1      34.787 -19.918 -20.984  0.00  0.00    -0.343 N 
ATOM     32  N   UNL     1      36.914 -19.024 -20.612  0.00  0.00    -0.285 NA
ATOM     33  C   UNL     1      35.700 -18.873 -21.113  0.00  0.00    +0.117 C 
ATOM     34  H   UNL     1      35.052 -20.750 -20.529  0.00  0.00    +0.144 HD
ATOM     35  H   UNL     1      33.877 -19.824 -21.348  0.00  0.00    +0.144 HD
ATOM     36  H   UNL     1      37.160 -19.864 -20.160  0.00  0.00    +0.188 HD
ENDBRANCH  30  33
ENDBRANCH  23  25
ENDBRANCH  22  23
ENDBRANCH   6  22
TORSDOF 6
ENDMDL
MODEL 4
REMARK VINA RESULT:     -11.2      5.204     13.215
REMARK  Name = 445756
REMARK  6 active torsions:
REMARK  status: ('A' for Active; 'I' for Inactive)
REMARK    1  A    between atoms: C_3  and  C_11
REMARK    2  A    between atoms: C_6  and  C_22
REMARK    3  A    between atoms: C_11  and  N_12
REMARK    4  A    between atoms: C_22  and  N_23
REMARK    5  A    between atoms: N_23  and  C_25
REMARK    6  A    between atoms: C_30  and  C_33
REMARK                            x       y       z     vdW  Elec       q    Type
REMARK                         _______ _______ _______ _____ _____    ______ ____
ROOT
ATOM      1  N   UNL     1      34.557 -22.421 -18.556  0.00  0.00    -0.261 N 
ATOM      2  N   UNL     1      36.613 -22.217 -17.737  0.00  0.00    -0.392 NA
ATOM      3  C   UNL     1      35.045 -23.773 -14.723  0.00  0.00    -0.017 C 
ATOM      4  C   UNL     1      34.496 -22.926 -17.283  0.00  0.00    +0.079 C 
ATOM      5  C   UNL     1      35.792 -22.788 -16.793  0.00  0.00    +0.128 C 
ATOM      6  C   UNL     1      35.842 -22.009 -18.781  0.00  0.00    +0.183 C 
ATOM      7  C   UNL     1      36.080 -23.218 -15.487  0.00  0.00    +0.084 C 
ATOM      8  C   UNL     1      33.755 -23.899 -15.243  0.00  0.00    -0.005 C 
ATOM      9  C   UNL     1      33.450 -23.477 -16.541  0.00  0.00    +0.017 C 
ATOM     10  C   UNL     1      33.458 -22.339 -19.492  0.00  0.00    +0.120 C 
ENDROOT
BRANCH   3  11
ATOM     11  C   UNL     1      35.329 -24.238 -13.332  0.00  0.00    +0.120 C 
BRANCH  11  12
ATOM     12  N   UNL     1      36.763 -24.449 -13.112  0.00  0.00    -0.260 N 
ATOM     13  N   UNL     1      38.772 -24.207 -12.241  0.00  0.00    -0.394 NA
ATOM     14  C   UNL     1      37.540 -25.331 -13.794  0.00  0.00    +0.079 C 
ATOM     15  C   UNL     1      37.523 -23.798 -12.199  0.00  0.00    +0.164 C 
ATOM     16  C   UNL     1      38.802 -25.163 -13.230  0.00  0.00    +0.128 C 
ATOM     17  C   UNL     1      37.274 -26.237 -14.822  0.00  0.00    +0.017 C 
ATOM     18  C   UNL     1      36.979 -22.769 -11.290  0.00  0.00    +0.084 C 
ATOM     19  C   UNL     1      39.873 -25.937 -13.707  0.00  0.00    +0.086 C 
ATOM     20  C   UNL     1      38.353 -26.997 -15.285  0.00  0.00    -0.003 C 
ATOM     21  C   UNL     1      39.630 -26.852 -14.738  0.00  0.00    -0.019 C 
ENDBRANCH  11  12
ENDBRANCH   3  11
BRANCH   6  22
ATOM     22  C   UNL     1      36.261 -21.408 -20.063  0.00  0.00    +0.164 C 
BRANCH  22  23
ATOM     23  N   UNL     1      36.114 -19.960 -20.147  0.00  0.00    -0.326 N 
ATOM     24  H   UNL     1      36.324 -19.421 -19.349  0.00  0.00    +0.147 HD
BRANCH  23  25
ATOM     25  C   UNL     1      35.695 -19.308 -21.286  0.00  0.00    +0.045 C 
ATOM     26  C   UNL     1      35.937 -17.929 -21.470  0.00  0.00    +0.014 C 
ATOM     27  C   UNL     1      35.007 -19.995 -22.309  0.00  0.00    +0.014 C 
ATOM     28  C   UNL     1      35.511 -17.269 -22.622  0.00  0.00    +0.004 C 
ATOM     29  C   UNL     1      34.581 -19.335 -23.461  0.00  0.00    +0.004 C 
ATOM     30  C   UNL     1      34.832 -17.972 -23.617  0.00  0.00    +0.031 C 
BRANCH  30  33
ATOM     31  N   UNL     1      34.095 -15.921 -24.807  0.00  0.00    -0.343 N 
ATOM     32  N   UNL     1      34.248 -17.955 -25.948  0.00  0.00    -0.285 NA
ATOM     33  C   UNL     1      34.387 -17.284 -24.818  0.00  0.00    +0.117 C 
ATOM     34  H   UNL     1      33.795 -15.475 -25.632  0.00  0.00    +0.144 HD
ATOM     35  H   UNL     1      34.190 -15.404 -23.974  0.00  0.00    +0.144 HD
ATOM     36  H   UNL     1      33.946 -17.490 -26.763  0.00  0.00    +0.188 HD
ENDBRANCH  30  33
ENDBRANCH  23  25
ENDBRANCH  22  23
ENDBRANCH   6  22
TORSDOF 6
ENDMDL
MODEL 5
REMARK VINA RESULT:     -10.9      3.799      7.496
REMARK  Name = 445756
REMARK  6 active torsions:
REMARK  status: ('A' for Active; 'I' for Inactive)
REMARK    1  A    between atoms: C_3  and  C_11
REMARK    2  A    between atoms: C_6  and  C_22
REMARK    3  A    between atoms: C_11  and  N_12
REMARK    4  A    between atoms: C_22  and  N_23
REMARK    5  A    between atoms: N_23  and  C_25
REMARK    6  A    between atoms: C_30  and  C_33
REMARK                            x       y       z     vdW  Elec       q    Type
REMARK                         _______ _______ _______ _____ _____    ______ ____
ROOT
ATOM      1  N   UNL     1      33.651 -21.742 -19.131  0.00  0.00    -0.261 N 
ATOM      2  N   UNL     1      35.872 -21.701 -19.199  0.00  0.00    -0.392 NA
ATOM      3  C   UNL     1      35.259 -19.451 -22.120  0.00  0.00    -0.017 C 
ATOM      4  C   UNL     1      33.970 -20.930 -20.189  0.00  0.00    +0.079 C 
ATOM      5  C   UNL     1      35.363 -20.921 -20.210  0.00  0.00    +0.128 C 
ATOM      6  C   UNL     1      34.820 -22.178 -18.573  0.00  0.00    +0.183 C 
ATOM      7  C   UNL     1      36.028 -20.168 -21.193  0.00  0.00    +0.084 C 
ATOM      8  C   UNL     1      33.864 -19.480 -22.072  0.00  0.00    -0.005 C 
ATOM      9  C   UNL     1      33.185 -20.223 -21.101  0.00  0.00    +0.017 C 
ATOM     10  C   UNL     1      32.316 -22.074 -18.689  0.00  0.00    +0.120 C 
ENDROOT
BRANCH   3  11
ATOM     11  C   UNL     1      35.945 -18.643 -23.172  0.00  0.00    +0.120 C 
BRANCH  11  12
ATOM     12  N   UNL     1      34.986 -17.938 -24.028  0.00  0.00    -0.260 N 
ATOM     13  N   UNL     1      33.532 -17.594 -25.647  0.00  0.00    -0.394 NA
ATOM     14  C   UNL     1      34.622 -16.635 -23.890  0.00  0.00    +0.079 C 
ATOM     15  C   UNL     1      34.322 -18.477 -25.079  0.00  0.00    +0.164 C 
ATOM     16  C   UNL     1      33.706 -16.439 -24.920  0.00  0.00    +0.128 C 
ATOM     17  C   UNL     1      34.992 -15.634 -22.992  0.00  0.00    +0.017 C 
ATOM     18  C   UNL     1      34.492 -19.883 -25.498  0.00  0.00    +0.084 C 
ATOM     19  C   UNL     1      33.114 -15.174 -25.077  0.00  0.00    +0.086 C 
ATOM     20  C   UNL     1      34.393 -14.381 -23.164  0.00  0.00    -0.003 C 
ATOM     21  C   UNL     1      33.470 -14.154 -24.187  0.00  0.00    -0.019 C 
ENDBRANCH  11  12
ENDBRANCH   3  11
BRANCH   6  22
ATOM     22  C   UNL     1      34.843 -23.080 -17.403  0.00  0.00    +0.164 C 
BRANCH  22  23
ATOM     23  N   UNL     1      36.025 -22.966 -16.555  0.00  0.00    -0.326 N 
ATOM     24  H   UNL     1      36.859 -22.630 -16.958  0.00  0.00    +0.147 HD
BRANCH  23  25
ATOM     25  C   UNL     1      36.033 -23.307 -15.220  0.00  0.00    +0.045 C 
ATOM     26  C   UNL     1      34.918 -23.931 -14.620  0.00  0.00    +0.014 C 
ATOM     27  C   UNL     1      37.154 -23.042 -14.406  0.00  0.00    +0.014 C 
ATOM     28  C   UNL     1      34.925 -24.274 -13.268  0.00  0.00    +0.004 C 
ATOM     29  C   UNL     1      37.161 -23.385 -13.055  0.00  0.00    +0.004 C 
ATOM     30  C   UNL     1      36.047 -24.000 -12.485  0.00  0.00    +0.031 C 
BRANCH  30  33
ATOM     31  N   UNL     1      36.768 -23.608 -10.142  0.00  0.00    -0.343 N 
ATOM     32  N   UNL     1      35.376 -25.413 -10.660  0.00  0.00    -0.285 NA
ATOM     33  C   UNL     1      36.054 -24.357 -11.075  0.00  0.00    +0.117 C 
ATOM     34  H   UNL     1      36.759 -23.868  -9.192  0.00  0.00    +0.144 HD
ATOM     35  H   UNL     1      37.281 -22.820 -10.432  0.00  0.00    +0.144 HD
ATOM     36  H   UNL     1      35.380 -25.656  -9.705  0.00  0.00    +0.188 HD
ENDBRANCH  30  33
ENDBRANCH  23  25
ENDBRANCH  22  23
ENDBRANCH   6  22
TORSDOF 6
ENDMDL
MODEL 6
REMARK VINA RESULT:     -10.5      2.370      4.441
REMARK  Name = 445756
REMARK  6 active torsions:
REMARK  status: ('A' for Active; 'I' for Inactive)
REMARK    1  A    between atoms: C_3  and  C_11
REMARK    2  A    between atoms: C_6  and  C_22
REMARK    3  A    between atoms: C_11  and  N_12
REMARK    4  A    between atoms: C_22  and  N_23
REMARK    5  A    between atoms: N_23  and  C_25
REMARK    6  A    between atoms: C_30  and  C_33
REMARK                            x       y       z     vdW  Elec       q    Type
REMARK                         _______ _______ _______ _____ _____    ______ ____
ROOT
ATOM      1  N   UNL     1      33.901 -13.379 -26.080  0.00  0.00    -0.261 N 
ATOM      2  N   UNL     1      33.227 -13.549 -23.970  0.00  0.00    -0.392 NA
ATOM      3  C   UNL     1      34.323  -9.978 -23.840  0.00  0.00    -0.017 C 
ATOM      4  C   UNL     1      34.129 -12.147 -25.523  0.00  0.00    +0.079 C 
ATOM      5  C   UNL     1      33.699 -12.279 -24.205  0.00  0.00    +0.128 C 
ATOM      6  C   UNL     1      33.363 -14.181 -25.114  0.00  0.00    +0.183 C 
ATOM      7  C   UNL     1      33.795 -11.176 -23.340  0.00  0.00    +0.084 C 
ATOM      8  C   UNL     1      34.744  -9.877 -25.168  0.00  0.00    -0.005 C 
ATOM      9  C   UNL     1      34.656 -10.964 -26.043  0.00  0.00    +0.017 C 
ATOM     10  C   UNL     1      34.181 -13.758 -27.447  0.00  0.00    +0.120 C 
ENDROOT
BRANCH   3  11
ATOM     11  C   UNL     1      34.433  -8.792 -22.939  0.00  0.00    +0.120 C 
BRANCH  11  12
ATOM     12  N   UNL     1      33.361  -7.822 -23.183  0.00  0.00    -0.260 N 
ATOM     13  N   UNL     1      31.389  -6.849 -23.041  0.00  0.00    -0.394 NA
ATOM     14  C   UNL     1      33.451  -6.744 -24.006  0.00  0.00    +0.079 C 
ATOM     15  C   UNL     1      32.126  -7.856 -22.627  0.00  0.00    +0.164 C 
ATOM     16  C   UNL     1      32.199  -6.145 -23.902  0.00  0.00    +0.128 C 
ATOM     17  C   UNL     1      34.476  -6.244 -24.811  0.00  0.00    +0.017 C 
ATOM     18  C   UNL     1      31.702  -8.906 -21.679  0.00  0.00    +0.084 C 
ATOM     19  C   UNL     1      31.936  -4.977 -24.638  0.00  0.00    +0.086 C 
ATOM     20  C   UNL     1      34.196  -5.082 -25.537  0.00  0.00    -0.003 C 
ATOM     21  C   UNL     1      32.949  -4.457 -25.453  0.00  0.00    -0.019 C 
ENDBRANCH  11  12
ENDBRANCH   3  11
BRANCH   6  22
ATOM     22  C   UNL     1      32.994 -15.588 -25.375  0.00  0.00    +0.164 C 
BRANCH  22  23
ATOM     23  N   UNL     1      34.114 -16.520 -25.442  0.00  0.00    -0.326 N 
ATOM     24  H   UNL     1      34.581 -16.629 -26.303  0.00  0.00    +0.147 HD
BRANCH  23  25
ATOM     25  C   UNL     1      34.548 -17.258 -24.363  0.00  0.00    +0.045 C 
ATOM     26  C   UNL     1      35.218 -16.645 -23.282  0.00  0.00    +0.014 C 
ATOM     27  C   UNL     1      34.341 -18.652 -24.301  0.00  0.00    +0.014 C 
ATOM     28  C   UNL     1      35.660 -17.392 -22.190  0.00  0.00    +0.004 C 
ATOM     29  C   UNL     1      34.783 -19.399 -23.210  0.00  0.00    +0.004 C 
ATOM     30  C   UNL     1      35.443 -18.770 -22.155  0.00  0.00    +0.031 C 
BRANCH  30  33
ATOM     31  N   UNL     1      35.086 -20.497 -20.407  0.00  0.00    -0.343 N 
ATOM     32  N   UNL     1      37.123 -19.361 -20.541  0.00  0.00    -0.285 NA
ATOM     33  C   UNL     1      35.905 -19.549 -21.017  0.00  0.00    +0.117 C 
ATOM     34  H   UNL     1      35.419 -21.014 -19.638  0.00  0.00    +0.144 HD
ATOM     35  H   UNL     1      34.174 -20.650 -20.745  0.00  0.00    +0.144 HD
ATOM     36  H   UNL     1      37.438 -19.888 -19.771  0.00  0.00    +0.188 HD
ENDBRANCH  30  33
ENDBRANCH  23  25
ENDBRANCH  22  23
ENDBRANCH   6  22
TORSDOF 6
ENDMDL
MODEL 7
REMARK VINA RESULT:     -10.3      2.323      4.580
REMARK  Name = 445756
REMARK  6 active torsions:
REMARK  status: ('A' for Active; 'I' for Inactive)
REMARK    1  A    between atoms: C_3  and  C_11
REMARK    2  A    between atoms: C_6  and  C_22
REMARK    3  A    between atoms: C_11  and  N_12
REMARK    4  A    between atoms: C_22  and  N_23
REMARK    5  A    between atoms: N_23  and  C_25
REMARK    6  A    between atoms: C_30  and  C_33
REMARK                            x       y       z     vdW  Elec       q    Type
REMARK                         _______ _______ _______ _____ _____    ______ ____
ROOT
ATOM      1  N   UNL     1      32.643 -12.124 -22.790  0.00  0.00    -0.261 N 
ATOM      2  N   UNL     1      34.123 -11.891 -24.431  0.00  0.00    -0.392 NA
ATOM      3  C   UNL     1      34.120  -8.337 -23.275  0.00  0.00    -0.017 C 
ATOM      4  C   UNL     1      33.000 -10.801 -22.775  0.00  0.00    +0.079 C 
ATOM      5  C   UNL     1      33.925 -10.681 -23.809  0.00  0.00    +0.128 C 
ATOM      6  C   UNL     1      33.340 -12.734 -23.796  0.00  0.00    +0.183 C 
ATOM      7  C   UNL     1      34.501  -9.426 -24.070  0.00  0.00    +0.084 C 
ATOM      8  C   UNL     1      33.190  -8.490 -22.244  0.00  0.00    -0.005 C 
ATOM      9  C   UNL     1      32.607  -9.731 -21.970  0.00  0.00    +0.017 C 
ATOM     10  C   UNL     1      31.698 -12.759 -21.899  0.00  0.00    +0.120 C 
ENDROOT
BRANCH   3  11
ATOM     11  C   UNL     1      34.720  -6.994 -23.534  0.00  0.00    +0.120 C 
BRANCH  11  12
ATOM     12  N   UNL     1      33.705  -6.009 -23.920  0.00  0.00    -0.260 N 
ATOM     13  N   UNL     1      32.637  -4.520 -25.144  0.00  0.00    -0.394 NA
ATOM     14  C   UNL     1      32.647  -5.632 -23.154  0.00  0.00    +0.079 C 
ATOM     15  C   UNL     1      33.670  -5.332 -25.093  0.00  0.00    +0.164 C 
ATOM     16  C   UNL     1      31.988  -4.694 -23.943  0.00  0.00    +0.128 C 
ATOM     17  C   UNL     1      32.211  -6.006 -21.882  0.00  0.00    +0.017 C 
ATOM     18  C   UNL     1      34.682  -5.513 -26.153  0.00  0.00    +0.084 C 
ATOM     19  C   UNL     1      30.822  -4.084 -23.450  0.00  0.00    +0.086 C 
ATOM     20  C   UNL     1      31.050  -5.388 -21.408  0.00  0.00    -0.003 C 
ATOM     21  C   UNL     1      30.365  -4.444 -22.176  0.00  0.00    -0.019 C 
ENDBRANCH  11  12
ENDBRANCH   3  11
BRANCH   6  22
ATOM     22  C   UNL     1      33.193 -14.173 -24.095  0.00  0.00    +0.164 C 
BRANCH  22  23
ATOM     23  N   UNL     1      34.445 -14.905 -24.248  0.00  0.00    -0.326 N 
ATOM     24  H   UNL     1      35.064 -14.628 -24.963  0.00  0.00    +0.147 HD
BRANCH  23  25
ATOM     25  C   UNL     1      34.803 -15.966 -23.445  0.00  0.00    +0.045 C 
ATOM     26  C   UNL     1      35.030 -17.249 -23.988  0.00  0.00    +0.014 C 
ATOM     27  C   UNL     1      34.952 -15.808 -22.051  0.00  0.00    +0.014 C 
ATOM     28  C   UNL     1      35.390 -18.323 -23.175  0.00  0.00    +0.004 C 
ATOM     29  C   UNL     1      35.312 -16.882 -21.238  0.00  0.00    +0.004 C 
ATOM     30  C   UNL     1      35.530 -18.139 -21.799  0.00  0.00    +0.031 C 
BRANCH  30  33
ATOM     31  N   UNL     1      34.990 -20.259 -20.624  0.00  0.00    -0.343 N 
ATOM     32  N   UNL     1      37.133 -19.341 -20.471  0.00  0.00    -0.285 NA
ATOM     33  C   UNL     1      35.905 -19.260 -20.951  0.00  0.00    +0.117 C 
ATOM     34  H   UNL     1      35.265 -21.009 -20.048  0.00  0.00    +0.144 HD
ATOM     35  H   UNL     1      34.069 -20.215 -20.969  0.00  0.00    +0.144 HD
ATOM     36  H   UNL     1      37.389 -20.098 -19.896  0.00  0.00    +0.188 HD
ENDBRANCH  30  33
ENDBRANCH  23  25
ENDBRANCH  22  23
ENDBRANCH   6  22
TORSDOF 6
ENDMDL
MODEL 8
REMARK VINA RESULT:     -10.2      3.577     11.352
REMARK  Name = 445756
REMARK  6 active torsions:
REMARK  status: ('A' for Active; 'I' for Inactive)
REMARK    1  A    between atoms: C_3  and  C_11
REMARK    2  A    between atoms: C_6  and  C_22
REMARK    3  A    between atoms: C_11  and  N_12
REMARK    4  A    between atoms: C_22  and  N_23
REMARK    5  A    between atoms: N_23  and  C_25
REMARK    6  A    between atoms: C_30  and  C_33
REMARK                            x       y       z     vdW  Elec       q    Type
REMARK                         _______ _______ _______ _____ _____    ______ ____
ROOT
ATOM      1  N   UNL     1      31.562 -10.836 -21.839  0.00  0.00    -0.261 N 
ATOM      2  N   UNL     1      32.915 -10.255 -23.504  0.00  0.00    -0.392 NA
ATOM      3  C   UNL     1      34.054 -13.799 -23.172  0.00  0.00    -0.017 C 
ATOM      4  C   UNL     1      32.296 -11.959 -22.124  0.00  0.00    +0.079 C 
ATOM      5  C   UNL     1      33.133 -11.570 -23.166  0.00  0.00    +0.128 C 
ATOM      6  C   UNL     1      31.968  -9.846 -22.689  0.00  0.00    +0.183 C 
ATOM      7  C   UNL     1      34.033 -12.504 -23.707  0.00  0.00    +0.084 C 
ATOM      8  C   UNL     1      33.201 -14.159 -22.126  0.00  0.00    -0.005 C 
ATOM      9  C   UNL     1      32.299 -13.243 -21.576  0.00  0.00    +0.017 C 
ATOM     10  C   UNL     1      30.542 -10.724 -20.821  0.00  0.00    +0.120 C 
ENDROOT
BRANCH   3  11
ATOM     11  C   UNL     1      35.002 -14.808 -23.732  0.00  0.00    +0.120 C 
BRANCH  11  12
ATOM     12  N   UNL     1      34.309 -15.812 -24.546  0.00  0.00    -0.260 N 
ATOM     13  N   UNL     1      33.001 -16.656 -26.106  0.00  0.00    -0.394 NA
ATOM     14  C   UNL     1      34.417 -17.158 -24.391  0.00  0.00    +0.079 C 
ATOM     15  C   UNL     1      33.462 -15.547 -25.570  0.00  0.00    +0.164 C 
ATOM     16  C   UNL     1      33.585 -17.671 -25.383  0.00  0.00    +0.128 C 
ATOM     17  C   UNL     1      35.140 -17.960 -23.507  0.00  0.00    +0.017 C 
ATOM     18  C   UNL     1      33.128 -14.174 -25.999  0.00  0.00    +0.084 C 
ATOM     19  C   UNL     1      33.456 -19.064 -25.515  0.00  0.00    +0.086 C 
ATOM     20  C   UNL     1      34.998 -19.343 -23.653  0.00  0.00    -0.003 C 
ATOM     21  C   UNL     1      34.171 -19.888 -24.638  0.00  0.00    -0.019 C 
ENDBRANCH  11  12
ENDBRANCH   3  11
BRANCH   6  22
ATOM     22  C   UNL     1      31.381  -8.491 -22.655  0.00  0.00    +0.164 C 
BRANCH  22  23
ATOM     23  N   UNL     1      32.333  -7.407 -22.440  0.00  0.00    -0.326 N 
ATOM     24  H   UNL     1      32.595  -7.191 -21.516  0.00  0.00    +0.147 HD
BRANCH  23  25
ATOM     25  C   UNL     1      32.881  -6.669 -23.467  0.00  0.00    +0.045 C 
ATOM     26  C   UNL     1      32.095  -5.777 -24.227  0.00  0.00    +0.014 C 
ATOM     27  C   UNL     1      34.249  -6.782 -23.796  0.00  0.00    +0.014 C 
ATOM     28  C   UNL     1      32.650  -5.033 -25.267  0.00  0.00    +0.004 C 
ATOM     29  C   UNL     1      34.804  -6.038 -24.836  0.00  0.00    +0.004 C 
ATOM     30  C   UNL     1      34.005  -5.164 -25.572  0.00  0.00    +0.031 C 
BRANCH  30  33
ATOM     31  N   UNL     1      35.911  -4.561 -27.045  0.00  0.00    -0.343 N 
ATOM     32  N   UNL     1      33.846  -3.495 -27.295  0.00  0.00    -0.285 NA
ATOM     33  C   UNL     1      34.583  -4.388 -26.658  0.00  0.00    +0.117 C 
ATOM     34  H   UNL     1      36.282  -4.025 -27.783  0.00  0.00    +0.144 HD
ATOM     35  H   UNL     1      36.477  -5.219 -26.581  0.00  0.00    +0.144 HD
ATOM     36  H   UNL     1      34.236  -2.969 -28.030  0.00  0.00    +0.188 HD
ENDBRANCH  30  33
ENDBRANCH  23  25
ENDBRANCH  22  23
ENDBRANCH   6  22
TORSDOF 6
ENDMDL
MODEL 9
REMARK VINA RESULT:     -10.2      3.583     11.299
REMARK  Name = 445756
REMARK  6 active torsions:
REMARK  status: ('A' for Active; 'I' for Inactive)
REMARK    1  A    between atoms: C_3  and  C_11
REMARK    2  A    between atoms: C_6  and  C_22
REMARK    3  A    between atoms: C_11  and  N_12
REMARK    4  A    between atoms: C_22  and  N_23
REMARK    5  A    between atoms: N_23  and  C_25
REMARK    6  A    between atoms: C_30  and  C_33
REMARK                            x       y       z     vdW  Elec       q    Type
REMARK                         _______ _______ _______ _____ _____    ______ ____
ROOT
ATOM      1  N   UNL     1      31.567 -10.856 -21.815  0.00  0.00    -0.261 N 
ATOM      2  N   UNL     1      32.925 -10.246 -23.466  0.00  0.00    -0.392 NA
ATOM      3  C   UNL     1      34.054 -13.799 -23.200  0.00  0.00    -0.017 C 
ATOM      4  C   UNL     1      32.298 -11.975 -22.120  0.00  0.00    +0.079 C 
ATOM      5  C   UNL     1      33.139 -11.568 -23.153  0.00  0.00    +0.128 C 
ATOM      6  C   UNL     1      31.978  -9.850 -22.645  0.00  0.00    +0.183 C 
ATOM      7  C   UNL     1      34.037 -12.494 -23.710  0.00  0.00    +0.084 C 
ATOM      8  C   UNL     1      33.198 -14.177 -22.163  0.00  0.00    -0.005 C 
ATOM      9  C   UNL     1      32.297 -13.269 -21.598  0.00  0.00    +0.017 C 
ATOM     10  C   UNL     1      30.545 -10.760 -20.798  0.00  0.00    +0.120 C 
ENDROOT
BRANCH   3  11
ATOM     11  C   UNL     1      35.000 -14.800 -23.777  0.00  0.00    +0.120 C 
BRANCH  11  12
ATOM     12  N   UNL     1      34.302 -15.808 -24.580  0.00  0.00    -0.260 N 
ATOM     13  N   UNL     1      32.985 -16.662 -26.127  0.00  0.00    -0.394 NA
ATOM     14  C   UNL     1      34.408 -17.153 -24.415  0.00  0.00    +0.079 C 
ATOM     15  C   UNL     1      33.451 -15.550 -25.603  0.00  0.00    +0.164 C 
ATOM     16  C   UNL     1      33.571 -17.672 -25.399  0.00  0.00    +0.128 C 
ATOM     17  C   UNL     1      35.133 -17.949 -23.528  0.00  0.00    +0.017 C 
ATOM     18  C   UNL     1      33.117 -14.180 -26.041  0.00  0.00    +0.084 C 
ATOM     19  C   UNL     1      33.438 -19.066 -25.518  0.00  0.00    +0.086 C 
ATOM     20  C   UNL     1      34.987 -19.334 -23.661  0.00  0.00    -0.003 C 
ATOM     21  C   UNL     1      34.156 -19.885 -24.638  0.00  0.00    -0.019 C 
ENDBRANCH  11  12
ENDBRANCH   3  11
BRANCH   6  22
ATOM     22  C   UNL     1      31.394  -8.494 -22.586  0.00  0.00    +0.164 C 
BRANCH  22  23
ATOM     23  N   UNL     1      32.352  -7.414 -22.383  0.00  0.00    -0.326 N 
ATOM     24  H   UNL     1      32.627  -7.199 -21.462  0.00  0.00    +0.147 HD
BRANCH  23  25
ATOM     25  C   UNL     1      32.891  -6.678 -23.417  0.00  0.00    +0.045 C 
ATOM     26  C   UNL     1      34.249  -6.811 -23.777  0.00  0.00    +0.014 C 
ATOM     27  C   UNL     1      32.104  -5.765 -24.150  0.00  0.00    +0.014 C 
ATOM     28  C   UNL     1      34.795  -6.065 -24.821  0.00  0.00    +0.004 C 
ATOM     29  C   UNL     1      32.649  -5.019 -25.194  0.00  0.00    +0.004 C 
ATOM     30  C   UNL     1      33.994  -5.169 -25.530  0.00  0.00    +0.031 C 
BRANCH  30  33
ATOM     31  N   UNL     1      33.889  -3.296 -27.156  0.00  0.00    -0.343 N 
ATOM     32  N   UNL     1      35.742  -4.719 -27.118  0.00  0.00    -0.285 NA
ATOM     33  C   UNL     1      34.563  -4.390 -26.618  0.00  0.00    +0.117 C 
ATOM     34  H   UNL     1      34.293  -2.782 -27.893  0.00  0.00    +0.144 HD
ATOM     35  H   UNL     1      33.009  -3.036 -26.800  0.00  0.00    +0.144 HD
ATOM     36  H   UNL     1      36.129  -4.193 -27.855  0.00  0.00    +0.188 HD
ENDBRANCH  30  33
ENDBRANCH  23  25
ENDBRANCH  22  23
ENDBRANCH   6  22
TORSDOF 6
ENDMDL
