MODEL 1
REMARK VINA RESULT:     -10.8      0.000      0.000
REMARK  Name = 10182969
REMARK  5 active torsions:
REMARK  status: ('A' for Active; 'I' for Inactive)
REMARK    1  A    between atoms: N_2  and  C_11
REMARK    2  A    between atoms: N_3  and  C_24
REMARK    3  A    between atoms: C_10  and  C_34
REMARK    4  A    between atoms: C_12  and  N_18
REMARK    5  A    between atoms: C_29  and  O_30
REMARK                            x       y       z     vdW  Elec       q    Type
REMARK                         _______ _______ _______ _____ _____    ______ ____
ROOT
ATOM      1  O   UNL     1      31.913 -22.109 -18.006  0.00  0.00    -0.268 OA
ATOM      2  N   UNL     1      34.243 -22.292 -18.324  0.00  0.00    -0.254 N 
ATOM      3  N   UNL     1      32.192 -23.728 -15.573  0.00  0.00    -0.225 N 
ATOM      4  N   UNL     1      32.673 -24.399 -14.509  0.00  0.00    -0.161 NA
ATOM      5  C   UNL     1      35.646 -23.283 -16.452  0.00  0.00    +0.052 C 
ATOM      6  C   UNL     1      35.452 -23.089 -17.967  0.00  0.00    +0.103 C 
ATOM      7  C   UNL     1      34.354 -23.638 -15.841  0.00  0.00    +0.026 A 
ATOM      8  C   UNL     1      33.162 -23.257 -16.409  0.00  0.00    +0.134 A 
ATOM      9  C   UNL     1      33.014 -22.500 -17.629  0.00  0.00    +0.270 C 
ATOM     10  C   UNL     1      33.998 -24.338 -14.677  0.00  0.00    +0.152 A 
ENDROOT
BRANCH   2  11
ATOM     11  C   UNL     1      34.303 -21.461 -19.500  0.00  0.00    +0.054 C 
ATOM     12  C   UNL     1      34.419 -19.854 -21.771  0.00  0.00    +0.054 C 
ATOM     13  C   UNL     1      35.539 -21.096 -20.026  0.00  0.00    +0.016 C 
ATOM     14  C   UNL     1      33.125 -21.029 -20.102  0.00  0.00    +0.016 C 
ATOM     15  C   UNL     1      35.597 -20.290 -21.164  0.00  0.00    +0.016 C 
ATOM     16  C   UNL     1      33.183 -20.223 -21.239  0.00  0.00    +0.016 C 
BRANCH  12  18
ATOM     17  O   UNL     1      35.334 -17.126 -21.855  0.00  0.00    -0.275 OA
ATOM     18  N   UNL     1      34.478 -19.019 -22.950  0.00  0.00    -0.259 N 
ATOM     19  C   UNL     1      33.756 -19.484 -24.146  0.00  0.00    +0.098 C 
ATOM     20  C   UNL     1      34.271 -18.902 -25.452  0.00  0.00    +0.022 C 
ATOM     21  C   UNL     1      34.350 -17.397 -25.328  0.00  0.00    +0.011 C 
ATOM     22  C   UNL     1      35.319 -17.051 -24.219  0.00  0.00    +0.086 C 
ATOM     23  C   UNL     1      35.024 -17.725 -22.889  0.00  0.00    +0.229 C 
ENDBRANCH  12  18
ENDBRANCH   2  11
BRANCH   3  24
ATOM     24  C   UNL     1      30.812 -23.593 -15.726  0.00  0.00    +0.083 C 
ATOM     25  C   UNL     1      30.122 -24.475 -16.548  0.00  0.00    +0.022 C 
ATOM     26  C   UNL     1      30.144 -22.576 -15.055  0.00  0.00    +0.022 C 
ATOM     27  C   UNL     1      28.743 -24.338 -16.702  0.00  0.00    +0.038 C 
ATOM     28  C   UNL     1      28.764 -22.439 -15.209  0.00  0.00    +0.038 C 
ATOM     29  C   UNL     1      28.064 -23.321 -16.033  0.00  0.00    +0.139 C 
BRANCH  29  30
ATOM     30  O   UNL     1      26.717 -23.188 -16.183  0.00  0.00    -0.471 OA
ATOM     31  C   UNL     1      26.254 -22.063 -16.929  0.00  0.00    +0.252 C 
ENDBRANCH  29  30
ENDBRANCH   3  24
BRANCH  10  34
ATOM     32  O   UNL     1      34.798 -24.722 -12.486  0.00  0.00    -0.269 OA
ATOM     33  N   UNL     1      35.819 -25.855 -14.180  0.00  0.00    -0.324 N 
ATOM     34  C   UNL     1      34.867 -24.947 -13.712  0.00  0.00    +0.262 C 
ATOM     35  H   UNL     1      36.433 -26.292 -13.548  0.00  0.00    +0.145 HD
ATOM     36  H   UNL     1      35.876 -26.056 -15.142  0.00  0.00    +0.145 HD
ENDBRANCH  10  34
TORSDOF 5
ENDMDL
MODEL 2
REMARK VINA RESULT:     -10.1      1.158      1.755
REMARK  Name = 10182969
REMARK  5 active torsions:
REMARK  status: ('A' for Active; 'I' for Inactive)
REMARK    1  A    between atoms: N_2  and  C_11
REMARK    2  A    between atoms: N_3  and  C_24
REMARK    3  A    between atoms: C_10  and  C_34
REMARK    4  A    between atoms: C_12  and  N_18
REMARK    5  A    between atoms: C_29  and  O_30
REMARK                            x       y       z     vdW  Elec       q    Type
REMARK                         _______ _______ _______ _____ _____    ______ ____
ROOT
ATOM      1  O   UNL     1      32.964 -22.268 -17.754  0.00  0.00    -0.268 OA
ATOM      2  N   UNL     1      35.263 -22.101 -18.255  0.00  0.00    -0.254 N 
ATOM      3  N   UNL     1      33.678 -23.734 -15.312  0.00  0.00    -0.225 N 
ATOM      4  N   UNL     1      34.338 -24.282 -14.274  0.00  0.00    -0.161 NA
ATOM      5  C   UNL     1      36.942 -22.794 -16.480  0.00  0.00    +0.052 C 
ATOM      6  C   UNL     1      36.606 -22.688 -17.977  0.00  0.00    +0.103 C 
ATOM      7  C   UNL     1      35.773 -23.320 -15.757  0.00  0.00    +0.026 A 
ATOM      8  C   UNL     1      34.496 -23.149 -16.235  0.00  0.00    +0.134 A 
ATOM      9  C   UNL     1      34.139 -22.470 -17.458  0.00  0.00    +0.270 C 
ATOM     10  C   UNL     1      35.621 -24.024 -14.550  0.00  0.00    +0.152 A 
ENDROOT
BRANCH   2  11
ATOM     11  C   UNL     1      35.102 -21.315 -19.452  0.00  0.00    +0.054 C 
ATOM     12  C   UNL     1      34.789 -19.798 -21.766  0.00  0.00    +0.054 C 
ATOM     13  C   UNL     1      33.827 -21.086 -19.962  0.00  0.00    +0.016 C 
ATOM     14  C   UNL     1      36.221 -20.790 -20.091  0.00  0.00    +0.016 C 
ATOM     15  C   UNL     1      33.670 -20.326 -21.121  0.00  0.00    +0.016 C 
ATOM     16  C   UNL     1      36.065 -20.030 -21.250  0.00  0.00    +0.016 C 
BRANCH  12  18
ATOM     17  O   UNL     1      35.405 -16.999 -22.036  0.00  0.00    -0.275 OA
ATOM     18  N   UNL     1      34.628 -19.010 -22.967  0.00  0.00    -0.259 N 
ATOM     19  C   UNL     1      33.826 -19.591 -24.057  0.00  0.00    +0.098 C 
ATOM     20  C   UNL     1      34.126 -19.014 -25.430  0.00  0.00    +0.022 C 
ATOM     21  C   UNL     1      34.065 -17.505 -25.359  0.00  0.00    +0.011 C 
ATOM     22  C   UNL     1      35.114 -17.021 -24.382  0.00  0.00    +0.086 C 
ATOM     23  C   UNL     1      35.043 -17.666 -23.008  0.00  0.00    +0.229 C 
ENDBRANCH  12  18
ENDBRANCH   2  11
BRANCH   3  24
ATOM     24  C   UNL     1      32.286 -23.818 -15.356  0.00  0.00    +0.083 C 
ATOM     25  C   UNL     1      31.520 -22.843 -14.730  0.00  0.00    +0.022 C 
ATOM     26  C   UNL     1      31.684 -24.877 -16.023  0.00  0.00    +0.022 C 
ATOM     27  C   UNL     1      30.128 -22.929 -14.772  0.00  0.00    +0.038 C 
ATOM     28  C   UNL     1      30.292 -24.962 -16.065  0.00  0.00    +0.038 C 
ATOM     29  C   UNL     1      29.514 -23.988 -15.439  0.00  0.00    +0.139 C 
BRANCH  29  30
ATOM     30  O   UNL     1      28.156 -24.071 -15.481  0.00  0.00    -0.471 OA
ATOM     31  C   UNL     1      27.451 -22.940 -15.992  0.00  0.00    +0.252 C 
ENDBRANCH  29  30
ENDBRANCH   3  24
BRANCH  10  34
ATOM     32  O   UNL     1      37.632 -23.755 -13.339  0.00  0.00    -0.269 OA
ATOM     33  N   UNL     1      36.507 -25.718 -13.064  0.00  0.00    -0.324 N 
ATOM     34  C   UNL     1      36.645 -24.456 -13.644  0.00  0.00    +0.262 C 
ATOM     35  H   UNL     1      37.190 -26.049 -12.438  0.00  0.00    +0.145 HD
ATOM     36  H   UNL     1      35.726 -26.277 -13.282  0.00  0.00    +0.145 HD
ENDBRANCH  10  34
TORSDOF 5
ENDMDL
MODEL 3
REMARK VINA RESULT:      -9.7      2.212      5.150
REMARK  Name = 10182969
REMARK  5 active torsions:
REMARK  status: ('A' for Active; 'I' for Inactive)
REMARK    1  A    between atoms: N_2  and  C_11
REMARK    2  A    between atoms: N_3  and  C_24
REMARK    3  A    between atoms: C_10  and  C_34
REMARK    4  A    between atoms: C_12  and  N_18
REMARK    5  A    between atoms: C_29  and  O_30
REMARK                            x       y       z     vdW  Elec       q    Type
REMARK                         _______ _______ _______ _____ _____    ______ ____
ROOT
ATOM      1  O   UNL     1      35.159 -22.984 -17.252  0.00  0.00    -0.268 OA
ATOM      2  N   UNL     1      32.963 -22.396 -17.882  0.00  0.00    -0.254 N 
ATOM      3  N   UNL     1      34.027 -24.579 -15.064  0.00  0.00    -0.225 N 
ATOM      4  N   UNL     1      33.199 -25.257 -14.245  0.00  0.00    -0.161 NA
ATOM      5  C   UNL     1      31.023 -23.606 -16.775  0.00  0.00    +0.052 C 
ATOM      6  C   UNL     1      31.553 -22.305 -17.403  0.00  0.00    +0.103 C 
ATOM      7  C   UNL     1      32.046 -24.159 -15.871  0.00  0.00    +0.026 A 
ATOM      8  C   UNL     1      33.382 -23.896 -16.053  0.00  0.00    +0.134 A 
ATOM      9  C   UNL     1      33.944 -23.076 -17.100  0.00  0.00    +0.270 C 
ATOM     10  C   UNL     1      31.987 -24.998 -14.746  0.00  0.00    +0.152 A 
ENDROOT
BRANCH   2  11
ATOM     11  C   UNL     1      33.337 -21.625 -19.040  0.00  0.00    +0.054 C 
ATOM     12  C   UNL     1      34.060 -20.133 -21.277  0.00  0.00    +0.054 C 
ATOM     13  C   UNL     1      34.675 -21.545 -19.415  0.00  0.00    +0.016 C 
ATOM     14  C   UNL     1      32.358 -20.965 -19.777  0.00  0.00    +0.016 C 
ATOM     15  C   UNL     1      35.038 -20.798 -20.536  0.00  0.00    +0.016 C 
ATOM     16  C   UNL     1      32.720 -20.217 -20.897  0.00  0.00    +0.016 C 
BRANCH  12  18
ATOM     17  O   UNL     1      35.421 -17.597 -21.239  0.00  0.00    -0.275 OA
ATOM     18  N   UNL     1      34.435 -19.359 -22.439  0.00  0.00    -0.259 N 
ATOM     19  C   UNL     1      33.834 -19.737 -23.729  0.00  0.00    +0.098 C 
ATOM     20  C   UNL     1      34.630 -19.290 -24.944  0.00  0.00    +0.022 C 
ATOM     21  C   UNL     1      34.940 -17.815 -24.819  0.00  0.00    +0.011 C 
ATOM     22  C   UNL     1      35.776 -17.598 -23.577  0.00  0.00    +0.086 C 
ATOM     23  C   UNL     1      35.175 -18.170 -22.304  0.00  0.00    +0.229 C 
ENDBRANCH  12  18
ENDBRANCH   2  11
BRANCH   3  24
ATOM     24  C   UNL     1      35.402 -24.624 -14.831  0.00  0.00    +0.083 C 
ATOM     25  C   UNL     1      36.125 -25.750 -15.203  0.00  0.00    +0.022 C 
ATOM     26  C   UNL     1      36.031 -23.542 -14.228  0.00  0.00    +0.022 C 
ATOM     27  C   UNL     1      37.499 -25.795 -14.969  0.00  0.00    +0.038 C 
ATOM     28  C   UNL     1      37.406 -23.587 -13.995  0.00  0.00    +0.038 C 
ATOM     29  C   UNL     1      38.140 -24.715 -14.365  0.00  0.00    +0.139 C 
BRANCH  29  30
ATOM     30  O   UNL     1      39.481 -24.758 -14.137  0.00  0.00    -0.471 OA
ATOM     31  C   UNL     1      40.243 -25.682 -14.913  0.00  0.00    +0.252 C 
ENDBRANCH  29  30
ENDBRANCH   3  24
BRANCH  10  34
ATOM     32  O   UNL     1      30.080 -26.394 -14.700  0.00  0.00    -0.269 OA
ATOM     33  N   UNL     1      30.536 -25.193 -12.817  0.00  0.00    -0.324 N 
ATOM     34  C   UNL     1      30.825 -25.569 -14.130  0.00  0.00    +0.262 C 
ATOM     35  H   UNL     1      29.746 -25.563 -12.362  0.00  0.00    +0.145 HD
ATOM     36  H   UNL     1      31.122 -24.556 -12.348  0.00  0.00    +0.145 HD
ENDBRANCH  10  34
TORSDOF 5
ENDMDL
MODEL 4
REMARK VINA RESULT:      -9.3      1.571      2.298
REMARK  Name = 10182969
REMARK  5 active torsions:
REMARK  status: ('A' for Active; 'I' for Inactive)
REMARK    1  A    between atoms: N_2  and  C_11
REMARK    2  A    between atoms: N_3  and  C_24
REMARK    3  A    between atoms: C_10  and  C_34
REMARK    4  A    between atoms: C_12  and  N_18
REMARK    5  A    between atoms: C_29  and  O_30
REMARK                            x       y       z     vdW  Elec       q    Type
REMARK                         _______ _______ _______ _____ _____    ______ ____
ROOT
ATOM      1  O   UNL     1      33.319 -21.991 -17.992  0.00  0.00    -0.268 OA
ATOM      2  N   UNL     1      35.606 -21.808 -18.544  0.00  0.00    -0.254 N 
ATOM      3  N   UNL     1      34.092 -23.530 -15.615  0.00  0.00    -0.225 N 
ATOM      4  N   UNL     1      34.777 -24.110 -14.610  0.00  0.00    -0.161 NA
ATOM      5  C   UNL     1      37.327 -22.554 -16.832  0.00  0.00    +0.052 C 
ATOM      6  C   UNL     1      36.954 -22.403 -18.317  0.00  0.00    +0.103 C 
ATOM      7  C   UNL     1      36.175 -23.103 -16.097  0.00  0.00    +0.026 A 
ATOM      8  C   UNL     1      34.887 -22.918 -16.539  0.00  0.00    +0.134 A 
ATOM      9  C   UNL     1      34.500 -22.201 -17.732  0.00  0.00    +0.270 C 
ATOM     10  C   UNL     1      36.052 -23.843 -14.910  0.00  0.00    +0.152 A 
ENDROOT
BRANCH   2  11
ATOM     11  C   UNL     1      35.415 -20.985 -19.713  0.00  0.00    +0.054 C 
ATOM     12  C   UNL     1      35.047 -19.399 -21.970  0.00  0.00    +0.054 C 
ATOM     13  C   UNL     1      34.157 -20.904 -20.303  0.00  0.00    +0.016 C 
ATOM     14  C   UNL     1      36.490 -20.278 -20.242  0.00  0.00    +0.016 C 
ATOM     15  C   UNL     1      33.973 -20.109 -21.434  0.00  0.00    +0.016 C 
ATOM     16  C   UNL     1      36.306 -19.484 -21.374  0.00  0.00    +0.016 C 
BRANCH  12  18
ATOM     17  O   UNL     1      34.642 -20.359 -24.653  0.00  0.00    -0.275 OA
ATOM     18  N   UNL     1      34.857 -18.574 -23.143  0.00  0.00    -0.259 N 
ATOM     19  C   UNL     1      35.176 -17.141 -23.023  0.00  0.00    +0.098 C 
ATOM     20  C   UNL     1      34.475 -16.258 -24.042  0.00  0.00    +0.022 C 
ATOM     21  C   UNL     1      34.699 -16.824 -25.427  0.00  0.00    +0.011 C 
ATOM     22  C   UNL     1      34.102 -18.213 -25.486  0.00  0.00    +0.086 C 
ATOM     23  C   UNL     1      34.582 -19.154 -24.394  0.00  0.00    +0.229 C 
ENDBRANCH  12  18
ENDBRANCH   2  11
BRANCH   3  24
ATOM     24  C   UNL     1      32.699 -23.614 -15.627  0.00  0.00    +0.083 C 
ATOM     25  C   UNL     1      31.970 -23.080 -14.572  0.00  0.00    +0.022 C 
ATOM     26  C   UNL     1      32.058 -24.232 -16.694  0.00  0.00    +0.022 C 
ATOM     27  C   UNL     1      30.578 -23.165 -14.583  0.00  0.00    +0.038 C 
ATOM     28  C   UNL     1      30.666 -24.316 -16.705  0.00  0.00    +0.038 C 
ATOM     29  C   UNL     1      29.926 -23.783 -15.649  0.00  0.00    +0.139 C 
BRANCH  29  30
ATOM     30  O   UNL     1      28.567 -23.866 -15.661  0.00  0.00    -0.471 OA
ATOM     31  C   UNL     1      27.883 -23.173 -16.704  0.00  0.00    +0.252 C 
ENDBRANCH  29  30
ENDBRANCH   3  24
BRANCH  10  34
ATOM     32  O   UNL     1      37.857 -23.535 -13.414  0.00  0.00    -0.269 OA
ATOM     33  N   UNL     1      37.251 -25.681 -13.885  0.00  0.00    -0.324 N 
ATOM     34  C   UNL     1      37.099 -24.302 -14.042  0.00  0.00    +0.262 C 
ATOM     35  H   UNL     1      37.958 -26.033 -13.299  0.00  0.00    +0.145 HD
ATOM     36  H   UNL     1      36.651 -26.299 -14.361  0.00  0.00    +0.145 HD
ENDBRANCH  10  34
TORSDOF 5
ENDMDL
MODEL 5
REMARK VINA RESULT:      -8.0     10.504     17.282
REMARK  Name = 10182969
REMARK  5 active torsions:
REMARK  status: ('A' for Active; 'I' for Inactive)
REMARK    1  A    between atoms: N_2  and  C_11
REMARK    2  A    between atoms: N_3  and  C_24
REMARK    3  A    between atoms: C_10  and  C_34
REMARK    4  A    between atoms: C_12  and  N_18
REMARK    5  A    between atoms: C_29  and  O_30
REMARK                            x       y       z     vdW  Elec       q    Type
REMARK                         _______ _______ _______ _____ _____    ______ ____
ROOT
ATOM      1  O   UNL     1      34.033  -7.820 -25.123  0.00  0.00    -0.268 OA
ATOM      2  N   UNL     1      32.436  -8.509 -23.528  0.00  0.00    -0.254 N 
ATOM      3  N   UNL     1      33.077  -5.065 -24.781  0.00  0.00    -0.225 N 
ATOM      4  N   UNL     1      32.473  -3.947 -24.334  0.00  0.00    -0.161 NA
ATOM      5  C   UNL     1      31.189  -6.727 -22.217  0.00  0.00    +0.052 C 
ATOM      6  C   UNL     1      31.162  -8.128 -22.852  0.00  0.00    +0.103 C 
ATOM      7  C   UNL     1      31.803  -5.779 -23.161  0.00  0.00    +0.026 A 
ATOM      8  C   UNL     1      32.702  -6.195 -24.113  0.00  0.00    +0.134 A 
ATOM      9  C   UNL     1      33.144  -7.554 -24.319  0.00  0.00    +0.270 C 
ATOM     10  C   UNL     1      31.697  -4.390 -23.340  0.00  0.00    +0.152 A 
ENDROOT
BRANCH   2  11
ATOM     11  C   UNL     1      32.820  -9.898 -23.519  0.00  0.00    +0.054 C 
ATOM     12  C   UNL     1      33.560 -12.582 -23.502  0.00  0.00    +0.054 C 
ATOM     13  C   UNL     1      33.753 -10.364 -24.441  0.00  0.00    +0.016 C 
ATOM     14  C   UNL     1      32.255 -10.765 -22.588  0.00  0.00    +0.016 C 
ATOM     15  C   UNL     1      34.124 -11.709 -24.432  0.00  0.00    +0.016 C 
ATOM     16  C   UNL     1      32.625 -12.110 -22.580  0.00  0.00    +0.016 C 
BRANCH  12  18
ATOM     17  O   UNL     1      33.004 -14.493 -25.581  0.00  0.00    -0.275 OA
ATOM     18  N   UNL     1      33.944 -13.976 -23.492  0.00  0.00    -0.259 N 
ATOM     19  C   UNL     1      34.400 -14.545 -22.212  0.00  0.00    +0.098 C 
ATOM     20  C   UNL     1      35.274 -15.781 -22.354  0.00  0.00    +0.022 C 
ATOM     21  C   UNL     1      34.583 -16.776 -23.258  0.00  0.00    +0.011 C 
ATOM     22  C   UNL     1      34.396 -16.147 -24.621  0.00  0.00    +0.086 C 
ATOM     23  C   UNL     1      33.693 -14.800 -24.604  0.00  0.00    +0.229 C 
ENDBRANCH  12  18
ENDBRANCH   2  11
BRANCH   3  24
ATOM     24  C   UNL     1      33.978  -4.975 -25.842  0.00  0.00    +0.083 C 
ATOM     25  C   UNL     1      35.325  -5.228 -25.622  0.00  0.00    +0.022 C 
ATOM     26  C   UNL     1      33.516  -4.632 -27.107  0.00  0.00    +0.022 C 
ATOM     27  C   UNL     1      36.226  -5.136 -26.683  0.00  0.00    +0.038 C 
ATOM     28  C   UNL     1      34.417  -4.541 -28.168  0.00  0.00    +0.038 C 
ATOM     29  C   UNL     1      35.773  -4.793 -27.955  0.00  0.00    +0.139 C 
BRANCH  29  30
ATOM     30  O   UNL     1      36.652  -4.704 -28.991  0.00  0.00    -0.471 OA
ATOM     31  C   UNL     1      37.769  -5.592 -28.974  0.00  0.00    +0.252 C 
ENDBRANCH  29  30
ENDBRANCH   3  24
BRANCH  10  34
ATOM     32  O   UNL     1      29.907  -3.806 -21.910  0.00  0.00    -0.269 OA
ATOM     33  N   UNL     1      31.248  -2.114 -22.643  0.00  0.00    -0.324 N 
ATOM     34  C   UNL     1      30.890  -3.463 -22.600  0.00  0.00    +0.262 C 
ATOM     35  H   UNL     1      30.718  -1.449 -22.148  0.00  0.00    +0.145 HD
ATOM     36  H   UNL     1      32.030  -1.830 -23.169  0.00  0.00    +0.145 HD
ENDBRANCH  10  34
TORSDOF 5
ENDMDL
