MODEL 1
REMARK VINA RESULT:     -11.2      0.000      0.000
REMARK  Name = 25113614
REMARK  7 active torsions:
REMARK  status: ('A' for Active; 'I' for Inactive)
REMARK    1  A    between atoms: C_3  and  C_10
REMARK    2  A    between atoms: C_7  and  C_25
REMARK    3  A    between atoms: N_9  and  C_12
REMARK    4  A    between atoms: C_12  and  C_13
REMARK    5  A    between atoms: C_18  and  C_21
REMARK    6  A    between atoms: C_25  and  N_26
REMARK    7  A    between atoms: N_26  and  C_29
REMARK                            x       y       z     vdW  Elec       q    Type
REMARK                         _______ _______ _______ _____ _____    ______ ____
ROOT
ATOM      1  O   UNL     1      35.495 -25.379 -11.945  0.00  0.00    -0.277 OA
ATOM      2  N   UNL     1      36.222 -24.231 -13.814  0.00  0.00    -0.275 N 
ATOM      3  C   UNL     1      36.102 -23.197 -14.840  0.00  0.00    +0.152 C 
ATOM      4  C   UNL     1      37.540 -22.903 -15.255  0.00  0.00    +0.031 C 
ATOM      5  C   UNL     1      37.572 -24.778 -13.778  0.00  0.00    +0.094 C 
ATOM      6  C   UNL     1      38.255 -24.232 -15.020  0.00  0.00    +0.024 C 
ATOM      7  C   UNL     1      35.276 -24.590 -12.867  0.00  0.00    +0.204 C 
ENDROOT
BRANCH   3  10
ATOM      8  O   UNL     1      35.133 -24.978 -16.101  0.00  0.00    -0.273 OA
ATOM      9  N   UNL     1      34.897 -22.794 -16.870  0.00  0.00    -0.299 N 
ATOM     10  C   UNL     1      35.326 -23.770 -15.988  0.00  0.00    +0.241 C 
ATOM     11  H   UNL     1      35.114 -21.854 -16.670  0.00  0.00    +0.150 HD
BRANCH   9  12
ATOM     12  C   UNL     1      34.148 -23.086 -18.070  0.00  0.00    +0.116 C 
BRANCH  12  13
ATOM     13  C   UNL     1      34.370 -22.054 -19.137  0.00  0.00    -0.003 C 
ATOM     14  C   UNL     1      35.669 -21.694 -19.501  0.00  0.00    -0.003 C 
ATOM     15  C   UNL     1      33.279 -21.451 -19.763  0.00  0.00    -0.003 C 
ATOM     16  C   UNL     1      35.875 -20.734 -20.490  0.00  0.00    +0.002 C 
ATOM     17  C   UNL     1      33.486 -20.490 -20.752  0.00  0.00    +0.002 C 
ATOM     18  C   UNL     1      34.784 -20.131 -21.117  0.00  0.00    +0.031 C 
BRANCH  18  21
ATOM     19  N   UNL     1      34.635 -19.362 -23.473  0.00  0.00    -0.343 N 
ATOM     20  N   UNL     1      35.560 -17.974 -21.836  0.00  0.00    -0.285 NA
ATOM     21  C   UNL     1      35.000 -19.130 -22.148  0.00  0.00    +0.117 C 
ATOM     22  H   UNL     1      34.791 -18.670 -24.156  0.00  0.00    +0.144 HD
ATOM     23  H   UNL     1      34.221 -20.218 -23.726  0.00  0.00    +0.144 HD
ATOM     24  H   UNL     1      35.706 -17.294 -22.532  0.00  0.00    +0.188 HD
ENDBRANCH  18  21
ENDBRANCH  12  13
ENDBRANCH   9  12
ENDBRANCH   3  10
BRANCH   7  25
ATOM     25  C   UNL     1      33.918 -23.954 -13.012  0.00  0.00    +0.006 C 
BRANCH  25  26
ATOM     26  N   UNL     1      32.942 -25.030 -13.021  0.00  0.00    +0.391 N 
ATOM     27  H   UNL     1      33.430 -25.925 -13.054  0.00  0.00    -0.084 HD
ATOM     28  H   UNL     1      32.376 -24.969 -12.175  0.00  0.00    -0.084 HD
BRANCH  26  29
ATOM     29  C   UNL     1      32.062 -24.917 -14.190  0.00  0.00    -0.061 C 
ATOM     30  C   UNL     1      32.094 -23.461 -14.667  0.00  0.00    -0.021 C 
ATOM     31  C   UNL     1      30.668 -25.437 -13.809  0.00  0.00    -0.021 C 
ATOM     32  C   UNL     1      31.175 -23.138 -15.845  0.00  0.00    -0.002 C 
ATOM     33  C   UNL     1      29.762 -25.649 -15.021  0.00  0.00    -0.002 C 
ATOM     34  C   UNL     1      29.705 -23.082 -15.445  0.00  0.00    -0.000 C 
ATOM     35  C   UNL     1      28.977 -24.422 -15.470  0.00  0.00    -0.000 C 
ENDBRANCH  26  29
ENDBRANCH  25  26
ENDBRANCH   7  25
TORSDOF 7
ENDMDL
MODEL 2
REMARK VINA RESULT:     -10.7      2.332      6.384
REMARK  Name = 25113614
REMARK  7 active torsions:
REMARK  status: ('A' for Active; 'I' for Inactive)
REMARK    1  A    between atoms: C_3  and  C_10
REMARK    2  A    between atoms: C_7  and  C_25
REMARK    3  A    between atoms: N_9  and  C_12
REMARK    4  A    between atoms: C_12  and  C_13
REMARK    5  A    between atoms: C_18  and  C_21
REMARK    6  A    between atoms: C_25  and  N_26
REMARK    7  A    between atoms: N_26  and  C_29
REMARK                            x       y       z     vdW  Elec       q    Type
REMARK                         _______ _______ _______ _____ _____    ______ ____
ROOT
ATOM      1  O   UNL     1      38.747 -22.820 -15.933  0.00  0.00    -0.277 OA
ATOM      2  N   UNL     1      37.452 -24.544 -15.102  0.00  0.00    -0.275 N 
ATOM      3  C   UNL     1      36.240 -25.358 -15.051  0.00  0.00    +0.152 C 
ATOM      4  C   UNL     1      36.710 -26.711 -14.524  0.00  0.00    +0.031 C 
ATOM      5  C   UNL     1      38.548 -25.192 -14.395  0.00  0.00    +0.094 C 
ATOM      6  C   UNL     1      37.909 -26.351 -13.648  0.00  0.00    +0.024 C 
ATOM      7  C   UNL     1      37.655 -23.382 -15.830  0.00  0.00    +0.204 C 
ENDROOT
BRANCH   3  10
ATOM      8  O   UNL     1      35.678 -23.954 -13.204  0.00  0.00    -0.273 OA
ATOM      9  N   UNL     1      33.978 -25.100 -14.307  0.00  0.00    -0.299 N 
ATOM     10  C   UNL     1      35.289 -24.715 -14.086  0.00  0.00    +0.241 C 
ATOM     11  H   UNL     1      33.791 -25.718 -15.051  0.00  0.00    +0.150 HD
BRANCH   9  12
ATOM     12  C   UNL     1      32.872 -24.639 -13.500  0.00  0.00    +0.116 C 
BRANCH  12  13
ATOM     13  C   UNL     1      31.646 -24.376 -14.325  0.00  0.00    -0.003 C 
ATOM     14  C   UNL     1      31.691 -23.449 -15.367  0.00  0.00    -0.003 C 
ATOM     15  C   UNL     1      30.460 -25.057 -14.050  0.00  0.00    -0.003 C 
ATOM     16  C   UNL     1      30.552 -23.204 -16.132  0.00  0.00    +0.002 C 
ATOM     17  C   UNL     1      29.321 -24.811 -14.815  0.00  0.00    +0.002 C 
ATOM     18  C   UNL     1      29.366 -23.885 -15.857  0.00  0.00    +0.031 C 
BRANCH  18  21
ATOM     19  N   UNL     1      27.480 -22.428 -16.554  0.00  0.00    -0.343 N 
ATOM     20  N   UNL     1      27.741 -24.550 -17.497  0.00  0.00    -0.285 NA
ATOM     21  C   UNL     1      28.179 -23.629 -16.656  0.00  0.00    +0.117 C 
ATOM     22  H   UNL     1      26.678 -22.275 -17.104  0.00  0.00    +0.144 HD
ATOM     23  H   UNL     1      27.788 -21.732 -15.930  0.00  0.00    +0.144 HD
ATOM     24  H   UNL     1      26.938 -24.379 -18.040  0.00  0.00    +0.188 HD
ENDBRANCH  18  21
ENDBRANCH  12  13
ENDBRANCH   9  12
ENDBRANCH   3  10
BRANCH   7  25
ATOM     25  C   UNL     1      36.442 -22.811 -16.519  0.00  0.00    +0.006 C 
BRANCH  25  26
ATOM     26  N   UNL     1      36.923 -21.992 -17.618  0.00  0.00    +0.391 N 
ATOM     27  H   UNL     1      36.981 -21.021 -17.313  0.00  0.00    -0.084 HD
ATOM     28  H   UNL     1      37.844 -22.328 -17.901  0.00  0.00    -0.084 HD
BRANCH  26  29
ATOM     29  C   UNL     1      36.012 -22.084 -18.765  0.00  0.00    -0.061 C 
ATOM     30  C   UNL     1      36.325 -20.920 -19.712  0.00  0.00    -0.021 C 
ATOM     31  C   UNL     1      34.568 -22.117 -18.244  0.00  0.00    -0.021 C 
ATOM     32  C   UNL     1      35.419 -20.814 -20.940  0.00  0.00    -0.002 C 
ATOM     33  C   UNL     1      33.558 -22.515 -19.320  0.00  0.00    -0.002 C 
ATOM     34  C   UNL     1      34.026 -20.298 -20.599  0.00  0.00    -0.000 C 
ATOM     35  C   UNL     1      33.027 -21.367 -20.171  0.00  0.00    -0.000 C 
ENDBRANCH  26  29
ENDBRANCH  25  26
ENDBRANCH   7  25
TORSDOF 7
ENDMDL
MODEL 3
REMARK VINA RESULT:      -9.7      7.457     12.006
REMARK  Name = 25113614
REMARK  7 active torsions:
REMARK  status: ('A' for Active; 'I' for Inactive)
REMARK    1  A    between atoms: C_3  and  C_10
REMARK    2  A    between atoms: C_7  and  C_25
REMARK    3  A    between atoms: N_9  and  C_12
REMARK    4  A    between atoms: C_12  and  C_13
REMARK    5  A    between atoms: C_18  and  C_21
REMARK    6  A    between atoms: C_25  and  N_26
REMARK    7  A    between atoms: N_26  and  C_29
REMARK                            x       y       z     vdW  Elec       q    Type
REMARK                         _______ _______ _______ _____ _____    ______ ____
ROOT
ATOM      1  O   UNL     1      34.284 -17.771 -24.615  0.00  0.00    -0.277 OA
ATOM      2  N   UNL     1      34.076 -15.479 -24.409  0.00  0.00    -0.275 N 
ATOM      3  C   UNL     1      34.449 -14.179 -23.856  0.00  0.00    +0.152 C 
ATOM      4  C   UNL     1      34.045 -13.176 -24.933  0.00  0.00    +0.031 C 
ATOM      5  C   UNL     1      33.236 -15.325 -25.589  0.00  0.00    +0.094 C 
ATOM      6  C   UNL     1      32.860 -13.853 -25.619  0.00  0.00    +0.024 C 
ATOM      7  C   UNL     1      34.539 -16.725 -24.015  0.00  0.00    +0.204 C 
ENDROOT
BRANCH   3  10
ATOM      8  O   UNL     1      33.888 -14.582 -21.571  0.00  0.00    -0.273 OA
ATOM      9  N   UNL     1      32.652 -13.022 -22.777  0.00  0.00    -0.299 N 
ATOM     10  C   UNL     1      33.653 -13.961 -22.604  0.00  0.00    +0.241 C 
ATOM     11  H   UNL     1      32.563 -12.588 -23.657  0.00  0.00    +0.150 HD
BRANCH   9  12
ATOM     12  C   UNL     1      31.730 -12.646 -21.730  0.00  0.00    +0.116 C 
BRANCH  12  13
ATOM     13  C   UNL     1      31.848 -11.193 -21.372  0.00  0.00    -0.003 C 
ATOM     14  C   UNL     1      32.040 -10.241 -22.374  0.00  0.00    -0.003 C 
ATOM     15  C   UNL     1      31.769 -10.794 -20.038  0.00  0.00    -0.003 C 
ATOM     16  C   UNL     1      32.152  -8.892 -22.042  0.00  0.00    +0.002 C 
ATOM     17  C   UNL     1      31.880  -9.445 -19.706  0.00  0.00    +0.002 C 
ATOM     18  C   UNL     1      32.071  -8.492 -20.707  0.00  0.00    +0.031 C 
BRANCH  18  21
ATOM     19  N   UNL     1      31.440  -6.112 -21.022  0.00  0.00    -0.343 N 
ATOM     20  N   UNL     1      33.019  -6.708 -19.407  0.00  0.00    -0.285 NA
ATOM     21  C   UNL     1      32.187  -7.085 -20.362  0.00  0.00    +0.117 C 
ATOM     22  H   UNL     1      31.534  -5.164 -20.772  0.00  0.00    +0.144 HD
ATOM     23  H   UNL     1      30.818  -6.372 -21.739  0.00  0.00    +0.144 HD
ATOM     24  H   UNL     1      33.099  -5.756 -19.170  0.00  0.00    +0.188 HD
ENDBRANCH  18  21
ENDBRANCH  12  13
ENDBRANCH   9  12
ENDBRANCH   3  10
BRANCH   7  25
ATOM     25  C   UNL     1      35.401 -16.751 -22.779  0.00  0.00    +0.006 C 
BRANCH  25  26
ATOM     26  N   UNL     1      36.076 -18.038 -22.759  0.00  0.00    +0.391 N 
ATOM     27  H   UNL     1      35.775 -18.587 -23.564  0.00  0.00    -0.084 HD
ATOM     28  H   UNL     1      37.083 -17.883 -22.796  0.00  0.00    -0.084 HD
BRANCH  26  29
ATOM     29  C   UNL     1      35.754 -18.769 -21.527  0.00  0.00    -0.061 C 
ATOM     30  C   UNL     1      37.045 -19.411 -21.008  0.00  0.00    -0.021 C 
ATOM     31  C   UNL     1      34.619 -19.759 -21.826  0.00  0.00    -0.021 C 
ATOM     32  C   UNL     1      36.886 -20.277 -19.758  0.00  0.00    -0.002 C 
ATOM     33  C   UNL     1      34.000 -20.351 -20.561  0.00  0.00    -0.002 C 
ATOM     34  C   UNL     1      36.217 -21.615 -20.051  0.00  0.00    -0.000 C 
ATOM     35  C   UNL     1      34.692 -21.596 -20.018  0.00  0.00    -0.000 C 
ENDBRANCH  26  29
ENDBRANCH  25  26
ENDBRANCH   7  25
TORSDOF 7
ENDMDL
MODEL 4
REMARK VINA RESULT:      -9.0      2.869      5.469
REMARK  Name = 25113614
REMARK  7 active torsions:
REMARK  status: ('A' for Active; 'I' for Inactive)
REMARK    1  A    between atoms: C_3  and  C_10
REMARK    2  A    between atoms: C_7  and  C_25
REMARK    3  A    between atoms: N_9  and  C_12
REMARK    4  A    between atoms: C_12  and  C_13
REMARK    5  A    between atoms: C_18  and  C_21
REMARK    6  A    between atoms: C_25  and  N_26
REMARK    7  A    between atoms: N_26  and  C_29
REMARK                            x       y       z     vdW  Elec       q    Type
REMARK                         _______ _______ _______ _____ _____    ______ ____
ROOT
ATOM      1  O   UNL     1      34.136 -23.196 -15.299  0.00  0.00    -0.277 OA
ATOM      2  N   UNL     1      34.419 -22.809 -17.560  0.00  0.00    -0.275 N 
ATOM      3  C   UNL     1      35.171 -22.875 -18.811  0.00  0.00    +0.152 C 
ATOM      4  C   UNL     1      34.101 -22.866 -19.899  0.00  0.00    +0.031 C 
ATOM      5  C   UNL     1      33.021 -22.482 -17.804  0.00  0.00    +0.094 C 
ATOM      6  C   UNL     1      32.960 -22.072 -19.267  0.00  0.00    +0.024 C 
ATOM      7  C   UNL     1      34.866 -23.147 -16.292  0.00  0.00    +0.204 C 
ENDROOT
BRANCH   3  10
ATOM      8  O   UNL     1      36.794 -21.324 -17.998  0.00  0.00    -0.273 OA
ATOM      9  N   UNL     1      35.829 -20.956 -20.084  0.00  0.00    -0.299 N 
ATOM     10  C   UNL     1      36.028 -21.648 -18.902  0.00  0.00    +0.241 C 
ATOM     11  H   UNL     1      35.185 -21.318 -20.736  0.00  0.00    +0.150 HD
BRANCH   9  12
ATOM     12  C   UNL     1      36.518 -19.728 -20.407  0.00  0.00    +0.116 C 
BRANCH  12  13
ATOM     13  C   UNL     1      35.909 -19.038 -21.593  0.00  0.00    -0.003 C 
ATOM     14  C   UNL     1      35.256 -19.783 -22.575  0.00  0.00    -0.003 C 
ATOM     15  C   UNL     1      35.999 -17.651 -21.715  0.00  0.00    -0.003 C 
ATOM     16  C   UNL     1      34.692 -19.143 -23.677  0.00  0.00    +0.002 C 
ATOM     17  C   UNL     1      35.435 -17.010 -22.818  0.00  0.00    +0.002 C 
ATOM     18  C   UNL     1      34.781 -17.755 -23.799  0.00  0.00    +0.031 C 
BRANCH  18  21
ATOM     19  N   UNL     1      33.769 -15.763 -24.882  0.00  0.00    -0.343 N 
ATOM     20  N   UNL     1      34.046 -17.745 -26.087  0.00  0.00    -0.285 NA
ATOM     21  C   UNL     1      34.193 -17.088 -24.949  0.00  0.00    +0.117 C 
ATOM     22  H   UNL     1      33.374 -15.330 -25.672  0.00  0.00    +0.144 HD
ATOM     23  H   UNL     1      33.866 -15.258 -24.042  0.00  0.00    +0.144 HD
ATOM     24  H   UNL     1      33.649 -17.295 -26.867  0.00  0.00    +0.188 HD
ENDBRANCH  18  21
ENDBRANCH  12  13
ENDBRANCH   9  12
ENDBRANCH   3  10
BRANCH   7  25
ATOM     25  C   UNL     1      36.334 -23.467 -16.169  0.00  0.00    +0.006 C 
BRANCH  25  26
ATOM     26  N   UNL     1      36.873 -22.601 -15.135  0.00  0.00    +0.391 N 
ATOM     27  H   UNL     1      37.559 -21.970 -15.551  0.00  0.00    -0.084 HD
ATOM     28  H   UNL     1      36.110 -22.067 -14.721  0.00  0.00    -0.084 HD
BRANCH  26  29
ATOM     29  C   UNL     1      37.522 -23.395 -14.085  0.00  0.00    -0.061 C 
ATOM     30  C   UNL     1      37.956 -24.729 -14.703  0.00  0.00    -0.021 C 
ATOM     31  C   UNL     1      36.557 -23.522 -12.898  0.00  0.00    -0.021 C 
ATOM     32  C   UNL     1      38.594 -25.723 -13.731  0.00  0.00    -0.002 C 
ATOM     33  C   UNL     1      37.234 -24.063 -11.639  0.00  0.00    -0.002 C 
ATOM     34  C   UNL     1      37.576 -26.368 -12.798  0.00  0.00    -0.000 C 
ATOM     35  C   UNL     1      37.277 -25.583 -11.525  0.00  0.00    -0.000 C 
ENDBRANCH  26  29
ENDBRANCH  25  26
ENDBRANCH   7  25
TORSDOF 7
ENDMDL
MODEL 5
REMARK VINA RESULT:      -9.0      9.181     13.974
REMARK  Name = 25113614
REMARK  7 active torsions:
REMARK  status: ('A' for Active; 'I' for Inactive)
REMARK    1  A    between atoms: C_3  and  C_10
REMARK    2  A    between atoms: C_7  and  C_25
REMARK    3  A    between atoms: N_9  and  C_12
REMARK    4  A    between atoms: C_12  and  C_13
REMARK    5  A    between atoms: C_18  and  C_21
REMARK    6  A    between atoms: C_25  and  N_26
REMARK    7  A    between atoms: N_26  and  C_29
REMARK                            x       y       z     vdW  Elec       q    Type
REMARK                         _______ _______ _______ _____ _____    ______ ____
ROOT
ATOM      1  O   UNL     1      33.100 -15.824 -25.848  0.00  0.00    -0.277 OA
ATOM      2  N   UNL     1      33.516 -13.653 -25.176  0.00  0.00    -0.275 N 
ATOM      3  C   UNL     1      34.080 -12.651 -24.274  0.00  0.00    +0.152 C 
ATOM      4  C   UNL     1      34.300 -11.425 -25.156  0.00  0.00    +0.031 C 
ATOM      5  C   UNL     1      33.119 -13.053 -26.443  0.00  0.00    +0.094 C 
ATOM      6  C   UNL     1      33.209 -11.553 -26.217  0.00  0.00    +0.024 C 
ATOM      7  C   UNL     1      33.469 -15.025 -24.986  0.00  0.00    +0.204 C 
ENDROOT
BRANCH   3  10
ATOM      8  O   UNL     1      32.442 -13.259 -22.647  0.00  0.00    -0.273 OA
ATOM      9  N   UNL     1      32.925 -11.005 -22.974  0.00  0.00    -0.299 N 
ATOM     10  C   UNL     1      33.066 -12.362 -23.208  0.00  0.00    +0.241 C 
ATOM     11  H   UNL     1      33.485 -10.380 -23.489  0.00  0.00    +0.150 HD
BRANCH   9  12
ATOM     12  C   UNL     1      31.996 -10.462 -22.010  0.00  0.00    +0.116 C 
BRANCH  12  13
ATOM     13  C   UNL     1      31.796  -8.986 -22.193  0.00  0.00    -0.003 C 
ATOM     14  C   UNL     1      31.338  -8.490 -23.414  0.00  0.00    -0.003 C 
ATOM     15  C   UNL     1      32.069  -8.108 -21.143  0.00  0.00    -0.003 C 
ATOM     16  C   UNL     1      31.154  -7.119 -23.586  0.00  0.00    +0.002 C 
ATOM     17  C   UNL     1      31.885  -6.737 -21.314  0.00  0.00    +0.002 C 
ATOM     18  C   UNL     1      31.427  -6.241 -22.535  0.00  0.00    +0.031 C 
BRANCH  18  21
ATOM     19  N   UNL     1      30.350  -4.092 -21.913  0.00  0.00    -0.343 N 
ATOM     20  N   UNL     1      31.902  -4.170 -23.658  0.00  0.00    -0.285 NA
ATOM     21  C   UNL     1      31.234  -4.811 -22.715  0.00  0.00    +0.117 C 
ATOM     22  H   UNL     1      30.234  -3.124 -22.052  0.00  0.00    +0.144 HD
ATOM     23  H   UNL     1      29.840  -4.552 -21.207  0.00  0.00    +0.144 HD
ATOM     24  H   UNL     1      31.773  -3.203 -23.781  0.00  0.00    +0.188 HD
ENDBRANCH  18  21
ENDBRANCH  12  13
ENDBRANCH   9  12
ENDBRANCH   3  10
BRANCH   7  25
ATOM     25  C   UNL     1      33.908 -15.521 -23.631  0.00  0.00    +0.006 C 
BRANCH  25  26
ATOM     26  N   UNL     1      35.332 -15.797 -23.720  0.00  0.00    +0.391 N 
ATOM     27  H   UNL     1      35.631 -15.710 -24.691  0.00  0.00    -0.084 HD
ATOM     28  H   UNL     1      35.834 -15.128 -23.136  0.00  0.00    -0.084 HD
BRANCH  26  29
ATOM     29  C   UNL     1      35.624 -17.155 -23.244  0.00  0.00    -0.061 C 
ATOM     30  C   UNL     1      34.700 -18.125 -23.990  0.00  0.00    -0.021 C 
ATOM     31  C   UNL     1      35.483 -17.181 -21.716  0.00  0.00    -0.021 C 
ATOM     32  C   UNL     1      34.816 -19.590 -23.570  0.00  0.00    -0.002 C 
ATOM     33  C   UNL     1      36.054 -18.452 -21.090  0.00  0.00    -0.002 C 
ATOM     34  C   UNL     1      34.179 -19.865 -22.213  0.00  0.00    -0.000 C 
ATOM     35  C   UNL     1      35.089 -19.631 -21.012  0.00  0.00    -0.000 C 
ENDBRANCH  26  29
ENDBRANCH  25  26
ENDBRANCH   7  25
TORSDOF 7
ENDMDL
MODEL 6
REMARK VINA RESULT:      -8.9     10.122     14.593
REMARK  Name = 25113614
REMARK  7 active torsions:
REMARK  status: ('A' for Active; 'I' for Inactive)
REMARK    1  A    between atoms: C_3  and  C_10
REMARK    2  A    between atoms: C_7  and  C_25
REMARK    3  A    between atoms: N_9  and  C_12
REMARK    4  A    between atoms: C_12  and  C_13
REMARK    5  A    between atoms: C_18  and  C_21
REMARK    6  A    between atoms: C_25  and  N_26
REMARK    7  A    between atoms: N_26  and  C_29
REMARK                            x       y       z     vdW  Elec       q    Type
REMARK                         _______ _______ _______ _____ _____    ______ ____
ROOT
ATOM      1  O   UNL     1      33.385 -14.544 -20.658  0.00  0.00    -0.277 OA
ATOM      2  N   UNL     1      32.384 -12.634 -21.488  0.00  0.00    -0.275 N 
ATOM      3  C   UNL     1      31.842 -11.807 -22.563  0.00  0.00    +0.152 C 
ATOM      4  C   UNL     1      30.805 -10.921 -21.877  0.00  0.00    +0.031 C 
ATOM      5  C   UNL     1      31.970 -12.135 -20.183  0.00  0.00    +0.094 C 
ATOM      6  C   UNL     1      31.348 -10.775 -20.458  0.00  0.00    +0.024 C 
ATOM      7  C   UNL     1      33.074 -13.829 -21.613  0.00  0.00    +0.204 C 
ENDROOT
BRANCH   3  10
ATOM      8  O   UNL     1      33.891 -11.482 -23.745  0.00  0.00    -0.273 OA
ATOM      9  N   UNL     1      32.814  -9.634 -22.827  0.00  0.00    -0.299 N 
ATOM     10  C   UNL     1      32.960 -10.979 -23.120  0.00  0.00    +0.241 C 
ATOM     11  H   UNL     1      32.020  -9.350 -22.317  0.00  0.00    +0.150 HD
BRANCH   9  12
ATOM     12  C   UNL     1      33.768  -8.627 -23.231  0.00  0.00    +0.116 C 
BRANCH  12  13
ATOM     13  C   UNL     1      33.167  -7.252 -23.232  0.00  0.00    -0.003 C 
ATOM     14  C   UNL     1      33.376  -6.400 -24.317  0.00  0.00    -0.003 C 
ATOM     15  C   UNL     1      32.401  -6.824 -22.147  0.00  0.00    -0.003 C 
ATOM     16  C   UNL     1      32.820  -5.122 -24.317  0.00  0.00    +0.002 C 
ATOM     17  C   UNL     1      31.845  -5.545 -22.148  0.00  0.00    +0.002 C 
ATOM     18  C   UNL     1      32.053  -4.694 -23.233  0.00  0.00    +0.031 C 
BRANCH  18  21
ATOM     19  N   UNL     1      30.451  -3.013 -22.353  0.00  0.00    -0.343 N 
ATOM     20  N   UNL     1      31.912  -2.453 -24.089  0.00  0.00    -0.285 NA
ATOM     21  C   UNL     1      31.473  -3.361 -23.234  0.00  0.00    +0.117 C 
ATOM     22  H   UNL     1      30.073  -2.104 -22.371  0.00  0.00    +0.144 HD
ATOM     23  H   UNL     1      30.108  -3.676 -21.712  0.00  0.00    +0.144 HD
ATOM     24  H   UNL     1      31.522  -1.550 -24.091  0.00  0.00    +0.188 HD
ENDBRANCH  18  21
ENDBRANCH  12  13
ENDBRANCH   9  12
ENDBRANCH   3  10
BRANCH   7  25
ATOM     25  C   UNL     1      33.443 -14.238 -23.016  0.00  0.00    +0.006 C 
BRANCH  25  26
ATOM     26  N   UNL     1      34.873 -14.496 -23.022  0.00  0.00    +0.391 N 
ATOM     27  H   UNL     1      35.343 -13.764 -23.555  0.00  0.00    -0.084 HD
ATOM     28  H   UNL     1      35.211 -14.502 -22.060  0.00  0.00    -0.084 HD
BRANCH  26  29
ATOM     29  C   UNL     1      35.158 -15.799 -23.635  0.00  0.00    -0.061 C 
ATOM     30  C   UNL     1      34.086 -16.066 -24.697  0.00  0.00    -0.021 C 
ATOM     31  C   UNL     1      35.240 -16.857 -22.525  0.00  0.00    -0.021 C 
ATOM     32  C   UNL     1      34.184 -17.422 -25.398  0.00  0.00    -0.002 C 
ATOM     33  C   UNL     1      35.828 -18.181 -23.010  0.00  0.00    -0.002 C 
ATOM     34  C   UNL     1      33.737 -18.576 -24.508  0.00  0.00    -0.000 C 
ATOM     35  C   UNL     1      34.823 -19.158 -23.610  0.00  0.00    -0.000 C 
ENDBRANCH  26  29
ENDBRANCH  25  26
ENDBRANCH   7  25
TORSDOF 7
ENDMDL
MODEL 7
REMARK VINA RESULT:      -8.6     12.315     17.635
REMARK  Name = 25113614
REMARK  7 active torsions:
REMARK  status: ('A' for Active; 'I' for Inactive)
REMARK    1  A    between atoms: C_3  and  C_10
REMARK    2  A    between atoms: C_7  and  C_25
REMARK    3  A    between atoms: N_9  and  C_12
REMARK    4  A    between atoms: C_12  and  C_13
REMARK    5  A    between atoms: C_18  and  C_21
REMARK    6  A    between atoms: C_25  and  N_26
REMARK    7  A    between atoms: N_26  and  C_29
REMARK                            x       y       z     vdW  Elec       q    Type
REMARK                         _______ _______ _______ _____ _____    ______ ____
ROOT
ATOM      1  O   UNL     1      30.162  -4.766 -21.740  0.00  0.00    -0.277 OA
ATOM      2  N   UNL     1      31.695  -6.491 -21.638  0.00  0.00    -0.275 N 
ATOM      3  C   UNL     1      32.688  -7.391 -22.221  0.00  0.00    +0.152 C 
ATOM      4  C   UNL     1      33.590  -7.772 -21.051  0.00  0.00    +0.031 C 
ATOM      5  C   UNL     1      31.751  -6.521 -20.183  0.00  0.00    +0.094 C 
ATOM      6  C   UNL     1      32.657  -7.694 -19.845  0.00  0.00    +0.024 C 
ATOM      7  C   UNL     1      30.882  -5.590 -22.307  0.00  0.00    +0.204 C 
ENDROOT
BRANCH   3  10
ATOM      8  O   UNL     1      31.605  -8.670 -23.921  0.00  0.00    -0.273 OA
ATOM      9  N   UNL     1      31.768  -9.556 -21.775  0.00  0.00    -0.299 N 
ATOM     10  C   UNL     1      31.970  -8.595 -22.751  0.00  0.00    +0.241 C 
ATOM     11  H   UNL     1      32.110  -9.381 -20.868  0.00  0.00    +0.150 HD
BRANCH   9  12
ATOM     12  C   UNL     1      31.080 -10.802 -22.022  0.00  0.00    +0.116 C 
BRANCH  12  13
ATOM     13  C   UNL     1      32.018 -11.974 -22.008  0.00  0.00    -0.003 C 
ATOM     14  C   UNL     1      31.968 -12.895 -20.961  0.00  0.00    -0.003 C 
ATOM     15  C   UNL     1      32.940 -12.142 -23.041  0.00  0.00    -0.003 C 
ATOM     16  C   UNL     1      32.841 -13.982 -20.947  0.00  0.00    +0.002 C 
ATOM     17  C   UNL     1      33.813 -13.229 -23.026  0.00  0.00    +0.002 C 
ATOM     18  C   UNL     1      33.763 -14.150 -21.980  0.00  0.00    +0.031 C 
BRANCH  18  21
ATOM     19  N   UNL     1      34.970 -15.961 -20.783  0.00  0.00    -0.343 N 
ATOM     20  N   UNL     1      35.238 -15.690 -23.089  0.00  0.00    -0.285 NA
ATOM     21  C   UNL     1      34.672 -15.285 -21.965  0.00  0.00    +0.117 C 
ATOM     22  H   UNL     1      35.588 -16.727 -20.796  0.00  0.00    +0.144 HD
ATOM     23  H   UNL     1      34.561 -15.672 -19.935  0.00  0.00    +0.144 HD
ATOM     24  H   UNL     1      35.852 -16.458 -23.081  0.00  0.00    +0.188 HD
ENDBRANCH  18  21
ENDBRANCH  12  13
ENDBRANCH   9  12
ENDBRANCH   3  10
BRANCH   7  25
ATOM     25  C   UNL     1      30.914  -5.658 -23.813  0.00  0.00    +0.006 C 
BRANCH  25  26
ATOM     26  N   UNL     1      31.130  -4.304 -24.295  0.00  0.00    +0.391 N 
ATOM     27  H   UNL     1      30.495  -4.120 -25.072  0.00  0.00    -0.084 HD
ATOM     28  H   UNL     1      30.952  -3.650 -23.533  0.00  0.00    -0.084 HD
BRANCH  26  29
ATOM     29  C   UNL     1      32.514  -4.136 -24.752  0.00  0.00    -0.061 C 
ATOM     30  C   UNL     1      32.511  -3.130 -25.909  0.00  0.00    -0.021 C 
ATOM     31  C   UNL     1      33.087  -5.516 -25.104  0.00  0.00    -0.021 C 
ATOM     32  C   UNL     1      33.870  -2.880 -26.562  0.00  0.00    -0.002 C 
ATOM     33  C   UNL     1      34.603  -5.496 -25.298  0.00  0.00    -0.002 C 
ATOM     34  C   UNL     1      34.323  -4.042 -27.438  0.00  0.00    -0.000 C 
ATOM     35  C   UNL     1      35.075  -5.149 -26.706  0.00  0.00    -0.000 C 
ENDBRANCH  26  29
ENDBRANCH  25  26
ENDBRANCH   7  25
TORSDOF 7
ENDMDL
MODEL 8
REMARK VINA RESULT:      -8.6      1.669      2.192
REMARK  Name = 25113614
REMARK  7 active torsions:
REMARK  status: ('A' for Active; 'I' for Inactive)
REMARK    1  A    between atoms: C_3  and  C_10
REMARK    2  A    between atoms: C_7  and  C_25
REMARK    3  A    between atoms: N_9  and  C_12
REMARK    4  A    between atoms: C_12  and  C_13
REMARK    5  A    between atoms: C_18  and  C_21
REMARK    6  A    between atoms: C_25  and  N_26
REMARK    7  A    between atoms: N_26  and  C_29
REMARK                            x       y       z     vdW  Elec       q    Type
REMARK                         _______ _______ _______ _____ _____    ______ ____
ROOT
ATOM      1  O   UNL     1      33.913 -25.368 -13.241  0.00  0.00    -0.277 OA
ATOM      2  N   UNL     1      35.897 -24.191 -13.116  0.00  0.00    -0.275 N 
ATOM      3  C   UNL     1      36.756 -23.046 -13.408  0.00  0.00    +0.152 C 
ATOM      4  C   UNL     1      37.750 -23.009 -12.251  0.00  0.00    +0.031 C 
ATOM      5  C   UNL     1      36.456 -25.006 -12.046  0.00  0.00    +0.094 C 
ATOM      6  C   UNL     1      37.865 -24.475 -11.838  0.00  0.00    +0.024 C 
ATOM      7  C   UNL     1      34.639 -24.452 -13.634  0.00  0.00    +0.204 C 
ENDROOT
BRANCH   3  10
ATOM      8  O   UNL     1      38.394 -24.108 -14.782  0.00  0.00    -0.273 OA
ATOM      9  N   UNL     1      36.951 -22.556 -15.744  0.00  0.00    -0.299 N 
ATOM     10  C   UNL     1      37.461 -23.312 -14.704  0.00  0.00    +0.241 C 
ATOM     11  H   UNL     1      36.197 -21.950 -15.557  0.00  0.00    +0.150 HD
BRANCH   9  12
ATOM     12  C   UNL     1      37.470 -22.610 -17.091  0.00  0.00    +0.116 C 
BRANCH  12  13
ATOM     13  C   UNL     1      36.490 -22.075 -18.094  0.00  0.00    -0.003 C 
ATOM     14  C   UNL     1      36.918 -21.195 -19.088  0.00  0.00    -0.003 C 
ATOM     15  C   UNL     1      35.149 -22.455 -18.030  0.00  0.00    -0.003 C 
ATOM     16  C   UNL     1      36.007 -20.696 -20.018  0.00  0.00    +0.002 C 
ATOM     17  C   UNL     1      34.238 -21.956 -18.960  0.00  0.00    +0.002 C 
ATOM     18  C   UNL     1      34.666 -21.077 -19.955  0.00  0.00    +0.031 C 
BRANCH  18  21
ATOM     19  N   UNL     1      34.142 -19.874 -22.063  0.00  0.00    -0.343 N 
ATOM     20  N   UNL     1      32.420 -20.723 -20.732  0.00  0.00    -0.285 NA
ATOM     21  C   UNL     1      33.717 -20.556 -20.925  0.00  0.00    +0.117 C 
ATOM     22  H   UNL     1      33.483 -19.530 -22.708  0.00  0.00    +0.144 HD
ATOM     23  H   UNL     1      35.104 -19.736 -22.223  0.00  0.00    +0.144 HD
ATOM     24  H   UNL     1      31.776 -20.373 -21.388  0.00  0.00    +0.188 HD
ENDBRANCH  18  21
ENDBRANCH  12  13
ENDBRANCH   9  12
ENDBRANCH   3  10
BRANCH   7  25
ATOM     25  C   UNL     1      34.172 -23.536 -14.737  0.00  0.00    +0.006 C 
BRANCH  25  26
ATOM     26  N   UNL     1      32.856 -23.051 -14.358  0.00  0.00    +0.391 N 
ATOM     27  H   UNL     1      32.733 -23.165 -13.352  0.00  0.00    -0.084 HD
ATOM     28  H   UNL     1      32.782 -22.065 -14.612  0.00  0.00    -0.084 HD
BRANCH  26  29
ATOM     29  C   UNL     1      31.809 -23.802 -15.061  0.00  0.00    -0.061 C 
ATOM     30  C   UNL     1      31.010 -22.811 -15.916  0.00  0.00    -0.021 C 
ATOM     31  C   UNL     1      30.978 -24.572 -14.026  0.00  0.00    -0.021 C 
ATOM     32  C   UNL     1      29.823 -23.409 -16.672  0.00  0.00    -0.002 C 
ATOM     33  C   UNL     1      30.061 -25.618 -14.661  0.00  0.00    -0.002 C 
ATOM     34  C   UNL     1      28.646 -23.731 -15.759  0.00  0.00    -0.000 C 
ATOM     35  C   UNL     1      28.695 -25.105 -15.101  0.00  0.00    -0.000 C 
ENDBRANCH  26  29
ENDBRANCH  25  26
ENDBRANCH   7  25
TORSDOF 7
ENDMDL
MODEL 9
REMARK VINA RESULT:      -8.5      2.295      4.871
REMARK  Name = 25113614
REMARK  7 active torsions:
REMARK  status: ('A' for Active; 'I' for Inactive)
REMARK    1  A    between atoms: C_3  and  C_10
REMARK    2  A    between atoms: C_7  and  C_25
REMARK    3  A    between atoms: N_9  and  C_12
REMARK    4  A    between atoms: C_12  and  C_13
REMARK    5  A    between atoms: C_18  and  C_21
REMARK    6  A    between atoms: C_25  and  N_26
REMARK    7  A    between atoms: N_26  and  C_29
REMARK                            x       y       z     vdW  Elec       q    Type
REMARK                         _______ _______ _______ _____ _____    ______ ____
ROOT
ATOM      1  O   UNL     1      33.042 -23.526 -14.658  0.00  0.00    -0.277 OA
ATOM      2  N   UNL     1      33.598 -23.277 -16.887  0.00  0.00    -0.275 N 
ATOM      3  C   UNL     1      34.417 -23.548 -18.066  0.00  0.00    +0.152 C 
ATOM      4  C   UNL     1      33.475 -23.324 -19.245  0.00  0.00    +0.031 C 
ATOM      5  C   UNL     1      32.340 -22.643 -17.258  0.00  0.00    +0.094 C 
ATOM      6  C   UNL     1      32.499 -22.271 -18.723  0.00  0.00    +0.024 C 
ATOM      7  C   UNL     1      33.844 -23.673 -15.582  0.00  0.00    +0.204 C 
ENDROOT
BRANCH   3  10
ATOM      8  O   UNL     1      36.174 -22.270 -17.076  0.00  0.00    -0.273 OA
ATOM      9  N   UNL     1      35.737 -22.017 -19.349  0.00  0.00    -0.299 N 
ATOM     10  C   UNL     1      35.540 -22.556 -18.089  0.00  0.00    +0.241 C 
ATOM     11  H   UNL     1      35.163 -22.328 -20.086  0.00  0.00    +0.150 HD
BRANCH   9  12
ATOM     12  C   UNL     1      36.744 -21.021 -19.634  0.00  0.00    +0.116 C 
BRANCH  12  13
ATOM     13  C   UNL     1      36.309 -20.076 -20.717  0.00  0.00    -0.003 C 
ATOM     14  C   UNL     1      37.200 -19.123 -21.211  0.00  0.00    -0.003 C 
ATOM     15  C   UNL     1      35.013 -20.150 -21.228  0.00  0.00    -0.003 C 
ATOM     16  C   UNL     1      36.795 -18.244 -22.214  0.00  0.00    +0.002 C 
ATOM     17  C   UNL     1      34.609 -19.271 -22.232  0.00  0.00    +0.002 C 
ATOM     18  C   UNL     1      35.500 -18.318 -22.727  0.00  0.00    +0.031 C 
BRANCH  18  21
ATOM     19  N   UNL     1      34.353 -17.845 -24.878  0.00  0.00    -0.343 N 
ATOM     20  N   UNL     1      35.390 -16.120 -23.691  0.00  0.00    -0.285 NA
ATOM     21  C   UNL     1      35.079 -17.402 -23.774  0.00  0.00    +0.117 C 
ATOM     22  H   UNL     1      34.078 -17.208 -25.576  0.00  0.00    +0.144 HD
ATOM     23  H   UNL     1      34.115 -18.797 -24.960  0.00  0.00    +0.144 HD
ATOM     24  H   UNL     1      35.105 -15.498 -24.398  0.00  0.00    +0.188 HD
ENDBRANCH  18  21
ENDBRANCH  12  13
ENDBRANCH   9  12
ENDBRANCH   3  10
BRANCH   7  25
ATOM     25  C   UNL     1      35.182 -24.319 -15.327  0.00  0.00    +0.006 C 
BRANCH  25  26
ATOM     26  N   UNL     1      34.957 -25.410 -14.393  0.00  0.00    +0.391 N 
ATOM     27  H   UNL     1      34.003 -25.353 -14.035  0.00  0.00    -0.084 HD
ATOM     28  H   UNL     1      35.098 -26.295 -14.879  0.00  0.00    -0.084 HD
BRANCH  26  29
ATOM     29  C   UNL     1      35.900 -25.329 -13.271  0.00  0.00    -0.061 C 
ATOM     30  C   UNL     1      35.266 -24.454 -12.184  0.00  0.00    -0.021 C 
ATOM     31  C   UNL     1      37.249 -24.820 -13.798  0.00  0.00    -0.021 C 
ATOM     32  C   UNL     1      36.142 -24.199 -10.956  0.00  0.00    -0.002 C 
ATOM     33  C   UNL     1      38.382 -24.985 -12.786  0.00  0.00    -0.002 C 
ATOM     34  C   UNL     1      37.272 -23.214 -11.235  0.00  0.00    -0.000 C 
ATOM     35  C   UNL     1      38.546 -23.835 -11.799  0.00  0.00    -0.000 C 
ENDBRANCH  26  29
ENDBRANCH  25  26
ENDBRANCH   7  25
TORSDOF 7
ENDMDL
