MODEL 1
REMARK VINA RESULT:     -12.0      0.000      0.000
REMARK  Name = 10172943
REMARK  7 active torsions:
REMARK  status: ('A' for Active; 'I' for Inactive)
REMARK    1  A    between atoms: O_1  and  C_3
REMARK    2  A    between atoms: O_1  and  C_19
REMARK    3  A    between atoms: C_4  and  C_11
REMARK    4  A    between atoms: C_19  and  C_20
REMARK    5  A    between atoms: C_20  and  N_21
REMARK    6  A    between atoms: C_20  and  C_25
REMARK    7  A    between atoms: C_25  and  C_27
REMARK                            x       y       z     vdW  Elec       q    Type
REMARK                         _______ _______ _______ _____ _____    ______ ____
ROOT
ATOM      1  O   UNL     1      35.670 -17.025 -23.274  0.00  0.00    -0.476 OA
ENDROOT
BRANCH   1   3
ATOM      2  N   UNL     1      33.424 -15.620 -25.777  0.00  0.00    -0.239 NA
ATOM      3  C   UNL     1      34.792 -16.160 -23.874  0.00  0.00    +0.158 C 
ATOM      4  C   UNL     1      33.500 -14.148 -23.860  0.00  0.00    +0.022 C 
ATOM      5  C   UNL     1      34.393 -15.004 -23.228  0.00  0.00    +0.040 C 
ATOM      6  C   UNL     1      34.293 -16.429 -25.130  0.00  0.00    +0.136 C 
ATOM      7  C   UNL     1      33.049 -14.497 -25.124  0.00  0.00    +0.099 C 
BRANCH   4  11
ATOM      8  N   UNL     1      32.618  -8.653 -22.230  0.00  0.00    -0.280 N 
ATOM      9  N   UNL     1      31.842  -9.441 -21.460  0.00  0.00    -0.173 NA
ATOM     10  C   UNL     1      33.062 -10.635 -22.959  0.00  0.00    +0.032 A 
ATOM     11  C   UNL     1      33.055 -12.931 -23.221  0.00  0.00    +0.002 C 
ATOM     12  C   UNL     1      32.095 -10.690 -21.888  0.00  0.00    +0.102 A 
ATOM     13  C   UNL     1      33.589 -11.704 -23.672  0.00  0.00    +0.003 C 
ATOM     14  C   UNL     1      33.373  -9.319 -23.150  0.00  0.00    +0.053 A 
ATOM     15  C   UNL     1      32.093 -13.033 -22.162  0.00  0.00    +0.002 C 
ATOM     16  C   UNL     1      31.576 -11.924 -21.456  0.00  0.00    +0.021 C 
ATOM     17  C   UNL     1      34.277  -8.615 -24.076  0.00  0.00    +0.051 C 
ATOM     18  H   UNL     1      32.638  -7.673 -22.136  0.00  0.00    +0.189 HD
ENDBRANCH   4  11
ENDBRANCH   1   3
BRANCH   1  19
ATOM     19  C   UNL     1      35.260 -18.382 -23.166  0.00  0.00    +0.184 C 
BRANCH  19  20
ATOM     20  C   UNL     1      35.657 -18.992 -21.816  0.00  0.00    -0.017 C 
BRANCH  20  21
ATOM     21  N   UNL     1      35.649 -17.931 -20.801  0.00  0.00    +0.384 N 
ATOM     22  H   UNL     1      35.708 -18.349 -19.873  0.00  0.00    -0.089 HD
ATOM     23  H   UNL     1      34.786 -17.394 -20.878  0.00  0.00    -0.089 HD
ATOM     24  H   UNL     1      36.448 -17.314 -20.949  0.00  0.00    -0.089 HD
ENDBRANCH  20  21
BRANCH  20  25
ATOM     25  C   UNL     1      34.728 -20.148 -21.359  0.00  0.00    +0.009 C 
BRANCH  25  27
ATOM     26  N   UNL     1      36.656 -21.920 -18.815  0.00  0.00    -0.312 N 
ATOM     27  C   UNL     1      35.254 -20.946 -20.233  0.00  0.00    -0.008 C 
ATOM     28  C   UNL     1      34.489 -21.677 -19.281  0.00  0.00    +0.011 C 
ATOM     29  C   UNL     1      35.393 -22.278 -18.403  0.00  0.00    +0.048 C 
ATOM     30  C   UNL     1      36.584 -21.116 -19.921  0.00  0.00    +0.058 C 
ATOM     31  C   UNL     1      33.110 -21.884 -19.082  0.00  0.00    +0.001 C 
ATOM     32  C   UNL     1      34.984 -23.079 -17.330  0.00  0.00    +0.015 C 
ATOM     33  C   UNL     1      32.686 -22.683 -18.013  0.00  0.00    +0.000 C 
ATOM     34  C   UNL     1      33.611 -23.270 -17.152  0.00  0.00    +0.001 C 
ATOM     35  H   UNL     1      37.492 -22.202 -18.378  0.00  0.00    +0.152 HD
ENDBRANCH  25  27
ENDBRANCH  20  25
ENDBRANCH  19  20
ENDBRANCH   1  19
TORSDOF 7
ENDMDL
MODEL 2
REMARK VINA RESULT:     -11.9      1.570     10.529
REMARK  Name = 10172943
REMARK  7 active torsions:
REMARK  status: ('A' for Active; 'I' for Inactive)
REMARK    1  A    between atoms: O_1  and  C_3
REMARK    2  A    between atoms: O_1  and  C_19
REMARK    3  A    between atoms: C_4  and  C_11
REMARK    4  A    between atoms: C_19  and  C_20
REMARK    5  A    between atoms: C_20  and  N_21
REMARK    6  A    between atoms: C_20  and  C_25
REMARK    7  A    between atoms: C_25  and  C_27
REMARK                            x       y       z     vdW  Elec       q    Type
REMARK                         _______ _______ _______ _____ _____    ______ ____
ROOT
ATOM      1  O   UNL     1      34.192 -14.823 -24.865  0.00  0.00    -0.476 OA
ENDROOT
BRANCH   1   3
ATOM      2  N   UNL     1      33.597 -18.302 -25.770  0.00  0.00    -0.239 NA
ATOM      3  C   UNL     1      34.188 -16.191 -24.782  0.00  0.00    +0.158 C 
ATOM      4  C   UNL     1      34.725 -18.218 -23.633  0.00  0.00    +0.022 C 
ATOM      5  C   UNL     1      34.743 -16.830 -23.688  0.00  0.00    +0.040 C 
ATOM      6  C   UNL     1      33.633 -16.951 -25.788  0.00  0.00    +0.136 C 
ATOM      7  C   UNL     1      34.145 -18.903 -24.689  0.00  0.00    +0.099 C 
BRANCH   4  11
ATOM      8  N   UNL     1      35.683 -21.600 -19.020  0.00  0.00    -0.280 N 
ATOM      9  N   UNL     1      36.836 -20.968 -19.315  0.00  0.00    -0.173 NA
ATOM     10  C   UNL     1      35.157 -20.400 -20.736  0.00  0.00    +0.032 A 
ATOM     11  C   UNL     1      35.294 -18.926 -22.510  0.00  0.00    +0.002 C 
ATOM     12  C   UNL     1      36.544 -20.208 -20.384  0.00  0.00    +0.102 A 
ATOM     13  C   UNL     1      34.462 -19.801 -21.778  0.00  0.00    +0.003 C 
ATOM     14  C   UNL     1      34.639 -21.296 -19.843  0.00  0.00    +0.053 A 
ATOM     15  C   UNL     1      36.677 -18.704 -22.197  0.00  0.00    +0.002 C 
ATOM     16  C   UNL     1      37.355 -19.331 -21.128  0.00  0.00    +0.021 C 
ATOM     17  C   UNL     1      33.306 -21.896 -19.668  0.00  0.00    +0.051 C 
ATOM     18  H   UNL     1      35.601 -22.232 -18.269  0.00  0.00    +0.189 HD
ENDBRANCH   4  11
ENDBRANCH   1   3
BRANCH   1  19
ATOM     19  C   UNL     1      33.054 -14.146 -24.348  0.00  0.00    +0.184 C 
BRANCH  19  20
ATOM     20  C   UNL     1      33.439 -13.127 -23.267  0.00  0.00    -0.017 C 
BRANCH  20  21
ATOM     21  N   UNL     1      34.577 -13.658 -22.506  0.00  0.00    +0.384 N 
ATOM     22  H   UNL     1      35.181 -12.889 -22.218  0.00  0.00    -0.089 HD
ATOM     23  H   UNL     1      35.104 -14.305 -23.091  0.00  0.00    -0.089 HD
ATOM     24  H   UNL     1      34.233 -14.149 -21.681  0.00  0.00    -0.089 HD
ENDBRANCH  20  21
BRANCH  20  25
ATOM     25  C   UNL     1      33.806 -11.729 -23.833  0.00  0.00    +0.009 C 
BRANCH  25  27
ATOM     26  N   UNL     1      31.575  -9.457 -22.046  0.00  0.00    -0.312 N 
ATOM     27  C   UNL     1      33.075 -10.607 -23.211  0.00  0.00    -0.008 C 
ATOM     28  C   UNL     1      33.401  -9.225 -23.308  0.00  0.00    +0.011 C 
ATOM     29  C   UNL     1      32.444  -8.526 -22.569  0.00  0.00    +0.048 C 
ATOM     30  C   UNL     1      31.947 -10.718 -22.429  0.00  0.00    +0.058 C 
ATOM     31  C   UNL     1      34.421  -8.501 -23.955  0.00  0.00    +0.001 C 
ATOM     32  C   UNL     1      32.458  -7.131 -22.444  0.00  0.00    +0.015 C 
ATOM     33  C   UNL     1      34.447  -7.106 -23.839  0.00  0.00    +0.000 C 
ATOM     34  C   UNL     1      33.479  -6.434 -23.094  0.00  0.00    +0.001 C 
ATOM     35  H   UNL     1      30.798  -9.246 -21.481  0.00  0.00    +0.152 HD
ENDBRANCH  25  27
ENDBRANCH  20  25
ENDBRANCH  19  20
ENDBRANCH   1  19
TORSDOF 7
ENDMDL
MODEL 3
REMARK VINA RESULT:     -11.9      3.069      6.066
REMARK  Name = 10172943
REMARK  7 active torsions:
REMARK  status: ('A' for Active; 'I' for Inactive)
REMARK    1  A    between atoms: O_1  and  C_3
REMARK    2  A    between atoms: O_1  and  C_19
REMARK    3  A    between atoms: C_4  and  C_11
REMARK    4  A    between atoms: C_19  and  C_20
REMARK    5  A    between atoms: C_20  and  N_21
REMARK    6  A    between atoms: C_20  and  C_25
REMARK    7  A    between atoms: C_25  and  C_27
REMARK                            x       y       z     vdW  Elec       q    Type
REMARK                         _______ _______ _______ _____ _____    ______ ____
ROOT
ATOM      1  O   UNL     1      35.167 -21.923 -19.954  0.00  0.00    -0.476 OA
ENDROOT
BRANCH   1   3
ATOM      2  N   UNL     1      37.486 -19.194 -20.627  0.00  0.00    -0.239 NA
ATOM      3  C   UNL     1      35.704 -20.806 -20.540  0.00  0.00    +0.158 C 
ATOM      4  C   UNL     1      35.626 -19.053 -22.165  0.00  0.00    +0.022 C 
ATOM      5  C   UNL     1      35.055 -20.182 -21.590  0.00  0.00    +0.040 C 
ATOM      6  C   UNL     1      36.901 -20.289 -20.094  0.00  0.00    +0.136 C 
ATOM      7  C   UNL     1      36.831 -18.602 -21.652  0.00  0.00    +0.099 C 
BRANCH   4  11
ATOM      8  N   UNL     1      33.255 -15.159 -25.749  0.00  0.00    -0.280 N 
ATOM      9  N   UNL     1      33.168 -16.369 -26.338  0.00  0.00    -0.173 NA
ATOM     10  C   UNL     1      34.170 -16.473 -24.302  0.00  0.00    +0.032 A 
ATOM     11  C   UNL     1      34.983 -18.371 -23.264  0.00  0.00    +0.002 C 
ATOM     12  C   UNL     1      33.731 -17.216 -25.460  0.00  0.00    +0.102 A 
ATOM     13  C   UNL     1      34.799 -16.974 -23.170  0.00  0.00    +0.003 C 
ATOM     14  C   UNL     1      33.849 -15.163 -24.522  0.00  0.00    +0.053 A 
ATOM     15  C   UNL     1      34.563 -19.149 -24.394  0.00  0.00    +0.002 C 
ATOM     16  C   UNL     1      33.924 -18.608 -25.532  0.00  0.00    +0.021 C 
ATOM     17  C   UNL     1      34.029 -13.931 -23.737  0.00  0.00    +0.051 C 
ATOM     18  H   UNL     1      32.915 -14.338 -26.172  0.00  0.00    +0.189 HD
ENDBRANCH   4  11
ENDBRANCH   1   3
BRANCH   1  19
ATOM     19  C   UNL     1      33.895 -21.775 -19.338  0.00  0.00    +0.184 C 
BRANCH  19  20
ATOM     20  C   UNL     1      33.622 -22.886 -18.316  0.00  0.00    -0.017 C 
BRANCH  20  21
ATOM     21  N   UNL     1      33.718 -24.183 -18.997  0.00  0.00    +0.384 N 
ATOM     22  H   UNL     1      34.160 -24.057 -19.908  0.00  0.00    -0.089 HD
ATOM     23  H   UNL     1      32.783 -24.571 -19.123  0.00  0.00    -0.089 HD
ATOM     24  H   UNL     1      34.278 -24.822 -18.433  0.00  0.00    -0.089 HD
ENDBRANCH  20  21
BRANCH  20  25
ATOM     25  C   UNL     1      34.592 -22.868 -17.105  0.00  0.00    +0.009 C 
BRANCH  25  27
ATOM     26  N   UNL     1      34.218 -25.175 -14.300  0.00  0.00    -0.312 N 
ATOM     27  C   UNL     1      34.170 -23.715 -15.971  0.00  0.00    -0.008 C 
ATOM     28  C   UNL     1      32.865 -23.792 -15.410  0.00  0.00    +0.011 C 
ATOM     29  C   UNL     1      32.922 -24.715 -14.364  0.00  0.00    +0.048 C 
ATOM     30  C   UNL     1      34.980 -24.577 -15.267  0.00  0.00    +0.058 C 
ATOM     31  C   UNL     1      31.637 -23.163 -15.693  0.00  0.00    +0.001 C 
ATOM     32  C   UNL     1      31.807 -25.041 -13.582  0.00  0.00    +0.015 C 
ATOM     33  C   UNL     1      30.513 -23.478 -14.920  0.00  0.00    +0.000 C 
ATOM     34  C   UNL     1      30.600 -24.403 -13.881  0.00  0.00    +0.001 C 
ATOM     35  H   UNL     1      34.548 -25.839 -13.652  0.00  0.00    +0.152 HD
ENDBRANCH  25  27
ENDBRANCH  20  25
ENDBRANCH  19  20
ENDBRANCH   1  19
TORSDOF 7
ENDMDL
MODEL 4
REMARK VINA RESULT:     -11.8      4.464      7.376
REMARK  Name = 10172943
REMARK  7 active torsions:
REMARK  status: ('A' for Active; 'I' for Inactive)
REMARK    1  A    between atoms: O_1  and  C_3
REMARK    2  A    between atoms: O_1  and  C_19
REMARK    3  A    between atoms: C_4  and  C_11
REMARK    4  A    between atoms: C_19  and  C_20
REMARK    5  A    between atoms: C_20  and  N_21
REMARK    6  A    between atoms: C_20  and  C_25
REMARK    7  A    between atoms: C_25  and  C_27
REMARK                            x       y       z     vdW  Elec       q    Type
REMARK                         _______ _______ _______ _____ _____    ______ ____
ROOT
ATOM      1  O   UNL     1      33.223 -22.673 -18.795  0.00  0.00    -0.476 OA
ENDROOT
BRANCH   1   3
ATOM      2  N   UNL     1      36.675 -21.569 -19.168  0.00  0.00    -0.239 NA
ATOM      3  C   UNL     1      34.304 -21.962 -19.246  0.00  0.00    +0.158 C 
ATOM      4  C   UNL     1      35.260 -20.263 -20.631  0.00  0.00    +0.022 C 
ATOM      5  C   UNL     1      34.145 -20.966 -20.192  0.00  0.00    +0.040 C 
ATOM      6  C   UNL     1      35.568 -22.230 -18.766  0.00  0.00    +0.136 C 
ATOM      7  C   UNL     1      36.493 -20.599 -20.093  0.00  0.00    +0.099 C 
BRANCH   4  11
ATOM      8  N   UNL     1      34.260 -17.125 -25.405  0.00  0.00    -0.280 N 
ATOM      9  N   UNL     1      34.767 -16.300 -24.467  0.00  0.00    -0.173 NA
ATOM     10  C   UNL     1      34.570 -18.436 -23.718  0.00  0.00    +0.032 A 
ATOM     11  C   UNL     1      35.139 -19.216 -21.618  0.00  0.00    +0.002 C 
ATOM     12  C   UNL     1      34.973 -17.087 -23.397  0.00  0.00    +0.102 A 
ATOM     13  C   UNL     1      34.621 -19.549 -22.889  0.00  0.00    +0.003 C 
ATOM     14  C   UNL     1      34.120 -18.422 -25.008  0.00  0.00    +0.053 A 
ATOM     15  C   UNL     1      35.552 -17.890 -21.256  0.00  0.00    +0.002 C 
ATOM     16  C   UNL     1      35.487 -16.778 -22.124  0.00  0.00    +0.021 C 
ATOM     17  C   UNL     1      33.580 -19.459 -25.903  0.00  0.00    +0.051 C 
ATOM     18  H   UNL     1      34.011 -16.816 -26.305  0.00  0.00    +0.189 HD
ENDBRANCH   4  11
ENDBRANCH   1   3
BRANCH   1  19
ATOM     19  C   UNL     1      33.485 -23.719 -17.868  0.00  0.00    +0.184 C 
BRANCH  19  20
ATOM     20  C   UNL     1      33.109 -23.318 -16.435  0.00  0.00    -0.017 C 
BRANCH  20  21
ATOM     21  N   UNL     1      31.651 -23.407 -16.291  0.00  0.00    +0.384 N 
ATOM     22  H   UNL     1      31.241 -22.481 -16.414  0.00  0.00    -0.089 HD
ATOM     23  H   UNL     1      31.422 -23.760 -15.362  0.00  0.00    -0.089 HD
ATOM     24  H   UNL     1      31.278 -24.041 -16.997  0.00  0.00    -0.089 HD
ENDBRANCH  20  21
BRANCH  20  25
ATOM     25  C   UNL     1      33.788 -24.192 -15.347  0.00  0.00    +0.009 C 
BRANCH  25  27
ATOM     26  N   UNL     1      37.190 -22.914 -14.994  0.00  0.00    -0.312 N 
ATOM     27  C   UNL     1      35.236 -23.949 -15.184  0.00  0.00    -0.008 C 
ATOM     28  C   UNL     1      36.248 -24.936 -15.020  0.00  0.00    +0.011 C 
ATOM     29  C   UNL     1      37.464 -24.260 -14.904  0.00  0.00    +0.048 C 
ATOM     30  C   UNL     1      35.846 -22.716 -15.164  0.00  0.00    +0.058 C 
ATOM     31  C   UNL     1      36.246 -26.344 -14.960  0.00  0.00    +0.001 C 
ATOM     32  C   UNL     1      38.684 -24.925 -14.729  0.00  0.00    +0.015 C 
ATOM     33  C   UNL     1      37.457 -27.022 -14.785  0.00  0.00    +0.000 C 
ATOM     34  C   UNL     1      38.657 -26.321 -14.671  0.00  0.00    +0.001 C 
ATOM     35  H   UNL     1      37.863 -22.198 -14.945  0.00  0.00    +0.152 HD
ENDBRANCH  25  27
ENDBRANCH  20  25
ENDBRANCH  19  20
ENDBRANCH   1  19
TORSDOF 7
ENDMDL
MODEL 5
REMARK VINA RESULT:     -11.8      4.770      7.414
REMARK  Name = 10172943
REMARK  7 active torsions:
REMARK  status: ('A' for Active; 'I' for Inactive)
REMARK    1  A    between atoms: O_1  and  C_3
REMARK    2  A    between atoms: O_1  and  C_19
REMARK    3  A    between atoms: C_4  and  C_11
REMARK    4  A    between atoms: C_19  and  C_20
REMARK    5  A    between atoms: C_20  and  N_21
REMARK    6  A    between atoms: C_20  and  C_25
REMARK    7  A    between atoms: C_25  and  C_27
REMARK                            x       y       z     vdW  Elec       q    Type
REMARK                         _______ _______ _______ _____ _____    ______ ____
ROOT
ATOM      1  O   UNL     1      36.231 -22.765 -18.299  0.00  0.00    -0.476 OA
ENDROOT
BRANCH   1   3
ATOM      2  N   UNL     1      32.854 -21.961 -19.407  0.00  0.00    -0.239 NA
ATOM      3  C   UNL     1      35.213 -22.153 -18.983  0.00  0.00    +0.158 C 
ATOM      4  C   UNL     1      34.431 -20.548 -20.574  0.00  0.00    +0.022 C 
ATOM      5  C   UNL     1      35.484 -21.151 -19.898  0.00  0.00    +0.040 C 
ATOM      6  C   UNL     1      33.904 -22.524 -18.769  0.00  0.00    +0.136 C 
ATOM      7  C   UNL     1      33.145 -20.985 -20.297  0.00  0.00    +0.099 C 
BRANCH   4  11
ATOM      8  N   UNL     1      34.607 -17.183 -25.295  0.00  0.00    -0.280 N 
ATOM      9  N   UNL     1      35.299 -16.562 -24.319  0.00  0.00    -0.173 NA
ATOM     10  C   UNL     1      34.443 -18.552 -23.633  0.00  0.00    +0.032 A 
ATOM     11  C   UNL     1      34.669 -19.498 -21.537  0.00  0.00    +0.002 C 
ATOM     12  C   UNL     1      35.218 -17.391 -23.264  0.00  0.00    +0.102 A 
ATOM     13  C   UNL     1      34.126 -19.641 -22.833  0.00  0.00    +0.003 C 
ATOM     14  C   UNL     1      34.070 -18.385 -24.937  0.00  0.00    +0.053 A 
ATOM     15  C   UNL     1      35.443 -18.362 -21.126  0.00  0.00    +0.002 C 
ATOM     16  C   UNL     1      35.749 -17.269 -21.967  0.00  0.00    +0.021 C 
ATOM     17  C   UNL     1      33.281 -19.199 -25.877  0.00  0.00    +0.051 C 
ATOM     18  H   UNL     1      34.498 -16.800 -26.195  0.00  0.00    +0.189 HD
ENDBRANCH   4  11
ENDBRANCH   1   3
BRANCH   1  19
ATOM     19  C   UNL     1      36.414 -22.381 -16.943  0.00  0.00    +0.184 C 
BRANCH  19  20
ATOM     20  C   UNL     1      35.807 -23.403 -15.973  0.00  0.00    -0.017 C 
BRANCH  20  21
ATOM     21  N   UNL     1      36.887 -23.983 -15.166  0.00  0.00    +0.384 N 
ATOM     22  H   UNL     1      36.740 -24.988 -15.074  0.00  0.00    -0.089 HD
ATOM     23  H   UNL     1      36.887 -23.553 -14.241  0.00  0.00    -0.089 HD
ATOM     24  H   UNL     1      37.782 -23.809 -15.622  0.00  0.00    -0.089 HD
ENDBRANCH  20  21
BRANCH  20  25
ATOM     25  C   UNL     1      34.727 -22.803 -15.034  0.00  0.00    +0.009 C 
BRANCH  25  27
ATOM     26  N   UNL     1      32.696 -25.416 -13.491  0.00  0.00    -0.312 N 
ATOM     27  C   UNL     1      33.702 -23.768 -14.586  0.00  0.00    -0.008 C 
ATOM     28  C   UNL     1      32.371 -23.879 -15.075  0.00  0.00    +0.011 C 
ATOM     29  C   UNL     1      31.761 -24.921 -14.372  0.00  0.00    +0.048 C 
ATOM     30  C   UNL     1      33.873 -24.727 -13.613  0.00  0.00    +0.058 C 
ATOM     31  C   UNL     1      31.623 -23.191 -16.051  0.00  0.00    +0.001 C 
ATOM     32  C   UNL     1      30.435 -25.310 -14.597  0.00  0.00    +0.015 C 
ATOM     33  C   UNL     1      30.296 -23.569 -16.287  0.00  0.00    +0.000 C 
ATOM     34  C   UNL     1      29.713 -24.612 -15.570  0.00  0.00    +0.001 C 
ATOM     35  H   UNL     1      32.541 -26.160 -12.865  0.00  0.00    +0.152 HD
ENDBRANCH  25  27
ENDBRANCH  20  25
ENDBRANCH  19  20
ENDBRANCH   1  19
TORSDOF 7
ENDMDL
MODEL 6
REMARK VINA RESULT:     -11.7      3.775     11.341
REMARK  Name = 10172943
REMARK  7 active torsions:
REMARK  status: ('A' for Active; 'I' for Inactive)
REMARK    1  A    between atoms: O_1  and  C_3
REMARK    2  A    between atoms: O_1  and  C_19
REMARK    3  A    between atoms: C_4  and  C_11
REMARK    4  A    between atoms: C_19  and  C_20
REMARK    5  A    between atoms: C_20  and  N_21
REMARK    6  A    between atoms: C_20  and  C_25
REMARK    7  A    between atoms: C_25  and  C_27
REMARK                            x       y       z     vdW  Elec       q    Type
REMARK                         _______ _______ _______ _____ _____    ______ ____
ROOT
ATOM      1  O   UNL     1      31.960 -10.992 -21.349  0.00  0.00    -0.476 OA
ENDROOT
BRANCH   1   3
ATOM      2  N   UNL     1      33.758 -10.740 -24.508  0.00  0.00    -0.239 NA
ATOM      3  C   UNL     1      32.623 -11.375 -22.486  0.00  0.00    +0.158 C 
ATOM      4  C   UNL     1      33.509 -13.072 -23.919  0.00  0.00    +0.022 C 
ATOM      5  C   UNL     1      32.831 -12.715 -22.760  0.00  0.00    +0.040 C 
ATOM      6  C   UNL     1      33.096 -10.431 -23.371  0.00  0.00    +0.136 C 
ATOM      7  C   UNL     1      33.948 -12.056 -24.754  0.00  0.00    +0.099 C 
BRANCH   4  11
ATOM      8  N   UNL     1      35.097 -18.649 -23.932  0.00  0.00    -0.280 N 
ATOM      9  N   UNL     1      34.465 -18.398 -25.096  0.00  0.00    -0.173 NA
ATOM     10  C   UNL     1      34.581 -16.560 -23.764  0.00  0.00    +0.032 A 
ATOM     11  C   UNL     1      33.749 -14.459 -24.244  0.00  0.00    +0.002 C 
ATOM     12  C   UNL     1      34.128 -17.099 -25.025  0.00  0.00    +0.102 A 
ATOM     13  C   UNL     1      34.431 -15.259 -23.302  0.00  0.00    +0.003 C 
ATOM     14  C   UNL     1      35.195 -17.579 -23.092  0.00  0.00    +0.053 A 
ATOM     15  C   UNL     1      33.282 -14.950 -25.508  0.00  0.00    +0.002 C 
ATOM     16  C   UNL     1      33.450 -16.282 -25.949  0.00  0.00    +0.021 C 
ATOM     17  C   UNL     1      35.852 -17.675 -21.778  0.00  0.00    +0.051 C 
ATOM     18  H   UNL     1      35.460 -19.536 -23.706  0.00  0.00    +0.189 HD
ENDBRANCH   4  11
ENDBRANCH   1   3
BRANCH   1  19
ATOM     19  C   UNL     1      31.389  -9.691 -21.348  0.00  0.00    +0.184 C 
BRANCH  19  20
ATOM     20  C   UNL     1      31.938  -8.828 -20.203  0.00  0.00    -0.017 C 
BRANCH  20  21
ATOM     21  N   UNL     1      32.483  -9.715 -19.168  0.00  0.00    +0.384 N 
ATOM     22  H   UNL     1      33.466  -9.904 -19.366  0.00  0.00    -0.089 HD
ATOM     23  H   UNL     1      31.961 -10.591 -19.162  0.00  0.00    -0.089 HD
ATOM     24  H   UNL     1      32.400  -9.264 -18.257  0.00  0.00    -0.089 HD
ENDBRANCH  20  21
BRANCH  20  25
ATOM     25  C   UNL     1      33.034  -7.825 -20.651  0.00  0.00    +0.009 C 
BRANCH  25  27
ATOM     26  N   UNL     1      31.360  -5.148 -22.485  0.00  0.00    -0.312 N 
ATOM     27  C   UNL     1      32.563  -6.782 -21.585  0.00  0.00    -0.008 C 
ATOM     28  C   UNL     1      33.160  -6.422 -22.825  0.00  0.00    +0.011 C 
ATOM     29  C   UNL     1      32.386  -5.395 -23.370  0.00  0.00    +0.048 C 
ATOM     30  C   UNL     1      31.458  -5.982 -21.404  0.00  0.00    +0.058 C 
ATOM     31  C   UNL     1      34.288  -6.871 -23.539  0.00  0.00    +0.001 C 
ATOM     32  C   UNL     1      32.686  -4.793 -24.598  0.00  0.00    +0.015 C 
ATOM     33  C   UNL     1      34.601  -6.279 -24.768  0.00  0.00    +0.000 C 
ATOM     34  C   UNL     1      33.810  -5.255 -25.287  0.00  0.00    +0.001 C 
ATOM     35  H   UNL     1      30.657  -4.471 -22.613  0.00  0.00    +0.152 HD
ENDBRANCH  25  27
ENDBRANCH  20  25
ENDBRANCH  19  20
ENDBRANCH   1  19
TORSDOF 7
ENDMDL
MODEL 7
REMARK VINA RESULT:     -11.7      3.067     11.069
REMARK  Name = 10172943
REMARK  7 active torsions:
REMARK  status: ('A' for Active; 'I' for Inactive)
REMARK    1  A    between atoms: O_1  and  C_3
REMARK    2  A    between atoms: O_1  and  C_19
REMARK    3  A    between atoms: C_4  and  C_11
REMARK    4  A    between atoms: C_19  and  C_20
REMARK    5  A    between atoms: C_20  and  N_21
REMARK    6  A    between atoms: C_20  and  C_25
REMARK    7  A    between atoms: C_25  and  C_27
REMARK                            x       y       z     vdW  Elec       q    Type
REMARK                         _______ _______ _______ _____ _____    ______ ____
ROOT
ATOM      1  O   UNL     1      33.972 -20.776 -20.722  0.00  0.00    -0.476 OA
ENDROOT
BRANCH   1   3
ATOM      2  N   UNL     1      36.149 -22.366 -18.270  0.00  0.00    -0.239 NA
ATOM      3  C   UNL     1      34.361 -21.489 -19.617  0.00  0.00    +0.158 C 
ATOM      4  C   UNL     1      33.843 -22.744 -17.649  0.00  0.00    +0.022 C 
ATOM      5  C   UNL     1      33.418 -22.028 -18.762  0.00  0.00    +0.040 C 
ATOM      6  C   UNL     1      35.697 -21.676 -19.342  0.00  0.00    +0.136 C 
ATOM      7  C   UNL     1      35.207 -22.885 -17.450  0.00  0.00    +0.099 C 
BRANCH   4  11
ATOM      8  N   UNL     1      29.076 -24.622 -14.932  0.00  0.00    -0.280 N 
ATOM      9  N   UNL     1      30.140 -24.947 -14.171  0.00  0.00    -0.173 NA
ATOM     10  C   UNL     1      30.743 -23.861 -16.073  0.00  0.00    +0.032 A 
ATOM     11  C   UNL     1      32.892 -23.324 -16.729  0.00  0.00    +0.002 C 
ATOM     12  C   UNL     1      31.201 -24.486 -14.855  0.00  0.00    +0.102 A 
ATOM     13  C   UNL     1      31.520 -23.261 -17.055  0.00  0.00    +0.003 C 
ATOM     14  C   UNL     1      29.381 -23.967 -16.088  0.00  0.00    +0.053 A 
ATOM     15  C   UNL     1      33.393 -23.935 -15.531  0.00  0.00    +0.002 C 
ATOM     16  C   UNL     1      32.574 -24.537 -14.550  0.00  0.00    +0.021 C 
ATOM     17  C   UNL     1      28.342 -23.538 -17.040  0.00  0.00    +0.051 C 
ATOM     18  H   UNL     1      28.152 -24.840 -14.672  0.00  0.00    +0.189 HD
ENDBRANCH   4  11
ENDBRANCH   1   3
BRANCH   1  19
ATOM     19  C   UNL     1      34.994 -20.398 -21.634  0.00  0.00    +0.184 C 
BRANCH  19  20
ATOM     20  C   UNL     1      35.001 -18.885 -21.888  0.00  0.00    -0.017 C 
BRANCH  20  21
ATOM     21  N   UNL     1      35.715 -18.227 -20.786  0.00  0.00    +0.384 N 
ATOM     22  H   UNL     1      36.566 -17.793 -21.144  0.00  0.00    -0.089 HD
ATOM     23  H   UNL     1      35.958 -18.920 -20.078  0.00  0.00    -0.089 HD
ATOM     24  H   UNL     1      35.116 -17.513 -20.372  0.00  0.00    -0.089 HD
ENDBRANCH  20  21
BRANCH  20  25
ATOM     25  C   UNL     1      35.657 -18.484 -23.237  0.00  0.00    +0.009 C 
BRANCH  25  27
ATOM     26  N   UNL     1      33.560 -16.826 -25.725  0.00  0.00    -0.312 N 
ATOM     27  C   UNL     1      34.833 -17.587 -24.073  0.00  0.00    -0.008 C 
ATOM     28  C   UNL     1      34.525 -16.224 -23.805  0.00  0.00    +0.011 C 
ATOM     29  C   UNL     1      33.725 -15.771 -24.857  0.00  0.00    +0.048 C 
ATOM     30  C   UNL     1      34.227 -17.929 -25.261  0.00  0.00    +0.058 C 
ATOM     31  C   UNL     1      34.850 -15.331 -22.766  0.00  0.00    +0.001 C 
ATOM     32  C   UNL     1      33.232 -14.462 -24.920  0.00  0.00    +0.015 C 
ATOM     33  C   UNL     1      34.364 -14.019 -22.816  0.00  0.00    +0.000 C 
ATOM     34  C   UNL     1      33.567 -13.594 -23.877  0.00  0.00    +0.001 C 
ATOM     35  H   UNL     1      33.040 -16.793 -26.559  0.00  0.00    +0.152 HD
ENDBRANCH  25  27
ENDBRANCH  20  25
ENDBRANCH  19  20
ENDBRANCH   1  19
TORSDOF 7
ENDMDL
MODEL 8
REMARK VINA RESULT:     -11.4      4.447     12.259
REMARK  Name = 10172943
REMARK  7 active torsions:
REMARK  status: ('A' for Active; 'I' for Inactive)
REMARK    1  A    between atoms: O_1  and  C_3
REMARK    2  A    between atoms: O_1  and  C_19
REMARK    3  A    between atoms: C_4  and  C_11
REMARK    4  A    between atoms: C_19  and  C_20
REMARK    5  A    between atoms: C_20  and  N_21
REMARK    6  A    between atoms: C_20  and  C_25
REMARK    7  A    between atoms: C_25  and  C_27
REMARK                            x       y       z     vdW  Elec       q    Type
REMARK                         _______ _______ _______ _____ _____    ______ ____
ROOT
ATOM      1  O   UNL     1      33.769 -22.975 -18.983  0.00  0.00    -0.476 OA
ENDROOT
BRANCH   1   3
ATOM      2  N   UNL     1      31.661 -23.219 -16.020  0.00  0.00    -0.239 NA
ATOM      3  C   UNL     1      33.398 -23.202 -17.683  0.00  0.00    +0.158 C 
ATOM      4  C   UNL     1      33.922 -23.850 -15.442  0.00  0.00    +0.022 C 
ATOM      5  C   UNL     1      34.328 -23.627 -16.752  0.00  0.00    +0.040 C 
ATOM      6  C   UNL     1      32.093 -23.012 -17.284  0.00  0.00    +0.136 C 
ATOM      7  C   UNL     1      32.590 -23.633 -15.128  0.00  0.00    +0.099 C 
BRANCH   4  11
ATOM      8  N   UNL     1      38.549 -25.806 -12.543  0.00  0.00    -0.280 N 
ATOM      9  N   UNL     1      37.571 -25.568 -11.647  0.00  0.00    -0.173 NA
ATOM     10  C   UNL     1      36.923 -25.094 -13.772  0.00  0.00    +0.032 A 
ATOM     11  C   UNL     1      34.860 -24.295 -14.437  0.00  0.00    +0.002 C 
ATOM     12  C   UNL     1      36.538 -25.121 -12.381  0.00  0.00    +0.102 A 
ATOM     13  C   UNL     1      36.148 -24.697 -14.854  0.00  0.00    +0.003 C 
ATOM     14  C   UNL     1      38.214 -25.538 -13.838  0.00  0.00    +0.053 A 
ATOM     15  C   UNL     1      34.433 -24.305 -13.067  0.00  0.00    +0.002 C 
ATOM     16  C   UNL     1      35.249 -24.716 -11.989  0.00  0.00    +0.021 C 
ATOM     17  C   UNL     1      39.162 -25.738 -14.947  0.00  0.00    +0.051 C 
ATOM     18  H   UNL     1      39.435 -26.146 -12.284  0.00  0.00    +0.189 HD
ENDBRANCH   4  11
ENDBRANCH   1   3
BRANCH   1  19
ATOM     19  C   UNL     1      33.472 -21.693 -19.520  0.00  0.00    +0.184 C 
BRANCH  19  20
ATOM     20  C   UNL     1      34.746 -20.923 -19.894  0.00  0.00    -0.017 C 
BRANCH  20  21
ATOM     21  N   UNL     1      35.904 -21.631 -19.335  0.00  0.00    +0.384 N 
ATOM     22  H   UNL     1      35.590 -22.273 -18.607  0.00  0.00    -0.089 HD
ATOM     23  H   UNL     1      36.555 -20.955 -18.936  0.00  0.00    -0.089 HD
ATOM     24  H   UNL     1      36.370 -22.156 -20.075  0.00  0.00    -0.089 HD
ENDBRANCH  20  21
BRANCH  20  25
ATOM     25  C   UNL     1      34.939 -20.749 -21.424  0.00  0.00    +0.009 C 
BRANCH  25  27
ATOM     26  N   UNL     1      35.603 -17.185 -21.863  0.00  0.00    -0.312 N 
ATOM     27  C   UNL     1      35.106 -19.348 -21.864  0.00  0.00    -0.008 C 
ATOM     28  C   UNL     1      34.776 -18.816 -23.141  0.00  0.00    +0.011 C 
ATOM     29  C   UNL     1      35.097 -17.457 -23.114  0.00  0.00    +0.048 C 
ATOM     30  C   UNL     1      35.612 -18.321 -21.099  0.00  0.00    +0.058 C 
ATOM     31  C   UNL     1      34.234 -19.360 -24.322  0.00  0.00    +0.001 C 
ATOM     32  C   UNL     1      34.903 -16.613 -24.214  0.00  0.00    +0.015 C 
ATOM     33  C   UNL     1      34.034 -18.529 -25.429  0.00  0.00    +0.000 C 
ATOM     34  C   UNL     1      34.364 -17.176 -25.374  0.00  0.00    +0.001 C 
ATOM     35  H   UNL     1      35.912 -16.301 -21.560  0.00  0.00    +0.152 HD
ENDBRANCH  25  27
ENDBRANCH  20  25
ENDBRANCH  19  20
ENDBRANCH   1  19
TORSDOF 7
ENDMDL
MODEL 9
REMARK VINA RESULT:     -11.4      4.550     11.957
REMARK  Name = 10172943
REMARK  7 active torsions:
REMARK  status: ('A' for Active; 'I' for Inactive)
REMARK    1  A    between atoms: O_1  and  C_3
REMARK    2  A    between atoms: O_1  and  C_19
REMARK    3  A    between atoms: C_4  and  C_11
REMARK    4  A    between atoms: C_19  and  C_20
REMARK    5  A    between atoms: C_20  and  N_21
REMARK    6  A    between atoms: C_20  and  C_25
REMARK    7  A    between atoms: C_25  and  C_27
REMARK                            x       y       z     vdW  Elec       q    Type
REMARK                         _______ _______ _______ _____ _____    ______ ____
ROOT
ATOM      1  O   UNL     1      33.072 -22.526 -19.086  0.00  0.00    -0.476 OA
ENDROOT
BRANCH   1   3
ATOM      2  N   UNL     1      31.725 -23.451 -15.829  0.00  0.00    -0.239 NA
ATOM      3  C   UNL     1      33.036 -22.904 -17.769  0.00  0.00    +0.158 C 
ATOM      4  C   UNL     1      34.141 -23.502 -15.734  0.00  0.00    +0.022 C 
ATOM      5  C   UNL     1      34.209 -23.117 -17.068  0.00  0.00    +0.040 C 
ATOM      6  C   UNL     1      31.831 -23.079 -17.124  0.00  0.00    +0.136 C 
ATOM      7  C   UNL     1      32.886 -23.653 -15.165  0.00  0.00    +0.099 C 
BRANCH   4  11
ATOM      8  N   UNL     1      38.025 -24.543 -11.555  0.00  0.00    -0.280 N 
ATOM      9  N   UNL     1      38.695 -24.409 -12.717  0.00  0.00    -0.173 NA
ATOM     10  C   UNL     1      36.452 -24.165 -12.984  0.00  0.00    +0.032 A 
ATOM     11  C   UNL     1      35.340 -23.736 -14.964  0.00  0.00    +0.002 C 
ATOM     12  C   UNL     1      37.741 -24.171 -13.634  0.00  0.00    +0.102 A 
ATOM     13  C   UNL     1      35.212 -23.957 -13.575  0.00  0.00    +0.003 C 
ATOM     14  C   UNL     1      36.672 -24.406 -11.657  0.00  0.00    +0.053 A 
ATOM     15  C   UNL     1      36.599 -23.734 -15.651  0.00  0.00    +0.002 C 
ATOM     16  C   UNL     1      37.844 -23.950 -15.020  0.00  0.00    +0.021 C 
ATOM     17  C   UNL     1      35.784 -24.524 -10.488  0.00  0.00    +0.051 C 
ATOM     18  H   UNL     1      38.477 -24.725 -10.700  0.00  0.00    +0.189 HD
ENDBRANCH   4  11
ENDBRANCH   1   3
BRANCH   1  19
ATOM     19  C   UNL     1      34.350 -22.241 -19.637  0.00  0.00    +0.184 C 
BRANCH  19  20
ATOM     20  C   UNL     1      34.281 -21.136 -20.699  0.00  0.00    -0.017 C 
BRANCH  20  21
ATOM     21  N   UNL     1      33.126 -20.277 -20.408  0.00  0.00    +0.384 N 
ATOM     22  H   UNL     1      32.446 -20.799 -19.855  0.00  0.00    -0.089 HD
ATOM     23  H   UNL     1      32.697 -19.976 -21.282  0.00  0.00    -0.089 HD
ATOM     24  H   UNL     1      33.436 -19.459 -19.883  0.00  0.00    -0.089 HD
ENDBRANCH  20  21
BRANCH  20  25
ATOM     25  C   UNL     1      35.563 -20.265 -20.776  0.00  0.00    +0.009 C 
BRANCH  25  27
ATOM     26  N   UNL     1      35.339 -16.828 -21.987  0.00  0.00    -0.312 N 
ATOM     27  C   UNL     1      35.397 -18.995 -21.511  0.00  0.00    -0.008 C 
ATOM     28  C   UNL     1      35.007 -18.848 -22.872  0.00  0.00    +0.011 C 
ATOM     29  C   UNL     1      34.978 -17.479 -23.145  0.00  0.00    +0.048 C 
ATOM     30  C   UNL     1      35.593 -17.735 -20.993  0.00  0.00    +0.058 C 
ATOM     31  C   UNL     1      34.676 -19.752 -23.901  0.00  0.00    +0.001 C 
ATOM     32  C   UNL     1      34.633 -16.966 -24.400  0.00  0.00    +0.015 C 
ATOM     33  C   UNL     1      34.328 -19.253 -25.162  0.00  0.00    +0.000 C 
ATOM     34  C   UNL     1      34.308 -17.881 -25.406  0.00  0.00    +0.001 C 
ATOM     35  H   UNL     1      35.403 -15.851 -21.887  0.00  0.00    +0.152 HD
ENDBRANCH  25  27
ENDBRANCH  20  25
ENDBRANCH  19  20
ENDBRANCH   1  19
TORSDOF 7
ENDMDL
