MODEL 1
REMARK VINA RESULT:     -11.7      0.000      0.000
REMARK  Name = 77993
REMARK  6 active torsions:
REMARK  status: ('A' for Active; 'I' for Inactive)
REMARK    1  A    between atoms: C_2  and  C_11
REMARK    2  A    between atoms: C_7  and  C_19
REMARK    3  A    between atoms: C_11  and  C_13
REMARK    4  A    between atoms: C_19  and  C_20
REMARK    5  A    between atoms: C_20  and  S_21
REMARK    6  A    between atoms: S_21  and  C_24
REMARK                            x       y       z     vdW  Elec       q    Type
REMARK                         _______ _______ _______ _____ _____    ______ ____
ROOT
ATOM      1  N   UNL     1      33.616 -23.839 -16.239  0.00  0.00    -0.312 N 
ATOM      2  C   UNL     1      35.726 -23.356 -15.846  0.00  0.00    -0.008 C 
ATOM      3  C   UNL     1      35.400 -22.818 -17.109  0.00  0.00    +0.010 C 
ATOM      4  C   UNL     1      34.628 -23.976 -15.327  0.00  0.00    +0.058 C 
ATOM      5  C   UNL     1      34.058 -23.136 -17.337  0.00  0.00    +0.048 C 
ATOM      6  C   UNL     1      36.101 -22.091 -18.091  0.00  0.00    -0.003 C 
ATOM      7  C   UNL     1      35.437 -21.709 -19.261  0.00  0.00    -0.020 C 
ATOM      8  C   UNL     1      33.382 -22.761 -18.502  0.00  0.00    +0.014 C 
ATOM      9  C   UNL     1      34.098 -22.040 -19.463  0.00  0.00    -0.003 C 
ATOM     10  H   UNL     1      32.704 -24.191 -16.126  0.00  0.00    +0.152 HD
ENDROOT
BRANCH   2  11
ATOM     11  C   UNL     1      37.061 -23.267 -15.173  0.00  0.00    +0.007 C 
BRANCH  11  13
ATOM     12  N   UNL     1      37.741 -24.015 -12.885  0.00  0.00    +0.387 N 
ATOM     13  C   UNL     1      37.316 -24.434 -14.228  0.00  0.00    -0.054 C 
ATOM     14  C   UNL     1      38.490 -25.298 -14.696  0.00  0.00    -0.023 C 
ATOM     15  C   UNL     1      39.147 -25.810 -13.419  0.00  0.00    -0.025 C 
ATOM     16  C   UNL     1      38.330 -25.214 -12.284  0.00  0.00    -0.077 C 
ATOM     17  C   UNL     1      36.650 -23.491 -12.072  0.00  0.00    -0.101 C 
ATOM     18  H   UNL     1      38.402 -23.240 -12.941  0.00  0.00    -0.080 HD
ENDBRANCH  11  13
ENDBRANCH   2  11
BRANCH   7  19
ATOM     19  C   UNL     1      36.174 -20.939 -20.307  0.00  0.00    +0.052 C 
BRANCH  19  20
ATOM     20  C   UNL     1      35.268 -20.139 -21.247  0.00  0.00    +0.161 C 
BRANCH  20  21
ATOM     21  S   UNL     1      35.940 -18.556 -21.650  0.00  0.00    +0.009 S 
ATOM     22  O   UNL     1      37.354 -18.710 -21.943  0.00  0.00    -0.169 OA
ATOM     23  O   UNL     1      35.500 -17.616 -20.633  0.00  0.00    -0.169 OA
BRANCH  21  24
ATOM     24  C   UNL     1      35.141 -18.127 -23.167  0.00  0.00    +0.106 C 
ATOM     25  C   UNL     1      34.579 -19.127 -23.942  0.00  0.00    +0.018 C 
ATOM     26  C   UNL     1      35.092 -16.798 -23.553  0.00  0.00    +0.018 C 
ATOM     27  C   UNL     1      33.949 -18.788 -25.139  0.00  0.00    +0.001 C 
ATOM     28  C   UNL     1      34.461 -16.460 -24.751  0.00  0.00    +0.001 C 
ATOM     29  C   UNL     1      33.890 -17.454 -25.543  0.00  0.00    +0.000 C 
ENDBRANCH  21  24
ENDBRANCH  20  21
ENDBRANCH  19  20
ENDBRANCH   7  19
TORSDOF 6
ENDMDL
MODEL 2
REMARK VINA RESULT:     -11.1      1.234      1.856
REMARK  Name = 77993
REMARK  6 active torsions:
REMARK  status: ('A' for Active; 'I' for Inactive)
REMARK    1  A    between atoms: C_2  and  C_11
REMARK    2  A    between atoms: C_7  and  C_19
REMARK    3  A    between atoms: C_11  and  C_13
REMARK    4  A    between atoms: C_19  and  C_20
REMARK    5  A    between atoms: C_20  and  S_21
REMARK    6  A    between atoms: S_21  and  C_24
REMARK                            x       y       z     vdW  Elec       q    Type
REMARK                         _______ _______ _______ _____ _____    ______ ____
ROOT
ATOM      1  N   UNL     1      33.493 -23.662 -16.274  0.00  0.00    -0.312 N 
ATOM      2  C   UNL     1      35.654 -23.299 -16.084  0.00  0.00    -0.008 C 
ATOM      3  C   UNL     1      35.238 -22.728 -17.305  0.00  0.00    +0.010 C 
ATOM      4  C   UNL     1      34.580 -23.865 -15.466  0.00  0.00    +0.058 C 
ATOM      5  C   UNL     1      33.865 -22.969 -17.404  0.00  0.00    +0.048 C 
ATOM      6  C   UNL     1      35.879 -22.027 -18.345  0.00  0.00    -0.003 C 
ATOM      7  C   UNL     1      35.127 -21.594 -19.443  0.00  0.00    -0.020 C 
ATOM      8  C   UNL     1      33.100 -22.543 -18.495  0.00  0.00    +0.014 C 
ATOM      9  C   UNL     1      33.758 -21.850 -19.515  0.00  0.00    -0.003 C 
ATOM     10  H   UNL     1      32.578 -23.966 -16.075  0.00  0.00    +0.152 HD
ENDROOT
BRANCH   2  11
ATOM     11  C   UNL     1      37.052 -23.291 -15.545  0.00  0.00    +0.007 C 
BRANCH  11  13
ATOM     12  N   UNL     1      37.595 -23.920 -13.186  0.00  0.00    +0.387 N 
ATOM     13  C   UNL     1      37.293 -24.408 -14.539  0.00  0.00    -0.054 C 
ATOM     14  C   UNL     1      38.541 -25.225 -14.885  0.00  0.00    -0.023 C 
ATOM     15  C   UNL     1      39.126 -25.656 -13.545  0.00  0.00    -0.025 C 
ATOM     16  C   UNL     1      38.197 -25.065 -12.497  0.00  0.00    -0.077 C 
ATOM     17  C   UNL     1      36.420 -23.428 -12.475  0.00  0.00    -0.101 C 
ATOM     18  H   UNL     1      38.218 -23.114 -13.223  0.00  0.00    -0.080 HD
ENDBRANCH  11  13
ENDBRANCH   2  11
BRANCH   7  19
ATOM     19  C   UNL     1      35.800 -20.852 -20.550  0.00  0.00    +0.052 C 
BRANCH  19  20
ATOM     20  C   UNL     1      35.035 -19.614 -21.026  0.00  0.00    +0.161 C 
BRANCH  20  21
ATOM     21  S   UNL     1      35.880 -18.750 -22.313  0.00  0.00    +0.009 S 
ATOM     22  O   UNL     1      35.411 -19.248 -23.595  0.00  0.00    -0.169 OA
ATOM     23  O   UNL     1      37.298 -18.760 -21.998  0.00  0.00    -0.169 OA
BRANCH  21  24
ATOM     24  C   UNL     1      35.301 -17.087 -22.162  0.00  0.00    +0.106 C 
ATOM     25  C   UNL     1      35.093 -16.554 -20.901  0.00  0.00    +0.018 C 
ATOM     26  C   UNL     1      35.067 -16.346 -23.309  0.00  0.00    +0.018 C 
ATOM     27  C   UNL     1      34.638 -15.242 -20.783  0.00  0.00    +0.001 C 
ATOM     28  C   UNL     1      34.611 -15.033 -23.189  0.00  0.00    +0.001 C 
ATOM     29  C   UNL     1      34.397 -14.481 -21.927  0.00  0.00    +0.000 C 
ENDBRANCH  21  24
ENDBRANCH  20  21
ENDBRANCH  19  20
ENDBRANCH   7  19
TORSDOF 6
ENDMDL
MODEL 3
REMARK VINA RESULT:     -10.8      2.230      4.297
REMARK  Name = 77993
REMARK  6 active torsions:
REMARK  status: ('A' for Active; 'I' for Inactive)
REMARK    1  A    between atoms: C_2  and  C_11
REMARK    2  A    between atoms: C_7  and  C_19
REMARK    3  A    between atoms: C_11  and  C_13
REMARK    4  A    between atoms: C_19  and  C_20
REMARK    5  A    between atoms: C_20  and  S_21
REMARK    6  A    between atoms: S_21  and  C_24
REMARK                            x       y       z     vdW  Elec       q    Type
REMARK                         _______ _______ _______ _____ _____    ______ ____
ROOT
ATOM      1  N   UNL     1      35.419 -23.281 -15.355  0.00  0.00    -0.312 N 
ATOM      2  C   UNL     1      33.609 -23.528 -16.580  0.00  0.00    -0.008 C 
ATOM      3  C   UNL     1      34.568 -22.870 -17.377  0.00  0.00    +0.010 C 
ATOM      4  C   UNL     1      34.141 -23.773 -15.349  0.00  0.00    +0.058 C 
ATOM      5  C   UNL     1      35.708 -22.723 -16.581  0.00  0.00    +0.048 C 
ATOM      6  C   UNL     1      34.596 -22.378 -18.696  0.00  0.00    -0.003 C 
ATOM      7  C   UNL     1      35.758 -21.759 -19.170  0.00  0.00    -0.020 C 
ATOM      8  C   UNL     1      36.876 -22.108 -17.041  0.00  0.00    +0.014 C 
ATOM      9  C   UNL     1      36.880 -21.627 -18.353  0.00  0.00    -0.003 C 
ATOM     10  H   UNL     1      36.042 -23.320 -14.594  0.00  0.00    +0.152 HD
ENDROOT
BRANCH   2  11
ATOM     11  C   UNL     1      32.223 -23.904 -17.007  0.00  0.00    +0.007 C 
BRANCH  11  13
ATOM     12  N   UNL     1      30.504 -24.706 -15.376  0.00  0.00    +0.387 N 
ATOM     13  C   UNL     1      31.174 -23.538 -15.966  0.00  0.00    -0.054 C 
ATOM     14  C   UNL     1      30.008 -22.760 -16.583  0.00  0.00    -0.023 C 
ATOM     15  C   UNL     1      28.779 -23.175 -15.783  0.00  0.00    -0.025 C 
ATOM     16  C   UNL     1      29.290 -24.171 -14.754  0.00  0.00    -0.077 C 
ATOM     17  C   UNL     1      31.331 -25.416 -14.408  0.00  0.00    -0.101 C 
ATOM     18  H   UNL     1      30.302 -25.405 -16.091  0.00  0.00    -0.080 HD
ENDBRANCH  11  13
ENDBRANCH   2  11
BRANCH   7  19
ATOM     19  C   UNL     1      35.795 -21.234 -20.568  0.00  0.00    +0.052 C 
BRANCH  19  20
ATOM     20  C   UNL     1      34.902 -20.011 -20.798  0.00  0.00    +0.161 C 
BRANCH  20  21
ATOM     21  S   UNL     1      35.817 -18.595 -21.322  0.00  0.00    +0.009 S 
ATOM     22  O   UNL     1      37.212 -18.970 -21.473  0.00  0.00    -0.169 OA
ATOM     23  O   UNL     1      35.446 -17.484 -20.462  0.00  0.00    -0.169 OA
BRANCH  21  24
ATOM     24  C   UNL     1      35.194 -18.260 -22.941  0.00  0.00    +0.106 C 
ATOM     25  C   UNL     1      34.716 -19.306 -23.713  0.00  0.00    +0.018 C 
ATOM     26  C   UNL     1      35.195 -16.956 -23.410  0.00  0.00    +0.018 C 
ATOM     27  C   UNL     1      34.224 -19.040 -24.990  0.00  0.00    +0.001 C 
ATOM     28  C   UNL     1      34.703 -16.692 -24.688  0.00  0.00    +0.001 C 
ATOM     29  C   UNL     1      34.218 -17.733 -25.478  0.00  0.00    +0.000 C 
ENDBRANCH  21  24
ENDBRANCH  20  21
ENDBRANCH  19  20
ENDBRANCH   7  19
TORSDOF 6
ENDMDL
MODEL 4
REMARK VINA RESULT:     -10.5      3.836     10.023
REMARK  Name = 77993
REMARK  6 active torsions:
REMARK  status: ('A' for Active; 'I' for Inactive)
REMARK    1  A    between atoms: C_2  and  C_11
REMARK    2  A    between atoms: C_7  and  C_19
REMARK    3  A    between atoms: C_11  and  C_13
REMARK    4  A    between atoms: C_19  and  C_20
REMARK    5  A    between atoms: C_20  and  S_21
REMARK    6  A    between atoms: S_21  and  C_24
REMARK                            x       y       z     vdW  Elec       q    Type
REMARK                         _______ _______ _______ _____ _____    ______ ____
ROOT
ATOM      1  N   UNL     1      32.642 -21.438 -20.076  0.00  0.00    -0.312 N 
ATOM      2  C   UNL     1      34.494 -20.483 -20.780  0.00  0.00    -0.008 C 
ATOM      3  C   UNL     1      34.825 -21.258 -19.648  0.00  0.00    +0.010 C 
ATOM      4  C   UNL     1      33.160 -20.603 -21.030  0.00  0.00    +0.058 C 
ATOM      5  C   UNL     1      33.636 -21.854 -19.219  0.00  0.00    +0.048 C 
ATOM      6  C   UNL     1      36.010 -21.520 -18.934  0.00  0.00    -0.003 C 
ATOM      7  C   UNL     1      35.964 -22.367 -17.822  0.00  0.00    -0.020 C 
ATOM      8  C   UNL     1      33.575 -22.702 -18.109  0.00  0.00    +0.014 C 
ATOM      9  C   UNL     1      34.764 -22.948 -17.416  0.00  0.00    -0.003 C 
ATOM     10  H   UNL     1      31.696 -21.704 -20.013  0.00  0.00    +0.152 HD
ENDROOT
BRANCH   2  11
ATOM     11  C   UNL     1      35.450 -19.657 -21.586  0.00  0.00    +0.007 C 
BRANCH  11  13
ATOM     12  N   UNL     1      35.058 -18.313 -23.659  0.00  0.00    +0.387 N 
ATOM     13  C   UNL     1      34.779 -18.447 -22.222  0.00  0.00    -0.054 C 
ATOM     14  C   UNL     1      35.320 -17.133 -21.652  0.00  0.00    -0.023 C 
ATOM     15  C   UNL     1      35.268 -16.141 -22.808  0.00  0.00    -0.025 C 
ATOM     16  C   UNL     1      34.710 -16.927 -23.983  0.00  0.00    -0.077 C 
ATOM     17  C   UNL     1      34.312 -19.258 -24.482  0.00  0.00    -0.101 C 
ATOM     18  H   UNL     1      36.035 -18.528 -23.858  0.00  0.00    -0.080 HD
ENDBRANCH  11  13
ENDBRANCH   2  11
BRANCH   7  19
ATOM     19  C   UNL     1      37.217 -22.649 -17.060  0.00  0.00    +0.052 C 
BRANCH  19  20
ATOM     20  C   UNL     1      37.024 -22.711 -15.542  0.00  0.00    +0.161 C 
BRANCH  20  21
ATOM     21  S   UNL     1      37.460 -24.284 -14.868  0.00  0.00    +0.009 S 
ATOM     22  O   UNL     1      38.908 -24.408 -14.873  0.00  0.00    -0.169 OA
ATOM     23  O   UNL     1      36.637 -25.289 -15.518  0.00  0.00    -0.169 OA
BRANCH  21  24
ATOM     24  C   UNL     1      36.957 -24.178 -13.177  0.00  0.00    +0.106 C 
ATOM     25  C   UNL     1      37.536 -23.225 -12.357  0.00  0.00    +0.018 C 
ATOM     26  C   UNL     1      35.992 -25.052 -12.704  0.00  0.00    +0.018 C 
ATOM     27  C   UNL     1      37.138 -23.142 -11.023  0.00  0.00    +0.001 C 
ATOM     28  C   UNL     1      35.595 -24.968 -11.369  0.00  0.00    +0.001 C 
ATOM     29  C   UNL     1      36.167 -24.014 -10.529  0.00  0.00    +0.000 C 
ENDBRANCH  21  24
ENDBRANCH  20  21
ENDBRANCH  19  20
ENDBRANCH   7  19
TORSDOF 6
ENDMDL
MODEL 5
REMARK VINA RESULT:     -10.1      9.559     14.428
REMARK  Name = 77993
REMARK  6 active torsions:
REMARK  status: ('A' for Active; 'I' for Inactive)
REMARK    1  A    between atoms: C_2  and  C_11
REMARK    2  A    between atoms: C_7  and  C_19
REMARK    3  A    between atoms: C_11  and  C_13
REMARK    4  A    between atoms: C_19  and  C_20
REMARK    5  A    between atoms: C_20  and  S_21
REMARK    6  A    between atoms: S_21  and  C_24
REMARK                            x       y       z     vdW  Elec       q    Type
REMARK                         _______ _______ _______ _____ _____    ______ ____
ROOT
ATOM      1  N   UNL     1      32.038  -7.655 -19.789  0.00  0.00    -0.312 N 
ATOM      2  C   UNL     1      32.154  -7.980 -21.962  0.00  0.00    -0.008 C 
ATOM      3  C   UNL     1      32.054  -9.248 -21.352  0.00  0.00    +0.010 C 
ATOM      4  C   UNL     1      32.143  -7.018 -20.997  0.00  0.00    +0.058 C 
ATOM      5  C   UNL     1      31.981  -9.018 -19.976  0.00  0.00    +0.048 C 
ATOM      6  C   UNL     1      32.016 -10.576 -21.820  0.00  0.00    -0.003 C 
ATOM      7  C   UNL     1      31.908 -11.622 -20.897  0.00  0.00    -0.020 C 
ATOM      8  C   UNL     1      31.873 -10.054 -19.042  0.00  0.00    +0.014 C 
ATOM      9  C   UNL     1      31.838 -11.363 -19.530  0.00  0.00    -0.003 C 
ATOM     10  H   UNL     1      32.007  -7.205 -18.915  0.00  0.00    +0.152 HD
ENDROOT
BRANCH   2  11
ATOM     11  C   UNL     1      32.256  -7.721 -23.434  0.00  0.00    +0.007 C 
BRANCH  11  13
ATOM     12  N   UNL     1      32.244  -5.533 -24.646  0.00  0.00    +0.387 N 
ATOM     13  C   UNL     1      32.990  -6.423 -23.746  0.00  0.00    -0.054 C 
ATOM     14  C   UNL     1      34.285  -6.676 -24.524  0.00  0.00    -0.023 C 
ATOM     15  C   UNL     1      34.446  -5.469 -25.441  0.00  0.00    -0.025 C 
ATOM     16  C   UNL     1      33.241  -4.587 -25.154  0.00  0.00    -0.077 C 
ATOM     17  C   UNL     1      31.140  -4.842 -23.989  0.00  0.00    -0.101 C 
ATOM     18  H   UNL     1      31.795  -6.066 -25.390  0.00  0.00    -0.080 HD
ENDBRANCH  11  13
ENDBRANCH   2  11
BRANCH   7  19
ATOM     19  C   UNL     1      31.868 -13.033 -21.386  0.00  0.00    +0.052 C 
BRANCH  19  20
ATOM     20  C   UNL     1      32.218 -13.190 -22.869  0.00  0.00    +0.161 C 
BRANCH  20  21
ATOM     21  S   UNL     1      33.946 -13.440 -23.133  0.00  0.00    +0.009 S 
ATOM     22  O   UNL     1      34.586 -13.670 -21.850  0.00  0.00    -0.169 OA
ATOM     23  O   UNL     1      34.419 -12.382 -24.009  0.00  0.00    -0.169 OA
BRANCH  21  24
ATOM     24  C   UNL     1      34.024 -14.962 -24.029  0.00  0.00    +0.106 C 
ATOM     25  C   UNL     1      33.286 -15.101 -25.192  0.00  0.00    +0.018 C 
ATOM     26  C   UNL     1      34.823 -15.988 -23.551  0.00  0.00    +0.018 C 
ATOM     27  C   UNL     1      33.348 -16.302 -25.899  0.00  0.00    +0.001 C 
ATOM     28  C   UNL     1      34.884 -17.188 -24.259  0.00  0.00    +0.001 C 
ATOM     29  C   UNL     1      34.148 -17.345 -25.432  0.00  0.00    +0.000 C 
ENDBRANCH  21  24
ENDBRANCH  20  21
ENDBRANCH  19  20
ENDBRANCH   7  19
TORSDOF 6
ENDMDL
MODEL 6
REMARK VINA RESULT:     -10.0      2.622      4.619
REMARK  Name = 77993
REMARK  6 active torsions:
REMARK  status: ('A' for Active; 'I' for Inactive)
REMARK    1  A    between atoms: C_2  and  C_11
REMARK    2  A    between atoms: C_7  and  C_19
REMARK    3  A    between atoms: C_11  and  C_13
REMARK    4  A    between atoms: C_19  and  C_20
REMARK    5  A    between atoms: C_20  and  S_21
REMARK    6  A    between atoms: S_21  and  C_24
REMARK                            x       y       z     vdW  Elec       q    Type
REMARK                         _______ _______ _______ _____ _____    ______ ____
ROOT
ATOM      1  N   UNL     1      35.473 -23.331 -15.930  0.00  0.00    -0.312 N 
ATOM      2  C   UNL     1      33.505 -23.495 -16.898  0.00  0.00    -0.008 C 
ATOM      3  C   UNL     1      34.348 -22.786 -17.779  0.00  0.00    +0.010 C 
ATOM      4  C   UNL     1      34.204 -23.822 -15.775  0.00  0.00    +0.058 C 
ATOM      5  C   UNL     1      35.590 -22.694 -17.145  0.00  0.00    +0.048 C 
ATOM      6  C   UNL     1      34.193 -22.207 -19.054  0.00  0.00    -0.003 C 
ATOM      7  C   UNL     1      35.283 -21.559 -19.646  0.00  0.00    -0.020 C 
ATOM      8  C   UNL     1      36.687 -22.050 -17.726  0.00  0.00    +0.014 C 
ATOM      9  C   UNL     1      36.510 -21.482 -18.991  0.00  0.00    -0.003 C 
ATOM     10  H   UNL     1      36.198 -23.421 -15.270  0.00  0.00    +0.152 HD
ENDROOT
BRANCH   2  11
ATOM     11  C   UNL     1      32.069 -23.840 -17.148  0.00  0.00    +0.007 C 
BRANCH  11  13
ATOM     12  N   UNL     1      30.551 -24.573 -15.299  0.00  0.00    +0.387 N 
ATOM     13  C   UNL     1      31.163 -23.431 -15.994  0.00  0.00    -0.054 C 
ATOM     14  C   UNL     1      29.944 -22.643 -16.479  0.00  0.00    -0.023 C 
ATOM     15  C   UNL     1      28.816 -23.016 -15.525  0.00  0.00    -0.025 C 
ATOM     16  C   UNL     1      29.433 -24.001 -14.544  0.00  0.00    -0.077 C 
ATOM     17  C   UNL     1      31.479 -25.281 -14.425  0.00  0.00    -0.101 C 
ATOM     18  H   UNL     1      30.250 -25.282 -15.967  0.00  0.00    -0.080 HD
ENDBRANCH  11  13
ENDBRANCH   2  11
BRANCH   7  19
ATOM     19  C   UNL     1      35.126 -20.942 -20.997  0.00  0.00    +0.052 C 
BRANCH  19  20
ATOM     20  C   UNL     1      35.024 -19.414 -20.977  0.00  0.00    +0.161 C 
BRANCH  20  21
ATOM     21  S   UNL     1      35.804 -18.666 -22.373  0.00  0.00    +0.009 S 
ATOM     22  O   UNL     1      35.270 -19.265 -23.583  0.00  0.00    -0.169 OA
ATOM     23  O   UNL     1      37.236 -18.659 -22.130  0.00  0.00    -0.169 OA
BRANCH  21  24
ATOM     24  C   UNL     1      35.238 -16.992 -22.332  0.00  0.00    +0.106 C 
ATOM     25  C   UNL     1      34.959 -16.342 -23.522  0.00  0.00    +0.018 C 
ATOM     26  C   UNL     1      35.082 -16.361 -21.109  0.00  0.00    +0.018 C 
ATOM     27  C   UNL     1      34.512 -15.022 -23.489  0.00  0.00    +0.001 C 
ATOM     28  C   UNL     1      34.635 -15.040 -21.077  0.00  0.00    +0.001 C 
ATOM     29  C   UNL     1      34.350 -14.371 -22.266  0.00  0.00    +0.000 C 
ENDBRANCH  21  24
ENDBRANCH  20  21
ENDBRANCH  19  20
ENDBRANCH   7  19
TORSDOF 6
ENDMDL
MODEL 7
REMARK VINA RESULT:     -10.0      5.487     11.397
REMARK  Name = 77993
REMARK  6 active torsions:
REMARK  status: ('A' for Active; 'I' for Inactive)
REMARK    1  A    between atoms: C_2  and  C_11
REMARK    2  A    between atoms: C_7  and  C_19
REMARK    3  A    between atoms: C_11  and  C_13
REMARK    4  A    between atoms: C_19  and  C_20
REMARK    5  A    between atoms: C_20  and  S_21
REMARK    6  A    between atoms: S_21  and  C_24
REMARK                            x       y       z     vdW  Elec       q    Type
REMARK                         _______ _______ _______ _____ _____    ______ ____
ROOT
ATOM      1  N   UNL     1      32.846 -14.275 -26.208  0.00  0.00    -0.312 N 
ATOM      2  C   UNL     1      33.450 -12.925 -24.579  0.00  0.00    -0.008 C 
ATOM      3  C   UNL     1      33.911 -14.216 -24.247  0.00  0.00    +0.010 C 
ATOM      4  C   UNL     1      32.802 -12.976 -25.777  0.00  0.00    +0.058 C 
ATOM      5  C   UNL     1      33.517 -15.055 -25.293  0.00  0.00    +0.048 C 
ATOM      6  C   UNL     1      34.624 -14.770 -23.166  0.00  0.00    -0.003 C 
ATOM      7  C   UNL     1      34.917 -16.138 -23.171  0.00  0.00    -0.020 C 
ATOM      8  C   UNL     1      33.803 -16.424 -25.311  0.00  0.00    +0.014 C 
ATOM      9  C   UNL     1      34.512 -16.951 -24.228  0.00  0.00    -0.003 C 
ATOM     10  H   UNL     1      32.455 -14.604 -27.049  0.00  0.00    +0.152 HD
ENDROOT
BRANCH   2  11
ATOM     11  C   UNL     1      33.636 -11.689 -23.754  0.00  0.00    +0.007 C 
BRANCH  11  13
ATOM     12  N   UNL     1      32.459 -10.008 -22.324  0.00  0.00    +0.387 N 
ATOM     13  C   UNL     1      32.398 -11.342 -22.938  0.00  0.00    -0.054 C 
ATOM     14  C   UNL     1      32.241 -12.262 -21.724  0.00  0.00    -0.023 C 
ATOM     15  C   UNL     1      31.604 -11.397 -20.643  0.00  0.00    -0.025 C 
ATOM     16  C   UNL     1      31.432 -10.027 -21.278  0.00  0.00    -0.077 C 
ATOM     17  C   UNL     1      32.233  -8.925 -23.274  0.00  0.00    -0.101 C 
ATOM     18  H   UNL     1      33.391  -9.823 -21.954  0.00  0.00    -0.080 HD
ENDBRANCH  11  13
ENDBRANCH   2  11
BRANCH   7  19
ATOM     19  C   UNL     1      35.672 -16.732 -22.028  0.00  0.00    +0.052 C 
BRANCH  19  20
ATOM     20  C   UNL     1      34.965 -17.916 -21.361  0.00  0.00    +0.161 C 
BRANCH  20  21
ATOM     21  S   UNL     1      35.875 -19.421 -21.513  0.00  0.00    +0.009 S 
ATOM     22  O   UNL     1      37.174 -19.246 -20.888  0.00  0.00    -0.169 OA
ATOM     23  O   UNL     1      35.780 -19.859 -22.895  0.00  0.00    -0.169 OA
BRANCH  21  24
ATOM     24  C   UNL     1      34.972 -20.568 -20.516  0.00  0.00    +0.106 C 
ATOM     25  C   UNL     1      33.589 -20.571 -20.572  0.00  0.00    +0.018 C 
ATOM     26  C   UNL     1      35.666 -21.442 -19.696  0.00  0.00    +0.018 C 
ATOM     27  C   UNL     1      32.878 -21.477 -19.786  0.00  0.00    +0.001 C 
ATOM     28  C   UNL     1      34.954 -22.348 -18.909  0.00  0.00    +0.001 C 
ATOM     29  C   UNL     1      33.560 -22.365 -18.954  0.00  0.00    +0.000 C 
ENDBRANCH  21  24
ENDBRANCH  20  21
ENDBRANCH  19  20
ENDBRANCH   7  19
TORSDOF 6
ENDMDL
MODEL 8
REMARK VINA RESULT:      -9.9      3.860      9.516
REMARK  Name = 77993
REMARK  6 active torsions:
REMARK  status: ('A' for Active; 'I' for Inactive)
REMARK    1  A    between atoms: C_2  and  C_11
REMARK    2  A    between atoms: C_7  and  C_19
REMARK    3  A    between atoms: C_11  and  C_13
REMARK    4  A    between atoms: C_19  and  C_20
REMARK    5  A    between atoms: C_20  and  S_21
REMARK    6  A    between atoms: S_21  and  C_24
REMARK                            x       y       z     vdW  Elec       q    Type
REMARK                         _______ _______ _______ _____ _____    ______ ____
ROOT
ATOM      1  N   UNL     1      32.709 -21.875 -19.678  0.00  0.00    -0.312 N 
ATOM      2  C   UNL     1      34.598 -20.916 -20.273  0.00  0.00    -0.008 C 
ATOM      3  C   UNL     1      34.854 -21.661 -19.102  0.00  0.00    +0.010 C 
ATOM      4  C   UNL     1      33.285 -21.056 -20.613  0.00  0.00    +0.058 C 
ATOM      5  C   UNL     1      33.644 -22.260 -18.743  0.00  0.00    +0.048 C 
ATOM      6  C   UNL     1      35.989 -21.895 -18.301  0.00  0.00    -0.003 C 
ATOM      7  C   UNL     1      35.872 -22.716 -17.175  0.00  0.00    -0.020 C 
ATOM      8  C   UNL     1      33.512 -23.083 -17.621  0.00  0.00    +0.014 C 
ATOM      9  C   UNL     1      34.652 -23.300 -16.840  0.00  0.00    -0.003 C 
ATOM     10  H   UNL     1      31.764 -22.149 -19.675  0.00  0.00    +0.152 HD
ENDROOT
BRANCH   2  11
ATOM     11  C   UNL     1      35.600 -20.100 -21.029  0.00  0.00    +0.007 C 
BRANCH  11  13
ATOM     12  N   UNL     1      35.394 -18.793 -23.152  0.00  0.00    +0.387 N 
ATOM     13  C   UNL     1      34.963 -18.921 -21.753  0.00  0.00    -0.054 C 
ATOM     14  C   UNL     1      35.392 -17.583 -21.147  0.00  0.00    -0.023 C 
ATOM     15  C   UNL     1      35.435 -16.606 -22.316  0.00  0.00    -0.025 C 
ATOM     16  C   UNL     1      35.036 -17.424 -23.534  0.00  0.00    -0.077 C 
ATOM     17  C   UNL     1      34.776 -19.773 -24.038  0.00  0.00    -0.101 C 
ATOM     18  H   UNL     1      36.394 -18.975 -23.240  0.00  0.00    -0.080 HD
ENDBRANCH  11  13
ENDBRANCH   2  11
BRANCH   7  19
ATOM     19  C   UNL     1      37.071 -22.968 -16.320  0.00  0.00    +0.052 C 
BRANCH  19  20
ATOM     20  C   UNL     1      37.047 -22.228 -14.979  0.00  0.00    +0.161 C 
BRANCH  20  21
ATOM     21  S   UNL     1      36.810 -23.318 -13.610  0.00  0.00    +0.009 S 
ATOM     22  O   UNL     1      35.385 -23.462 -13.369  0.00  0.00    -0.169 OA
ATOM     23  O   UNL     1      37.694 -22.885 -12.541  0.00  0.00    -0.169 OA
BRANCH  21  24
ATOM     24  C   UNL     1      37.395 -24.878 -14.200  0.00  0.00    +0.106 C 
ATOM     25  C   UNL     1      36.487 -25.794 -14.705  0.00  0.00    +0.018 C 
ATOM     26  C   UNL     1      38.750 -25.156 -14.147  0.00  0.00    +0.018 C 
ATOM     27  C   UNL     1      36.949 -27.024 -15.171  0.00  0.00    +0.001 C 
ATOM     28  C   UNL     1      39.212 -26.388 -14.614  0.00  0.00    +0.001 C 
ATOM     29  C   UNL     1      38.311 -27.321 -15.125  0.00  0.00    +0.000 C 
ENDBRANCH  21  24
ENDBRANCH  20  21
ENDBRANCH  19  20
ENDBRANCH   7  19
TORSDOF 6
ENDMDL
MODEL 9
REMARK VINA RESULT:      -9.9      7.281     12.976
REMARK  Name = 77993
REMARK  6 active torsions:
REMARK  status: ('A' for Active; 'I' for Inactive)
REMARK    1  A    between atoms: C_2  and  C_11
REMARK    2  A    between atoms: C_7  and  C_19
REMARK    3  A    between atoms: C_11  and  C_13
REMARK    4  A    between atoms: C_19  and  C_20
REMARK    5  A    between atoms: C_20  and  S_21
REMARK    6  A    between atoms: S_21  and  C_24
REMARK                            x       y       z     vdW  Elec       q    Type
REMARK                         _______ _______ _______ _____ _____    ______ ____
ROOT
ATOM      1  N   UNL     1      31.415 -10.975 -20.502  0.00  0.00    -0.312 N 
ATOM      2  C   UNL     1      32.074 -10.244 -22.470  0.00  0.00    -0.008 C 
ATOM      3  C   UNL     1      32.506 -11.582 -22.352  0.00  0.00    +0.010 C 
ATOM      4  C   UNL     1      31.409  -9.887 -21.334  0.00  0.00    +0.058 C 
ATOM      5  C   UNL     1      32.078 -12.025 -21.097  0.00  0.00    +0.048 C 
ATOM      6  C   UNL     1      33.220 -12.473 -23.177  0.00  0.00    -0.003 C 
ATOM      7  C   UNL     1      33.478 -13.769 -22.720  0.00  0.00    -0.020 C 
ATOM      8  C   UNL     1      32.328 -13.317 -20.627  0.00  0.00    +0.014 C 
ATOM      9  C   UNL     1      33.038 -14.184 -21.464  0.00  0.00    -0.003 C 
ATOM     10  H   UNL     1      31.004 -11.003 -19.608  0.00  0.00    +0.152 HD
ENDROOT
BRANCH   2  11
ATOM     11  C   UNL     1      32.302  -9.350 -23.649  0.00  0.00    +0.007 C 
BRANCH  11  13
ATOM     12  N   UNL     1      32.206  -6.854 -23.792  0.00  0.00    +0.387 N 
ATOM     13  C   UNL     1      32.928  -8.018 -23.257  0.00  0.00    -0.054 C 
ATOM     14  C   UNL     1      34.326  -7.848 -23.857  0.00  0.00    -0.023 C 
ATOM     15  C   UNL     1      34.469  -6.356 -24.130  0.00  0.00    -0.025 C 
ATOM     16  C   UNL     1      33.152  -5.741 -23.684  0.00  0.00    -0.077 C 
ATOM     17  C   UNL     1      30.964  -6.570 -23.082  0.00  0.00    -0.101 C 
ATOM     18  H   UNL     1      31.909  -7.024 -24.753  0.00  0.00    -0.080 HD
ENDBRANCH  11  13
ENDBRANCH   2  11
BRANCH   7  19
ATOM     19  C   UNL     1      34.235 -14.719 -23.589  0.00  0.00    +0.052 C 
BRANCH  19  20
ATOM     20  C   UNL     1      33.383 -15.387 -24.673  0.00  0.00    +0.161 C 
BRANCH  20  21
ATOM     21  S   UNL     1      34.133 -16.851 -25.315  0.00  0.00    +0.009 S 
ATOM     22  O   UNL     1      35.330 -16.479 -26.049  0.00  0.00    -0.169 OA
ATOM     23  O   UNL     1      33.093 -17.635 -25.959  0.00  0.00    -0.169 OA
BRANCH  21  24
ATOM     24  C   UNL     1      34.661 -17.727 -23.874  0.00  0.00    +0.106 C 
ATOM     25  C   UNL     1      34.312 -19.059 -23.726  0.00  0.00    +0.018 C 
ATOM     26  C   UNL     1      35.416 -17.066 -22.919  0.00  0.00    +0.018 C 
ATOM     27  C   UNL     1      34.730 -19.750 -22.589  0.00  0.00    +0.001 C 
ATOM     28  C   UNL     1      35.833 -17.758 -21.782  0.00  0.00    +0.001 C 
ATOM     29  C   UNL     1      35.491 -19.099 -21.617  0.00  0.00    +0.000 C 
ENDBRANCH  21  24
ENDBRANCH  20  21
ENDBRANCH  19  20
ENDBRANCH   7  19
TORSDOF 6
ENDMDL
