MODEL 1
REMARK VINA RESULT:     -12.9      0.000      0.000
REMARK  Name = 10074640
REMARK  6 active torsions:
REMARK  status: ('A' for Active; 'I' for Inactive)
REMARK    1  A    between atoms: N_2  and  C_5
REMARK    2  A    between atoms: C_3  and  C_30
REMARK    3  A    between atoms: C_6  and  N_13
REMARK    4  A    between atoms: C_16  and  C_20
REMARK    5  A    between atoms: C_25  and  C_31
REMARK    6  A    between atoms: C_31  and  N_32
REMARK                            x       y       z     vdW  Elec       q    Type
REMARK                         _______ _______ _______ _____ _____    ______ ____
ROOT
ATOM      1  O   UNL     1      33.868 -24.040 -18.991  0.00  0.00    -0.270 OA
ATOM      2  N   UNL     1      33.395 -22.397 -17.384  0.00  0.00    -0.280 N 
ATOM      3  C   UNL     1      33.885 -22.857 -18.614  0.00  0.00    +0.249 C 
ATOM      4  H   UNL     1      33.478 -21.428 -17.226  0.00  0.00    +0.155 HD
ENDROOT
BRANCH   2   5
ATOM      5  C   UNL     1      32.797 -23.142 -16.339  0.00  0.00    +0.052 C 
ATOM      6  C   UNL     1      32.872 -24.003 -14.102  0.00  0.00    +0.048 C 
ATOM      7  C   UNL     1      33.462 -23.269 -15.132  0.00  0.00    +0.029 C 
ATOM      8  C   UNL     1      31.626 -24.598 -14.296  0.00  0.00    -0.008 C 
ATOM      9  C   UNL     1      31.559 -23.726 -16.548  0.00  0.00    +0.014 C 
ATOM     10  C   UNL     1      30.969 -24.460 -15.520  0.00  0.00    -0.002 C 
ATOM     11  C   UNL     1      30.971 -25.389 -13.211  0.00  0.00    +0.032 C 
BRANCH   6  13
ATOM     12  S   UNL     1      35.350 -24.702 -10.997  0.00  0.00    -0.059 S 
ATOM     13  N   UNL     1      33.550 -24.132 -12.870  0.00  0.00    -0.283 N 
ATOM     14  N   UNL     1      35.775 -24.562 -13.544  0.00  0.00    -0.384 NA
ATOM     15  C   UNL     1      34.857 -24.444 -12.617  0.00  0.00    +0.211 C 
ATOM     16  C   UNL     1      36.974 -24.884 -12.936  0.00  0.00    +0.124 C 
ATOM     17  C   UNL     1      36.941 -25.002 -11.563  0.00  0.00    +0.125 C 
ATOM     18  H   UNL     1      32.997 -23.972 -12.072  0.00  0.00    +0.155 HD
BRANCH  16  20
ATOM     19  N   UNL     1      39.523 -24.479 -15.611  0.00  0.00    -0.242 NA
ATOM     20  C   UNL     1      38.173 -25.079 -13.699  0.00  0.00    +0.046 C 
ATOM     21  C   UNL     1      39.126 -26.012 -13.308  0.00  0.00    +0.005 C 
ATOM     22  C   UNL     1      38.416 -24.344 -14.848  0.00  0.00    +0.101 C 
ATOM     23  C   UNL     1      40.279 -26.179 -14.067  0.00  0.00    +0.021 C 
ATOM     24  C   UNL     1      40.428 -25.395 -15.200  0.00  0.00    +0.099 C 
ENDBRANCH  16  20
ENDBRANCH   6  13
ENDBRANCH   2   5
BRANCH   3  30
ATOM     25  C   UNL     1      35.598 -19.921 -21.132  0.00  0.00    -0.043 C 
ATOM     26  C   UNL     1      36.426 -20.735 -20.370  0.00  0.00    -0.006 C 
ATOM     27  C   UNL     1      34.218 -20.057 -21.082  0.00  0.00    -0.006 C 
ATOM     28  C   UNL     1      35.859 -21.703 -19.539  0.00  0.00    +0.004 C 
ATOM     29  C   UNL     1      33.653 -21.025 -20.253  0.00  0.00    +0.004 C 
ATOM     30  C   UNL     1      34.474 -21.848 -19.481  0.00  0.00    +0.054 C 
BRANCH  25  31
ATOM     31  C   UNL     1      36.209 -18.877 -22.030  0.00  0.00    -0.050 C 
BRANCH  31  32
ATOM     32  N   UNL     1      35.198 -18.196 -22.836  0.00  0.00    +0.387 N 
ATOM     33  N   UNL     1      34.337 -16.662 -25.131  0.00  0.00    +0.383 N 
ATOM     34  C   UNL     1      35.502 -16.765 -22.954  0.00  0.00    -0.100 C 
ATOM     35  C   UNL     1      35.093 -18.808 -24.166  0.00  0.00    -0.100 C 
ATOM     36  C   UNL     1      34.444 -16.050 -23.801  0.00  0.00    -0.101 C 
ATOM     37  C   UNL     1      34.034 -18.094 -25.013  0.00  0.00    -0.101 C 
ATOM     38  C   UNL     1      33.325 -15.982 -25.937  0.00  0.00    -0.101 C 
ATOM     39  H   UNL     1      34.299 -18.297 -22.364  0.00  0.00    -0.079 HD
ATOM     40  H   UNL     1      35.235 -16.561 -25.604  0.00  0.00    -0.080 HD
ENDBRANCH  31  32
ENDBRANCH  25  31
ENDBRANCH   3  30
TORSDOF 6
ENDMDL
MODEL 2
REMARK VINA RESULT:     -11.0      6.639     11.370
REMARK  Name = 10074640
REMARK  6 active torsions:
REMARK  status: ('A' for Active; 'I' for Inactive)
REMARK    1  A    between atoms: N_2  and  C_5
REMARK    2  A    between atoms: C_3  and  C_30
REMARK    3  A    between atoms: C_6  and  N_13
REMARK    4  A    between atoms: C_16  and  C_20
REMARK    5  A    between atoms: C_25  and  C_31
REMARK    6  A    between atoms: C_31  and  N_32
REMARK                            x       y       z     vdW  Elec       q    Type
REMARK                         _______ _______ _______ _____ _____    ______ ____
ROOT
ATOM      1  O   UNL     1      32.011 -13.865 -21.518  0.00  0.00    -0.270 OA
ATOM      2  N   UNL     1      33.351 -13.364 -23.378  0.00  0.00    -0.280 N 
ATOM      3  C   UNL     1      32.566 -13.041 -22.263  0.00  0.00    +0.249 C 
ATOM      4  H   UNL     1      33.727 -12.600 -23.872  0.00  0.00    +0.155 HD
ENDROOT
BRANCH   2   5
ATOM      5  C   UNL     1      33.674 -14.646 -23.887  0.00  0.00    +0.052 C 
ATOM      6  C   UNL     1      35.081 -16.587 -23.872  0.00  0.00    +0.048 C 
ATOM      7  C   UNL     1      34.765 -15.324 -23.371  0.00  0.00    +0.029 C 
ATOM      8  C   UNL     1      34.302 -17.152 -24.880  0.00  0.00    -0.008 C 
ATOM      9  C   UNL     1      32.889 -15.193 -24.888  0.00  0.00    +0.014 C 
ATOM     10  C   UNL     1      33.206 -16.455 -25.389  0.00  0.00    -0.002 C 
ATOM     11  C   UNL     1      34.619 -18.502 -25.435  0.00  0.00    +0.032 C 
BRANCH   6  13
ATOM     12  S   UNL     1      37.770 -18.808 -21.844  0.00  0.00    -0.059 S 
ATOM     13  N   UNL     1      36.194 -17.278 -23.345  0.00  0.00    -0.283 N 
ATOM     14  N   UNL     1      35.187 -18.886 -21.934  0.00  0.00    -0.384 NA
ATOM     15  C   UNL     1      36.244 -18.284 -22.420  0.00  0.00    +0.211 C 
ATOM     16  C   UNL     1      35.603 -19.844 -21.029  0.00  0.00    +0.124 C 
ATOM     17  C   UNL     1      36.966 -19.950 -20.848  0.00  0.00    +0.125 C 
ATOM     18  H   UNL     1      37.068 -16.993 -23.699  0.00  0.00    +0.155 HD
BRANCH  16  20
ATOM     19  N   UNL     1      32.366 -21.257 -19.874  0.00  0.00    -0.242 NA
ATOM     20  C   UNL     1      34.666 -20.673 -20.328  0.00  0.00    +0.046 C 
ATOM     21  C   UNL     1      35.099 -21.661 -19.452  0.00  0.00    +0.005 C 
ATOM     22  C   UNL     1      33.301 -20.512 -20.503  0.00  0.00    +0.101 C 
ATOM     23  C   UNL     1      34.166 -22.449 -18.786  0.00  0.00    +0.021 C 
ATOM     24  C   UNL     1      32.823 -22.209 -19.030  0.00  0.00    +0.099 C 
ENDBRANCH  16  20
ENDBRANCH   6  13
ENDBRANCH   2   5
BRANCH   3  30
ATOM     25  C   UNL     1      32.057  -8.911 -21.500  0.00  0.00    -0.043 C 
ATOM     26  C   UNL     1      32.564  -9.322 -22.725  0.00  0.00    -0.006 C 
ATOM     27  C   UNL     1      31.713  -9.834 -20.522  0.00  0.00    -0.006 C 
ATOM     28  C   UNL     1      32.731 -10.685 -22.976  0.00  0.00    +0.004 C 
ATOM     29  C   UNL     1      31.881 -11.196 -20.773  0.00  0.00    +0.004 C 
ATOM     30  C   UNL     1      32.390 -11.620 -22.000  0.00  0.00    +0.054 C 
BRANCH  25  31
ATOM     31  C   UNL     1      31.874  -7.441 -21.229  0.00  0.00    -0.050 C 
BRANCH  31  32
ATOM     32  N   UNL     1      31.796  -6.666 -22.466  0.00  0.00    +0.387 N 
ATOM     33  N   UNL     1      32.272  -4.301 -24.059  0.00  0.00    +0.383 N 
ATOM     34  C   UNL     1      31.010  -5.443 -22.266  0.00  0.00    -0.100 C 
ATOM     35  C   UNL     1      33.138  -6.337 -22.960  0.00  0.00    -0.100 C 
ATOM     36  C   UNL     1      30.930  -4.628 -23.562  0.00  0.00    -0.101 C 
ATOM     37  C   UNL     1      33.058  -5.525 -24.257  0.00  0.00    -0.101 C 
ATOM     38  C   UNL     1      32.194  -3.528 -25.297  0.00  0.00    -0.101 C 
ATOM     39  H   UNL     1      31.326  -7.240 -23.167  0.00  0.00    -0.079 HD
ATOM     40  H   UNL     1      32.742  -3.726 -23.359  0.00  0.00    -0.080 HD
ENDBRANCH  31  32
ENDBRANCH  25  31
ENDBRANCH   3  30
TORSDOF 6
ENDMDL
