MODEL 1
REMARK VINA RESULT:     -12.0      0.000      0.000
REMARK  Name = 5326869
REMARK  6 active torsions:
REMARK  status: ('A' for Active; 'I' for Inactive)
REMARK    1  A    between atoms: N_2  and  C_11
REMARK    2  A    between atoms: C_3  and  C_25
REMARK    3  A    between atoms: N_5  and  C_14
REMARK    4  A    between atoms: C_14  and  C_15
REMARK    5  A    between atoms: C_15  and  C_17
REMARK    6  A    between atoms: C_23  and  N_30
REMARK                            x       y       z     vdW  Elec       q    Type
REMARK                         _______ _______ _______ _____ _____    ______ ____
ROOT
ATOM      1  O   UNL     1      31.571 -13.148 -21.715  0.00  0.00    -0.270 OA
ATOM      2  N   UNL     1      33.251 -12.635 -23.278  0.00  0.00    -0.280 N 
ATOM      3  C   UNL     1      32.326 -12.353 -22.264  0.00  0.00    +0.250 C 
ATOM      4  H   UNL     1      33.778 -11.871 -23.605  0.00  0.00    +0.155 HD
ENDROOT
BRANCH   2  11
ATOM      5  N   UNL     1      35.000 -17.233 -23.319  0.00  0.00    -0.286 N 
ATOM      6  C   UNL     1      34.399 -16.087 -23.788  0.00  0.00    +0.053 C 
ATOM      7  C   UNL     1      34.033 -16.327 -25.113  0.00  0.00    +0.015 C 
ATOM      8  C   UNL     1      35.026 -18.187 -24.302  0.00  0.00    +0.065 C 
ATOM      9  C   UNL     1      34.154 -14.867 -23.145  0.00  0.00    +0.029 C 
ATOM     10  C   UNL     1      34.434 -17.656 -25.424  0.00  0.00    +0.017 C 
ATOM     11  C   UNL     1      33.515 -13.865 -23.881  0.00  0.00    +0.052 C 
ATOM     12  C   UNL     1      33.389 -15.301 -25.835  0.00  0.00    +0.003 C 
ATOM     13  C   UNL     1      33.138 -14.077 -25.206  0.00  0.00    +0.015 C 
BRANCH   5  14
ATOM     14  C   UNL     1      35.532 -17.420 -21.987  0.00  0.00    +0.100 C 
BRANCH  14  15
ATOM     15  C   UNL     1      36.377 -18.689 -21.838  0.00  0.00    +0.048 C 
BRANCH  15  17
ATOM     16  N   UNL     1      34.435 -21.777 -19.590  0.00  0.00    -0.242 NA
ATOM     17  C   UNL     1      35.693 -19.775 -21.046  0.00  0.00    -0.017 C 
ATOM     18  C   UNL     1      34.319 -19.904 -21.112  0.00  0.00    +0.016 C 
ATOM     19  C   UNL     1      36.451 -20.629 -20.266  0.00  0.00    +0.016 C 
ATOM     20  C   UNL     1      33.739 -20.918 -20.367  0.00  0.00    +0.099 C 
ATOM     21  C   UNL     1      35.776 -21.610 -19.559  0.00  0.00    +0.099 C 
ENDBRANCH  15  17
ENDBRANCH  14  15
ENDBRANCH   5  14
ENDBRANCH   2  11
BRANCH   3  25
ATOM     22  F   UNL     1      31.376  -8.984 -18.928  0.00  0.00    -0.204 F 
ATOM     23  C   UNL     1      32.542  -8.614 -22.354  0.00  0.00    +0.050 C 
ATOM     24  C   UNL     1      32.607  -9.950 -22.749  0.00  0.00    +0.019 C 
ATOM     25  C   UNL     1      32.254 -10.929 -21.845  0.00  0.00    +0.057 C 
ATOM     26  C   UNL     1      32.126  -8.288 -21.065  0.00  0.00    +0.044 C 
ATOM     27  C   UNL     1      31.840 -10.633 -20.563  0.00  0.00    +0.034 C 
ATOM     28  C   UNL     1      31.774  -9.297 -20.168  0.00  0.00    +0.142 C 
BRANCH  23  30
ATOM     29  O   UNL     1      33.517  -5.736 -25.261  0.00  0.00    -0.350 OA
ATOM     30  N   UNL     1      32.894  -7.602 -23.253  0.00  0.00    -0.303 N 
ATOM     31  C   UNL     1      34.207  -7.627 -23.907  0.00  0.00    +0.123 C 
ATOM     32  C   UNL     1      31.823  -6.955 -24.025  0.00  0.00    +0.123 C 
ATOM     33  C   UNL     1      34.555  -6.233 -24.418  0.00  0.00    +0.164 C 
ATOM     34  C   UNL     1      32.298  -5.598 -24.529  0.00  0.00    +0.164 C 
ENDBRANCH  23  30
ENDBRANCH   3  25
TORSDOF 6
ENDMDL
MODEL 2
REMARK VINA RESULT:     -11.5      4.619      9.065
REMARK  Name = 5326869
REMARK  6 active torsions:
REMARK  status: ('A' for Active; 'I' for Inactive)
REMARK    1  A    between atoms: N_2  and  C_11
REMARK    2  A    between atoms: C_3  and  C_25
REMARK    3  A    between atoms: N_5  and  C_14
REMARK    4  A    between atoms: C_14  and  C_15
REMARK    5  A    between atoms: C_15  and  C_17
REMARK    6  A    between atoms: C_23  and  N_30
REMARK                            x       y       z     vdW  Elec       q    Type
REMARK                         _______ _______ _______ _____ _____    ______ ____
ROOT
ATOM      1  O   UNL     1      36.323 -18.671 -20.788  0.00  0.00    -0.270 OA
ATOM      2  N   UNL     1      35.008 -20.611 -20.978  0.00  0.00    -0.280 N 
ATOM      3  C   UNL     1      35.539 -19.385 -21.403  0.00  0.00    +0.250 C 
ATOM      4  H   UNL     1      34.388 -21.052 -21.603  0.00  0.00    +0.155 HD
ENDROOT
BRANCH   2  11
ATOM      5  N   UNL     1      33.635 -23.195 -17.023  0.00  0.00    -0.286 N 
ATOM      6  C   UNL     1      34.471 -22.535 -17.896  0.00  0.00    +0.053 C 
ATOM      7  C   UNL     1      35.763 -22.627 -17.377  0.00  0.00    +0.015 C 
ATOM      8  C   UNL     1      34.354 -23.700 -15.973  0.00  0.00    +0.065 C 
ATOM      9  C   UNL     1      34.183 -21.870 -19.094  0.00  0.00    +0.029 C 
ATOM     10  C   UNL     1      35.675 -23.365 -16.164  0.00  0.00    +0.017 C 
ATOM     11  C   UNL     1      35.250 -21.283 -19.779  0.00  0.00    +0.052 C 
ATOM     12  C   UNL     1      36.823 -22.028 -18.086  0.00  0.00    +0.003 C 
ATOM     13  C   UNL     1      36.551 -21.359 -19.285  0.00  0.00    +0.015 C 
BRANCH   5  14
ATOM     14  C   UNL     1      32.204 -23.344 -17.179  0.00  0.00    +0.100 C 
BRANCH  14  15
ATOM     15  C   UNL     1      31.458 -23.493 -15.850  0.00  0.00    +0.048 C 
BRANCH  15  17
ATOM     16  N   UNL     1      27.219 -22.971 -16.208  0.00  0.00    -0.242 NA
ATOM     17  C   UNL     1      29.966 -23.308 -15.976  0.00  0.00    -0.017 C 
ATOM     18  C   UNL     1      29.317 -23.766 -17.107  0.00  0.00    +0.016 C 
ATOM     19  C   UNL     1      29.268 -22.686 -14.958  0.00  0.00    +0.016 C 
ATOM     20  C   UNL     1      27.947 -23.573 -17.176  0.00  0.00    +0.099 C 
ATOM     21  C   UNL     1      27.900 -22.542 -15.123  0.00  0.00    +0.099 C 
ENDBRANCH  15  17
ENDBRANCH  14  15
ENDBRANCH   5  14
ENDBRANCH   2  11
BRANCH   3  25
ATOM     22  F   UNL     1      34.342 -20.252 -26.007  0.00  0.00    -0.204 F 
ATOM     23  C   UNL     1      34.329 -17.130 -24.139  0.00  0.00    +0.050 C 
ATOM     24  C   UNL     1      34.775 -17.574 -22.894  0.00  0.00    +0.019 C 
ATOM     25  C   UNL     1      35.066 -18.911 -22.729  0.00  0.00    +0.057 C 
ATOM     26  C   UNL     1      34.183 -18.034 -25.190  0.00  0.00    +0.044 C 
ATOM     27  C   UNL     1      34.929 -19.826 -23.753  0.00  0.00    +0.034 C 
ATOM     28  C   UNL     1      34.483 -19.383 -24.998  0.00  0.00    +0.142 C 
BRANCH  23  30
ATOM     29  O   UNL     1      33.667 -13.039 -24.849  0.00  0.00    -0.350 OA
ATOM     30  N   UNL     1      34.027 -15.778 -24.333  0.00  0.00    -0.303 N 
ATOM     31  C   UNL     1      34.532 -14.773 -23.390  0.00  0.00    +0.123 C 
ATOM     32  C   UNL     1      33.829 -15.302 -25.708  0.00  0.00    +0.123 C 
ATOM     33  C   UNL     1      33.700 -13.500 -23.499  0.00  0.00    +0.164 C 
ATOM     34  C   UNL     1      33.034 -14.001 -25.694  0.00  0.00    +0.164 C 
ENDBRANCH  23  30
ENDBRANCH   3  25
TORSDOF 6
ENDMDL
MODEL 3
REMARK VINA RESULT:     -11.4      4.562      8.833
REMARK  Name = 5326869
REMARK  6 active torsions:
REMARK  status: ('A' for Active; 'I' for Inactive)
REMARK    1  A    between atoms: N_2  and  C_11
REMARK    2  A    between atoms: C_3  and  C_25
REMARK    3  A    between atoms: N_5  and  C_14
REMARK    4  A    between atoms: C_14  and  C_15
REMARK    5  A    between atoms: C_15  and  C_17
REMARK    6  A    between atoms: C_23  and  N_30
REMARK                            x       y       z     vdW  Elec       q    Type
REMARK                         _______ _______ _______ _____ _____    ______ ____
ROOT
ATOM      1  O   UNL     1      36.095 -18.300 -20.900  0.00  0.00    -0.270 OA
ATOM      2  N   UNL     1      35.079 -20.395 -21.221  0.00  0.00    -0.280 N 
ATOM      3  C   UNL     1      35.451 -19.093 -21.578  0.00  0.00    +0.250 C 
ATOM      4  H   UNL     1      34.559 -20.895 -21.892  0.00  0.00    +0.155 HD
ENDROOT
BRANCH   2  11
ATOM      5  N   UNL     1      33.876 -23.263 -17.408  0.00  0.00    -0.286 N 
ATOM      6  C   UNL     1      34.658 -22.474 -18.222  0.00  0.00    +0.053 C 
ATOM      7  C   UNL     1      35.928 -22.421 -17.645  0.00  0.00    +0.015 C 
ATOM      8  C   UNL     1      34.608 -23.708 -16.340  0.00  0.00    +0.065 C 
ATOM      9  C   UNL     1      34.340 -21.810 -19.413  0.00  0.00    +0.029 C 
ATOM     10  C   UNL     1      35.882 -23.204 -16.459  0.00  0.00    +0.017 C 
ATOM     11  C   UNL     1      35.353 -21.071 -20.031  0.00  0.00    +0.052 C 
ATOM     12  C   UNL     1      36.933 -21.669 -18.288  0.00  0.00    +0.003 C 
ATOM     13  C   UNL     1      36.630 -21.001 -19.479  0.00  0.00    +0.015 C 
BRANCH   5  14
ATOM     14  C   UNL     1      32.484 -23.585 -17.634  0.00  0.00    +0.100 C 
BRANCH  14  15
ATOM     15  C   UNL     1      31.524 -22.829 -16.711  0.00  0.00    +0.048 C 
BRANCH  15  17
ATOM     16  N   UNL     1      30.840 -24.816 -12.976  0.00  0.00    -0.242 NA
ATOM     17  C   UNL     1      31.282 -23.527 -15.396  0.00  0.00    -0.017 C 
ATOM     18  C   UNL     1      30.559 -24.705 -15.374  0.00  0.00    +0.016 C 
ATOM     19  C   UNL     1      31.789 -22.982 -14.232  0.00  0.00    +0.016 C 
ATOM     20  C   UNL     1      30.365 -25.308 -14.142  0.00  0.00    +0.099 C 
ATOM     21  C   UNL     1      31.541 -23.662 -13.051  0.00  0.00    +0.099 C 
ENDBRANCH  15  17
ENDBRANCH  14  15
ENDBRANCH   5  14
ENDBRANCH   2  11
BRANCH   3  25
ATOM     22  F   UNL     1      34.224 -20.041 -26.158  0.00  0.00    -0.204 F 
ATOM     23  C   UNL     1      34.278 -16.877 -24.363  0.00  0.00    +0.050 C 
ATOM     24  C   UNL     1      34.719 -17.301 -23.109  0.00  0.00    +0.019 C 
ATOM     25  C   UNL     1      34.984 -18.640 -22.914  0.00  0.00    +0.057 C 
ATOM     26  C   UNL     1      34.111 -17.803 -25.392  0.00  0.00    +0.044 C 
ATOM     27  C   UNL     1      34.826 -19.576 -23.916  0.00  0.00    +0.034 C 
ATOM     28  C   UNL     1      34.385 -19.152 -25.170  0.00  0.00    +0.142 C 
BRANCH  23  30
ATOM     29  O   UNL     1      33.209 -12.848 -24.910  0.00  0.00    -0.350 OA
ATOM     30  N   UNL     1      34.004 -15.525 -24.587  0.00  0.00    -0.303 N 
ATOM     31  C   UNL     1      33.218 -15.121 -25.759  0.00  0.00    +0.123 C 
ATOM     32  C   UNL     1      33.889 -14.638 -23.421  0.00  0.00    +0.123 C 
ATOM     33  C   UNL     1      33.467 -13.648 -26.064  0.00  0.00    +0.164 C 
ATOM     34  C   UNL     1      34.102 -13.191 -23.851  0.00  0.00    +0.164 C 
ENDBRANCH  23  30
ENDBRANCH   3  25
TORSDOF 6
ENDMDL
MODEL 4
REMARK VINA RESULT:     -11.0      4.910     12.030
REMARK  Name = 5326869
REMARK  6 active torsions:
REMARK  status: ('A' for Active; 'I' for Inactive)
REMARK    1  A    between atoms: N_2  and  C_11
REMARK    2  A    between atoms: C_3  and  C_25
REMARK    3  A    between atoms: N_5  and  C_14
REMARK    4  A    between atoms: C_14  and  C_15
REMARK    5  A    between atoms: C_15  and  C_17
REMARK    6  A    between atoms: C_23  and  N_30
REMARK                            x       y       z     vdW  Elec       q    Type
REMARK                         _______ _______ _______ _____ _____    ______ ____
ROOT
ATOM      1  O   UNL     1      32.792 -21.473 -20.355  0.00  0.00    -0.270 OA
ATOM      2  N   UNL     1      34.941 -20.520 -20.326  0.00  0.00    -0.280 N 
ATOM      3  C   UNL     1      33.902 -21.333 -19.854  0.00  0.00    +0.250 C 
ATOM      4  H   UNL     1      35.770 -20.528 -19.795  0.00  0.00    +0.155 HD
ENDROOT
BRANCH   2  11
ATOM      5  N   UNL     1      34.951 -16.156 -22.598  0.00  0.00    -0.286 N 
ATOM      6  C   UNL     1      34.950 -17.525 -22.453  0.00  0.00    +0.053 C 
ATOM      7  C   UNL     1      34.955 -18.075 -23.736  0.00  0.00    +0.015 C 
ATOM      8  C   UNL     1      34.956 -15.823 -23.926  0.00  0.00    +0.065 C 
ATOM      9  C   UNL     1      34.944 -18.311 -21.294  0.00  0.00    +0.029 C 
ATOM     10  C   UNL     1      34.959 -16.989 -24.656  0.00  0.00    +0.017 C 
ATOM     11  C   UNL     1      34.945 -19.699 -21.455  0.00  0.00    +0.052 C 
ATOM     12  C   UNL     1      34.956 -19.478 -23.873  0.00  0.00    +0.003 C 
ATOM     13  C   UNL     1      34.950 -20.276 -22.723  0.00  0.00    +0.015 C 
BRANCH   5  14
ATOM     14  C   UNL     1      34.947 -15.195 -21.516  0.00  0.00    +0.100 C 
BRANCH  14  15
ATOM     15  C   UNL     1      33.545 -14.865 -20.996  0.00  0.00    +0.048 C 
BRANCH  15  17
ATOM     16  N   UNL     1      32.033 -11.121 -22.432  0.00  0.00    -0.242 NA
ATOM     17  C   UNL     1      33.013 -13.547 -21.501  0.00  0.00    -0.017 C 
ATOM     18  C   UNL     1      33.503 -13.023 -22.682  0.00  0.00    +0.016 C 
ATOM     19  C   UNL     1      32.042 -12.882 -20.776  0.00  0.00    +0.016 C 
ATOM     20  C   UNL     1      32.982 -11.810 -23.104  0.00  0.00    +0.099 C 
ATOM     21  C   UNL     1      31.587 -11.676 -21.283  0.00  0.00    +0.099 C 
ENDBRANCH  15  17
ENDBRANCH  14  15
ENDBRANCH   5  14
ENDBRANCH   2  11
BRANCH   3  25
ATOM     22  F   UNL     1      37.043 -23.034 -16.595  0.00  0.00    -0.204 F 
ATOM     23  C   UNL     1      33.417 -23.300 -16.702  0.00  0.00    +0.050 C 
ATOM     24  C   UNL     1      33.143 -22.606 -17.881  0.00  0.00    +0.019 C 
ATOM     25  C   UNL     1      34.193 -22.074 -18.599  0.00  0.00    +0.057 C 
ATOM     26  C   UNL     1      34.733 -23.444 -16.268  0.00  0.00    +0.044 C 
ATOM     27  C   UNL     1      35.505 -22.203 -18.191  0.00  0.00    +0.034 C 
ATOM     28  C   UNL     1      35.778 -22.896 -17.012  0.00  0.00    +0.142 C 
BRANCH  23  30
ATOM     29  O   UNL     1      30.221 -24.700 -14.354  0.00  0.00    -0.350 OA
ATOM     30  N   UNL     1      32.370 -23.849 -15.955  0.00  0.00    -0.303 N 
ATOM     31  C   UNL     1      32.598 -24.260 -14.565  0.00  0.00    +0.123 C 
ATOM     32  C   UNL     1      30.998 -23.421 -16.263  0.00  0.00    +0.123 C 
ATOM     33  C   UNL     1      31.520 -25.250 -14.137  0.00  0.00    +0.164 C 
ATOM     34  C   UNL     1      30.006 -24.455 -15.744  0.00  0.00    +0.164 C 
ENDBRANCH  23  30
ENDBRANCH   3  25
TORSDOF 6
ENDMDL
MODEL 5
REMARK VINA RESULT:     -10.8      6.306     10.660
REMARK  Name = 5326869
REMARK  6 active torsions:
REMARK  status: ('A' for Active; 'I' for Inactive)
REMARK    1  A    between atoms: N_2  and  C_11
REMARK    2  A    between atoms: C_3  and  C_25
REMARK    3  A    between atoms: N_5  and  C_14
REMARK    4  A    between atoms: C_14  and  C_15
REMARK    5  A    between atoms: C_15  and  C_17
REMARK    6  A    between atoms: C_23  and  N_30
REMARK                            x       y       z     vdW  Elec       q    Type
REMARK                         _______ _______ _______ _____ _____    ______ ____
ROOT
ATOM      1  O   UNL     1      33.149 -21.216 -20.211  0.00  0.00    -0.270 OA
ATOM      2  N   UNL     1      35.093 -21.529 -18.926  0.00  0.00    -0.280 N 
ATOM      3  C   UNL     1      34.339 -21.020 -19.992  0.00  0.00    +0.250 C 
ATOM      4  H   UNL     1      36.042 -21.268 -18.905  0.00  0.00    +0.155 HD
ENDROOT
BRANCH   2  11
ATOM      5  N   UNL     1      35.587 -23.730 -14.554  0.00  0.00    -0.286 N 
ATOM      6  C   UNL     1      35.009 -23.376 -15.752  0.00  0.00    +0.053 C 
ATOM      7  C   UNL     1      33.777 -24.029 -15.823  0.00  0.00    +0.015 C 
ATOM      8  C   UNL     1      34.764 -24.582 -13.867  0.00  0.00    +0.065 C 
ATOM      9  C   UNL     1      35.479 -22.536 -16.769  0.00  0.00    +0.029 C 
ATOM     10  C   UNL     1      33.636 -24.786 -14.627  0.00  0.00    +0.017 C 
ATOM     11  C   UNL     1      34.663 -22.359 -17.890  0.00  0.00    +0.052 C 
ATOM     12  C   UNL     1      32.972 -23.835 -16.964  0.00  0.00    +0.003 C 
ATOM     13  C   UNL     1      33.429 -22.998 -17.988  0.00  0.00    +0.015 C 
BRANCH   5  14
ATOM     14  C   UNL     1      36.874 -23.276 -14.074  0.00  0.00    +0.100 C 
BRANCH  14  15
ATOM     15  C   UNL     1      37.595 -24.302 -13.194  0.00  0.00    +0.048 C 
BRANCH  15  17
ATOM     16  N   UNL     1      40.833 -26.278 -15.187  0.00  0.00    -0.242 NA
ATOM     17  C   UNL     1      38.735 -24.997 -13.895  0.00  0.00    -0.017 C 
ATOM     18  C   UNL     1      39.436 -25.990 -13.237  0.00  0.00    +0.016 C 
ATOM     19  C   UNL     1      39.063 -24.632 -15.188  0.00  0.00    +0.016 C 
ATOM     20  C   UNL     1      40.474 -26.598 -13.924  0.00  0.00    +0.099 C 
ATOM     21  C   UNL     1      40.118 -25.301 -15.787  0.00  0.00    +0.099 C 
ENDBRANCH  15  17
ENDBRANCH  14  15
ENDBRANCH   5  14
ENDBRANCH   2  11
BRANCH   3  25
ATOM     22  F   UNL     1      38.465 -19.003 -21.506  0.00  0.00    -0.204 F 
ATOM     23  C   UNL     1      35.121 -18.828 -22.929  0.00  0.00    +0.050 C 
ATOM     24  C   UNL     1      34.414 -19.616 -22.021  0.00  0.00    +0.019 C 
ATOM     25  C   UNL     1      35.091 -20.179 -20.959  0.00  0.00    +0.057 C 
ATOM     26  C   UNL     1      36.489 -18.621 -22.755  0.00  0.00    +0.044 C 
ATOM     27  C   UNL     1      36.444 -19.989 -20.764  0.00  0.00    +0.034 C 
ATOM     28  C   UNL     1      37.151 -19.201 -21.673  0.00  0.00    +0.142 C 
BRANCH  23  30
ATOM     29  O   UNL     1      33.335 -17.164 -26.353  0.00  0.00    -0.350 OA
ATOM     30  N   UNL     1      34.458 -18.247 -24.014  0.00  0.00    -0.303 N 
ATOM     31  C   UNL     1      34.812 -16.890 -24.447  0.00  0.00    +0.123 C 
ATOM     32  C   UNL     1      33.955 -19.130 -25.074  0.00  0.00    +0.123 C 
ATOM     33  C   UNL     1      33.673 -16.298 -25.270  0.00  0.00    +0.164 C 
ATOM     34  C   UNL     1      32.862 -18.419 -25.863  0.00  0.00    +0.164 C 
ENDBRANCH  23  30
ENDBRANCH   3  25
TORSDOF 6
ENDMDL
MODEL 6
REMARK VINA RESULT:     -10.7      2.201      3.122
REMARK  Name = 5326869
REMARK  6 active torsions:
REMARK  status: ('A' for Active; 'I' for Inactive)
REMARK    1  A    between atoms: N_2  and  C_11
REMARK    2  A    between atoms: C_3  and  C_25
REMARK    3  A    between atoms: N_5  and  C_14
REMARK    4  A    between atoms: C_14  and  C_15
REMARK    5  A    between atoms: C_15  and  C_17
REMARK    6  A    between atoms: C_23  and  N_30
REMARK                            x       y       z     vdW  Elec       q    Type
REMARK                         _______ _______ _______ _____ _____    ______ ____
ROOT
ATOM      1  O   UNL     1      32.535 -13.597 -23.020  0.00  0.00    -0.270 OA
ATOM      2  N   UNL     1      34.245 -14.080 -24.559  0.00  0.00    -0.280 N 
ATOM      3  C   UNL     1      33.438 -13.247 -23.771  0.00  0.00    +0.250 C 
ATOM      4  H   UNL     1      34.926 -13.627 -25.107  0.00  0.00    +0.155 HD
ENDROOT
BRANCH   2  11
ATOM      5  N   UNL     1      35.152 -18.643 -22.960  0.00  0.00    -0.286 N 
ATOM      6  C   UNL     1      34.694 -17.642 -23.787  0.00  0.00    +0.053 C 
ATOM      7  C   UNL     1      34.100 -18.260 -24.889  0.00  0.00    +0.015 C 
ATOM      8  C   UNL     1      34.868 -19.869 -23.500  0.00  0.00    +0.065 C 
ATOM      9  C   UNL     1      34.761 -16.251 -23.645  0.00  0.00    +0.029 C 
ATOM     10  C   UNL     1      34.216 -19.665 -24.694  0.00  0.00    +0.017 C 
ATOM     11  C   UNL     1      34.202 -15.471 -24.661  0.00  0.00    +0.052 C 
ATOM     12  C   UNL     1      33.542 -17.452 -25.901  0.00  0.00    +0.003 C 
ATOM     13  C   UNL     1      33.602 -16.060 -25.772  0.00  0.00    +0.015 C 
BRANCH   5  14
ATOM     14  C   UNL     1      35.835 -18.446 -21.699  0.00  0.00    +0.100 C 
BRANCH  14  15
ATOM     15  C   UNL     1      36.328 -19.748 -21.062  0.00  0.00    +0.048 C 
BRANCH  15  17
ATOM     16  N   UNL     1      33.178 -22.126 -19.392  0.00  0.00    -0.242 NA
ATOM     17  C   UNL     1      35.219 -20.586 -20.475  0.00  0.00    -0.017 C 
ATOM     18  C   UNL     1      35.534 -21.682 -19.694  0.00  0.00    +0.016 C 
ATOM     19  C   UNL     1      33.903 -20.244 -20.724  0.00  0.00    +0.016 C 
ATOM     20  C   UNL     1      34.480 -22.418 -19.178  0.00  0.00    +0.099 C 
ATOM     21  C   UNL     1      32.922 -21.044 -20.162  0.00  0.00    +0.099 C 
ENDBRANCH  15  17
ENDBRANCH  14  15
ENDBRANCH   5  14
ENDBRANCH   2  11
BRANCH   3  25
ATOM     22  F   UNL     1      35.538  -9.534 -26.048  0.00  0.00    -0.204 F 
ATOM     23  C   UNL     1      33.402  -9.561 -23.103  0.00  0.00    +0.050 C 
ATOM     24  C   UNL     1      33.149 -10.927 -22.982  0.00  0.00    +0.019 C 
ATOM     25  C   UNL     1      33.709 -11.792 -23.898  0.00  0.00    +0.057 C 
ATOM     26  C   UNL     1      34.209  -9.091 -24.138  0.00  0.00    +0.044 C 
ATOM     27  C   UNL     1      34.510 -11.352 -24.932  0.00  0.00    +0.034 C 
ATOM     28  C   UNL     1      34.764  -9.986 -25.053  0.00  0.00    +0.142 C 
BRANCH  23  30
ATOM     29  O   UNL     1      31.481  -6.949 -20.425  0.00  0.00    -0.350 OA
ATOM     30  N   UNL     1      32.846  -8.663 -22.186  0.00  0.00    -0.303 N 
ATOM     31  C   UNL     1      32.408  -7.336 -22.633  0.00  0.00    +0.123 C 
ATOM     32  C   UNL     1      32.110  -9.211 -21.038  0.00  0.00    +0.123 C 
ATOM     33  C   UNL     1      32.318  -6.393 -21.439  0.00  0.00    +0.164 C 
ATOM     34  C   UNL     1      32.035  -8.168 -19.929  0.00  0.00    +0.164 C 
ENDBRANCH  23  30
ENDBRANCH   3  25
TORSDOF 6
ENDMDL
MODEL 7
REMARK VINA RESULT:     -10.6      6.191     10.578
REMARK  Name = 5326869
REMARK  6 active torsions:
REMARK  status: ('A' for Active; 'I' for Inactive)
REMARK    1  A    between atoms: N_2  and  C_11
REMARK    2  A    between atoms: C_3  and  C_25
REMARK    3  A    between atoms: N_5  and  C_14
REMARK    4  A    between atoms: C_14  and  C_15
REMARK    5  A    between atoms: C_15  and  C_17
REMARK    6  A    between atoms: C_23  and  N_30
REMARK                            x       y       z     vdW  Elec       q    Type
REMARK                         _______ _______ _______ _____ _____    ______ ____
ROOT
ATOM      1  O   UNL     1      32.667 -20.942 -20.439  0.00  0.00    -0.270 OA
ATOM      2  N   UNL     1      34.555 -21.467 -19.141  0.00  0.00    -0.280 N 
ATOM      3  C   UNL     1      33.865 -20.855 -20.196  0.00  0.00    +0.250 C 
ATOM      4  H   UNL     1      35.523 -21.288 -19.097  0.00  0.00    +0.155 HD
ENDROOT
BRANCH   2  11
ATOM      5  N   UNL     1      34.971 -24.584 -15.357  0.00  0.00    -0.286 N 
ATOM      6  C   UNL     1      34.361 -23.805 -16.315  0.00  0.00    +0.053 C 
ATOM      7  C   UNL     1      32.983 -23.962 -16.156  0.00  0.00    +0.015 C 
ATOM      8  C   UNL     1      34.027 -25.226 -14.601  0.00  0.00    +0.065 C 
ATOM      9  C   UNL     1      34.920 -22.982 -17.300  0.00  0.00    +0.029 C 
ATOM     10  C   UNL     1      32.787 -24.861 -15.071  0.00  0.00    +0.017 C 
ATOM     11  C   UNL     1      34.041 -22.300 -18.147  0.00  0.00    +0.052 C 
ATOM     12  C   UNL     1      32.117 -23.263 -17.021  0.00  0.00    +0.003 C 
ATOM     13  C   UNL     1      32.661 -22.437 -18.011  0.00  0.00    +0.015 C 
BRANCH   5  14
ATOM     14  C   UNL     1      36.399 -24.715 -15.164  0.00  0.00    +0.100 C 
BRANCH  14  15
ATOM     15  C   UNL     1      36.775 -25.524 -13.918  0.00  0.00    +0.048 C 
BRANCH  15  17
ATOM     16  N   UNL     1      36.933 -23.164 -10.344  0.00  0.00    -0.242 NA
ATOM     17  C   UNL     1      36.831 -24.694 -12.660  0.00  0.00    -0.017 C 
ATOM     18  C   UNL     1      37.631 -23.567 -12.622  0.00  0.00    +0.016 C 
ATOM     19  C   UNL     1      36.080 -25.070 -11.562  0.00  0.00    +0.016 C 
ATOM     20  C   UNL     1      37.647 -22.839 -11.444  0.00  0.00    +0.099 C 
ATOM     21  C   UNL     1      36.166 -24.275 -10.431  0.00  0.00    +0.099 C 
ENDBRANCH  15  17
ENDBRANCH  14  15
ENDBRANCH   5  14
ENDBRANCH   2  11
BRANCH   3  25
ATOM     22  F   UNL     1      38.150 -19.030 -21.497  0.00  0.00    -0.204 F 
ATOM     23  C   UNL     1      34.887 -18.673 -23.065  0.00  0.00    +0.050 C 
ATOM     24  C   UNL     1      34.101 -19.435 -22.200  0.00  0.00    +0.019 C 
ATOM     25  C   UNL     1      34.701 -20.042 -21.117  0.00  0.00    +0.057 C 
ATOM     26  C   UNL     1      36.253 -18.536 -22.828  0.00  0.00    +0.044 C 
ATOM     27  C   UNL     1      36.051 -19.922 -20.860  0.00  0.00    +0.034 C 
ATOM     28  C   UNL     1      36.836 -19.160 -21.725  0.00  0.00    +0.142 C 
BRANCH  23  30
ATOM     29  O   UNL     1      33.336 -16.892 -26.545  0.00  0.00    -0.350 OA
ATOM     30  N   UNL     1      34.302 -18.047 -24.171  0.00  0.00    -0.303 N 
ATOM     31  C   UNL     1      34.775 -16.725 -24.598  0.00  0.00    +0.123 C 
ATOM     32  C   UNL     1      33.762 -18.894 -25.243  0.00  0.00    +0.123 C 
ATOM     33  C   UNL     1      33.710 -16.049 -25.455  0.00  0.00    +0.164 C 
ATOM     34  C   UNL     1      32.751 -18.103 -26.065  0.00  0.00    +0.164 C 
ENDBRANCH  23  30
ENDBRANCH   3  25
TORSDOF 6
ENDMDL
MODEL 8
REMARK VINA RESULT:     -10.6      3.007      5.943
REMARK  Name = 5326869
REMARK  6 active torsions:
REMARK  status: ('A' for Active; 'I' for Inactive)
REMARK    1  A    between atoms: N_2  and  C_11
REMARK    2  A    between atoms: C_3  and  C_25
REMARK    3  A    between atoms: N_5  and  C_14
REMARK    4  A    between atoms: C_14  and  C_15
REMARK    5  A    between atoms: C_15  and  C_17
REMARK    6  A    between atoms: C_23  and  N_30
REMARK                            x       y       z     vdW  Elec       q    Type
REMARK                         _______ _______ _______ _____ _____    ______ ____
ROOT
ATOM      1  O   UNL     1      34.668  -7.417 -22.916  0.00  0.00    -0.270 OA
ATOM      2  N   UNL     1      32.518  -8.126 -23.550  0.00  0.00    -0.280 N 
ATOM      3  C   UNL     1      33.629  -7.273 -23.551  0.00  0.00    +0.250 C 
ATOM      4  H   UNL     1      31.764  -7.854 -24.123  0.00  0.00    +0.155 HD
ENDROOT
BRANCH   2  11
ATOM      5  N   UNL     1      33.177 -12.943 -22.794  0.00  0.00    -0.286 N 
ATOM      6  C   UNL     1      32.733 -11.659 -22.569  0.00  0.00    +0.053 C 
ATOM      7  C   UNL     1      31.993 -11.683 -21.385  0.00  0.00    +0.015 C 
ATOM      8  C   UNL     1      32.745 -13.774 -21.796  0.00  0.00    +0.065 C 
ATOM      9  C   UNL     1      32.927 -10.492 -23.317  0.00  0.00    +0.029 C 
ATOM     10  C   UNL     1      32.010 -13.023 -20.908  0.00  0.00    +0.017 C 
ATOM     11  C   UNL     1      32.347  -9.313 -22.836  0.00  0.00    +0.052 C 
ATOM     12  C   UNL     1      31.419 -10.482 -20.921  0.00  0.00    +0.003 C 
ATOM     13  C   UNL     1      31.605  -9.307 -21.658  0.00  0.00    +0.015 C 
BRANCH   5  14
ATOM     14  C   UNL     1      33.985 -13.368 -23.917  0.00  0.00    +0.100 C 
BRANCH  14  15
ATOM     15  C   UNL     1      33.270 -14.356 -24.845  0.00  0.00    +0.048 C 
BRANCH  15  17
ATOM     16  N   UNL     1      34.743 -18.367 -24.520  0.00  0.00    -0.242 NA
ATOM     17  C   UNL     1      33.788 -15.768 -24.730  0.00  0.00    -0.017 C 
ATOM     18  C   UNL     1      33.384 -16.718 -25.649  0.00  0.00    +0.016 C 
ATOM     19  C   UNL     1      34.660 -16.092 -23.708  0.00  0.00    +0.016 C 
ATOM     20  C   UNL     1      33.888 -18.000 -25.501  0.00  0.00    +0.099 C 
ATOM     21  C   UNL     1      35.107 -17.402 -23.647  0.00  0.00    +0.099 C 
ENDBRANCH  15  17
ENDBRANCH  14  15
ENDBRANCH   5  14
ENDBRANCH   2  11
BRANCH   3  25
ATOM     22  F   UNL     1      31.493  -3.060 -24.584  0.00  0.00    -0.204 F 
ATOM     23  C   UNL     1      34.225  -4.768 -26.273  0.00  0.00    +0.050 C 
ATOM     24  C   UNL     1      34.346  -5.907 -25.478  0.00  0.00    +0.019 C 
ATOM     25  C   UNL     1      33.500  -6.060 -24.400  0.00  0.00    +0.057 C 
ATOM     26  C   UNL     1      33.262  -3.806 -25.971  0.00  0.00    +0.044 C 
ATOM     27  C   UNL     1      32.538  -5.123 -24.080  0.00  0.00    +0.034 C 
ATOM     28  C   UNL     1      32.417  -3.984 -24.874  0.00  0.00    +0.142 C 
BRANCH  23  30
ATOM     29  O   UNL     1      36.842  -3.988 -29.470  0.00  0.00    -0.350 OA
ATOM     30  N   UNL     1      35.071  -4.589 -27.372  0.00  0.00    -0.303 N 
ATOM     31  C   UNL     1      34.611  -3.817 -28.532  0.00  0.00    +0.123 C 
ATOM     32  C   UNL     1      36.520  -4.558 -27.134  0.00  0.00    +0.123 C 
ATOM     33  C   UNL     1      35.455  -4.169 -29.753  0.00  0.00    +0.164 C 
ATOM     34  C   UNL     1      37.262  -4.870 -28.429  0.00  0.00    +0.164 C 
ENDBRANCH  23  30
ENDBRANCH   3  25
TORSDOF 6
ENDMDL
MODEL 9
REMARK VINA RESULT:     -10.5      6.557     10.649
REMARK  Name = 5326869
REMARK  6 active torsions:
REMARK  status: ('A' for Active; 'I' for Inactive)
REMARK    1  A    between atoms: N_2  and  C_11
REMARK    2  A    between atoms: C_3  and  C_25
REMARK    3  A    between atoms: N_5  and  C_14
REMARK    4  A    between atoms: C_14  and  C_15
REMARK    5  A    between atoms: C_15  and  C_17
REMARK    6  A    between atoms: C_23  and  N_30
REMARK                            x       y       z     vdW  Elec       q    Type
REMARK                         _______ _______ _______ _____ _____    ______ ____
ROOT
ATOM      1  O   UNL     1      34.168 -21.414 -19.917  0.00  0.00    -0.270 OA
ATOM      2  N   UNL     1      36.248 -21.303 -18.826  0.00  0.00    -0.280 N 
ATOM      3  C   UNL     1      35.322 -21.008 -19.836  0.00  0.00    +0.250 C 
ATOM      4  H   UNL     1      37.135 -20.887 -18.920  0.00  0.00    +0.155 HD
ENDROOT
BRANCH   2  11
ATOM      5  N   UNL     1      33.522 -23.950 -15.701  0.00  0.00    -0.286 N 
ATOM      6  C   UNL     1      34.645 -23.372 -16.249  0.00  0.00    +0.053 C 
ATOM      7  C   UNL     1      35.729 -23.738 -15.449  0.00  0.00    +0.015 C 
ATOM      8  C   UNL     1      33.859 -24.667 -14.584  0.00  0.00    +0.065 C 
ATOM      9  C   UNL     1      34.782 -22.561 -17.382  0.00  0.00    +0.029 C 
ATOM     10  C   UNL     1      35.218 -24.555 -14.402  0.00  0.00    +0.017 C 
ATOM     11  C   UNL     1      36.066 -22.112 -17.704  0.00  0.00    +0.052 C 
ATOM     12  C   UNL     1      37.014 -23.274 -15.794  0.00  0.00    +0.003 C 
ATOM     13  C   UNL     1      37.166 -22.462 -16.924  0.00  0.00    +0.015 C 
BRANCH   5  14
ATOM     14  C   UNL     1      32.176 -23.828 -16.217  0.00  0.00    +0.100 C 
BRANCH  14  15
ATOM     15  C   UNL     1      31.156 -23.383 -15.164  0.00  0.00    +0.048 C 
BRANCH  15  17
ATOM     16  N   UNL     1      27.151 -23.148 -16.670  0.00  0.00    -0.242 NA
ATOM     17  C   UNL     1      29.746 -23.301 -15.694  0.00  0.00    -0.017 C 
ATOM     18  C   UNL     1      28.824 -22.496 -15.052  0.00  0.00    +0.016 C 
ATOM     19  C   UNL     1      29.396 -24.031 -16.814  0.00  0.00    +0.016 C 
ATOM     20  C   UNL     1      27.542 -22.454 -15.578  0.00  0.00    +0.099 C 
ATOM     21  C   UNL     1      28.089 -23.920 -17.261  0.00  0.00    +0.099 C 
ENDBRANCH  15  17
ENDBRANCH  14  15
ENDBRANCH   5  14
ENDBRANCH   2  11
BRANCH   3  25
ATOM     22  F   UNL     1      38.898 -18.514 -21.928  0.00  0.00    -0.204 F 
ATOM     23  C   UNL     1      35.427 -18.914 -22.941  0.00  0.00    +0.050 C 
ATOM     24  C   UNL     1      34.954 -19.738 -21.919  0.00  0.00    +0.019 C 
ATOM     25  C   UNL     1      35.824 -20.129 -20.923  0.00  0.00    +0.057 C 
ATOM     26  C   UNL     1      36.758 -18.501 -22.944  0.00  0.00    +0.044 C 
ATOM     27  C   UNL     1      37.146 -19.734 -20.903  0.00  0.00    +0.034 C 
ATOM     28  C   UNL     1      37.618 -18.910 -21.925  0.00  0.00    +0.142 C 
BRANCH  23  30
ATOM     29  O   UNL     1      33.032 -17.746 -26.195  0.00  0.00    -0.350 OA
ATOM     30  N   UNL     1      34.564 -18.503 -23.963  0.00  0.00    -0.303 N 
ATOM     31  C   UNL     1      34.670 -17.145 -24.509  0.00  0.00    +0.123 C 
ATOM     32  C   UNL     1      34.069 -19.518 -24.903  0.00  0.00    +0.123 C 
ATOM     33  C   UNL     1      33.370 -16.769 -25.210  0.00  0.00    +0.164 C 
ATOM     34  C   UNL     1      32.801 -19.016 -25.583  0.00  0.00    +0.164 C 
ENDBRANCH  23  30
ENDBRANCH   3  25
TORSDOF 6
ENDMDL
