MODEL 1
REMARK VINA RESULT:     -11.3      0.000      0.000
REMARK  Name = 60195662
REMARK  7 active torsions:
REMARK  status: ('A' for Active; 'I' for Inactive)
REMARK    1  A    between atoms: N_2  and  C_14
REMARK    2  A    between atoms: N_2  and  C_23
REMARK    3  A    between atoms: C_3  and  C_5
REMARK    4  A    between atoms: C_14  and  C_17
REMARK    5  A    between atoms: C_23  and  C_24
REMARK    6  A    between atoms: C_27  and  C_31
REMARK    7  A    between atoms: C_31  and  O_32
REMARK                            x       y       z     vdW  Elec       q    Type
REMARK                         _______ _______ _______ _____ _____    ______ ____
ROOT
ATOM      1  O   UNL     1      33.487 -24.124 -17.586  0.00  0.00    -0.270 OA
ATOM      2  N   UNL     1      34.920 -23.475 -15.857  0.00  0.00    -0.270 N 
ATOM      3  C   UNL     1      34.414 -23.415 -17.170  0.00  0.00    +0.251 C 
ENDROOT
BRANCH   3   5
ATOM      4  N   UNL     1      36.963 -21.302 -18.893  0.00  0.00    -0.248 NA
ATOM      5  C   UNL     1      35.009 -22.485 -18.113  0.00  0.00    +0.072 C 
ATOM      6  C   UNL     1      34.252 -21.890 -19.112  0.00  0.00    +0.003 C 
ATOM      7  C   UNL     1      34.850 -20.996 -20.010  0.00  0.00    -0.004 C 
ATOM      8  C   UNL     1      36.348 -22.159 -18.047  0.00  0.00    +0.103 C 
ATOM      9  C   UNL     1      36.226 -20.727 -19.862  0.00  0.00    +0.060 C 
ATOM     10  C   UNL     1      34.111 -20.377 -21.033  0.00  0.00    +0.053 C 
ATOM     11  C   UNL     1      36.819 -19.837 -20.754  0.00  0.00    +0.071 C 
ATOM     12  C   UNL     1      34.730 -19.492 -21.913  0.00  0.00    -0.026 C 
ATOM     13  C   UNL     1      36.086 -19.222 -21.772  0.00  0.00    -0.024 C 
ENDBRANCH   3   5
BRANCH   2  14
ATOM     14  C   UNL     1      34.382 -24.396 -14.857  0.00  0.00    +0.099 C 
ATOM     15  C   UNL     1      34.871 -25.816 -15.135  0.00  0.00    +0.026 C 
BRANCH  14  17
ATOM     16  F   UNL     1      28.758 -24.063 -14.554  0.00  0.00    -0.204 F 
ATOM     17  C   UNL     1      32.874 -24.307 -14.775  0.00  0.00    -0.004 C 
ATOM     18  C   UNL     1      32.114 -25.465 -14.612  0.00  0.00    -0.000 C 
ATOM     19  C   UNL     1      32.242 -23.065 -14.864  0.00  0.00    -0.000 C 
ATOM     20  C   UNL     1      30.724 -25.384 -14.537  0.00  0.00    +0.029 C 
ATOM     21  C   UNL     1      30.852 -22.984 -14.789  0.00  0.00    +0.029 C 
ATOM     22  C   UNL     1      30.093 -24.142 -14.626  0.00  0.00    +0.140 C 
ENDBRANCH  14  17
ENDBRANCH   2  14
BRANCH   2  23
ATOM     23  C   UNL     1      36.011 -22.624 -15.408  0.00  0.00    +0.121 C 
BRANCH  23  24
ATOM     24  C   UNL     1      36.930 -23.340 -14.459  0.00  0.00    -0.002 C 
ATOM     25  C   UNL     1      37.909 -24.201 -14.955  0.00  0.00    +0.004 C 
ATOM     26  C   UNL     1      36.805 -23.143 -13.084  0.00  0.00    -0.003 C 
ATOM     27  C   UNL     1      38.763 -24.866 -14.074  0.00  0.00    +0.075 C 
ATOM     28  C   UNL     1      37.659 -23.808 -12.204  0.00  0.00    -0.000 C 
ATOM     29  C   UNL     1      38.638 -24.669 -12.699  0.00  0.00    +0.006 C 
BRANCH  27  31
ATOM     30  O   UNL     1      39.613 -26.952 -14.880  0.00  0.00    -0.245 OA
ATOM     31  C   UNL     1      39.784 -25.763 -14.590  0.00  0.00    +0.338 C 
BRANCH  31  32
ATOM     32  O   UNL     1      40.992 -25.152 -14.733  0.00  0.00    -0.477 OA
ATOM     33  H   UNL     1      41.371 -25.056 -15.584  0.00  0.00    +0.295 HD
ENDBRANCH  31  32
ENDBRANCH  27  31
ENDBRANCH  23  24
ENDBRANCH   2  23
TORSDOF 7
ENDMDL
MODEL 2
REMARK VINA RESULT:     -11.2      2.890      6.493
REMARK  Name = 60195662
REMARK  7 active torsions:
REMARK  status: ('A' for Active; 'I' for Inactive)
REMARK    1  A    between atoms: N_2  and  C_14
REMARK    2  A    between atoms: N_2  and  C_23
REMARK    3  A    between atoms: C_3  and  C_5
REMARK    4  A    between atoms: C_14  and  C_17
REMARK    5  A    between atoms: C_23  and  C_24
REMARK    6  A    between atoms: C_27  and  C_31
REMARK    7  A    between atoms: C_31  and  O_32
REMARK                            x       y       z     vdW  Elec       q    Type
REMARK                         _______ _______ _______ _____ _____    ______ ____
ROOT
ATOM      1  O   UNL     1      35.645 -24.689 -16.247  0.00  0.00    -0.270 OA
ATOM      2  N   UNL     1      33.893 -23.859 -14.939  0.00  0.00    -0.270 N 
ATOM      3  C   UNL     1      34.652 -23.957 -16.122  0.00  0.00    +0.251 C 
ENDROOT
BRANCH   3   5
ATOM      4  N   UNL     1      32.541 -22.271 -18.698  0.00  0.00    -0.248 NA
ATOM      5  C   UNL     1      34.278 -23.150 -17.269  0.00  0.00    +0.072 C 
ATOM      6  C   UNL     1      35.234 -22.495 -18.032  0.00  0.00    +0.003 C 
ATOM      7  C   UNL     1      34.846 -21.722 -19.135  0.00  0.00    -0.004 C 
ATOM      8  C   UNL     1      32.957 -23.008 -17.642  0.00  0.00    +0.103 C 
ATOM      9  C   UNL     1      33.472 -21.637 -19.436  0.00  0.00    +0.060 C 
ATOM     10  C   UNL     1      35.790 -21.046 -19.927  0.00  0.00    +0.053 C 
ATOM     11  C   UNL     1      33.088 -20.869 -20.532  0.00  0.00    +0.071 C 
ATOM     12  C   UNL     1      35.379 -20.284 -21.018  0.00  0.00    -0.026 C 
ATOM     13  C   UNL     1      34.025 -20.196 -21.320  0.00  0.00    -0.024 C 
ENDBRANCH   3   5
BRANCH   2  14
ATOM     14  C   UNL     1      34.218 -24.628 -13.740  0.00  0.00    +0.099 C 
ATOM     15  C   UNL     1      33.541 -24.008 -12.519  0.00  0.00    +0.026 C 
BRANCH  14  17
ATOM     16  F   UNL     1      39.796 -25.167 -13.077  0.00  0.00    -0.204 F 
ATOM     17  C   UNL     1      35.714 -24.772 -13.563  0.00  0.00    -0.004 C 
ATOM     18  C   UNL     1      36.330 -26.001 -13.801  0.00  0.00    -0.000 C 
ATOM     19  C   UNL     1      36.478 -23.676 -13.160  0.00  0.00    -0.000 C 
ATOM     20  C   UNL     1      37.708 -26.135 -13.637  0.00  0.00    +0.029 C 
ATOM     21  C   UNL     1      37.857 -23.810 -12.996  0.00  0.00    +0.029 C 
ATOM     22  C   UNL     1      38.472 -25.039 -13.234  0.00  0.00    +0.140 C 
ENDBRANCH  14  17
ENDBRANCH   2  14
BRANCH   2  23
ATOM     23  C   UNL     1      32.734 -22.986 -14.834  0.00  0.00    +0.121 C 
BRANCH  23  24
ATOM     24  C   UNL     1      31.450 -23.722 -15.090  0.00  0.00    -0.002 C 
ATOM     25  C   UNL     1      30.447 -23.127 -15.855  0.00  0.00    +0.004 C 
ATOM     26  C   UNL     1      31.262 -25.000 -14.566  0.00  0.00    -0.003 C 
ATOM     27  C   UNL     1      29.254 -23.811 -16.095  0.00  0.00    +0.075 C 
ATOM     28  C   UNL     1      30.070 -25.684 -14.806  0.00  0.00    -0.000 C 
ATOM     29  C   UNL     1      29.066 -25.089 -15.570  0.00  0.00    +0.006 C 
BRANCH  27  31
ATOM     30  O   UNL     1      27.910 -21.993 -16.876  0.00  0.00    -0.245 OA
ATOM     31  C   UNL     1      28.209 -23.192 -16.893  0.00  0.00    +0.338 C 
BRANCH  31  32
ATOM     32  O   UNL     1      27.565 -24.085 -17.693  0.00  0.00    -0.477 OA
ATOM     33  H   UNL     1      27.270 -24.902 -17.340  0.00  0.00    +0.295 HD
ENDBRANCH  31  32
ENDBRANCH  27  31
ENDBRANCH  23  24
ENDBRANCH   2  23
TORSDOF 7
ENDMDL
MODEL 3
REMARK VINA RESULT:     -10.8      1.629      2.077
REMARK  Name = 60195662
REMARK  7 active torsions:
REMARK  status: ('A' for Active; 'I' for Inactive)
REMARK    1  A    between atoms: N_2  and  C_14
REMARK    2  A    between atoms: N_2  and  C_23
REMARK    3  A    between atoms: C_3  and  C_5
REMARK    4  A    between atoms: C_14  and  C_17
REMARK    5  A    between atoms: C_23  and  C_24
REMARK    6  A    between atoms: C_27  and  C_31
REMARK    7  A    between atoms: C_31  and  O_32
REMARK                            x       y       z     vdW  Elec       q    Type
REMARK                         _______ _______ _______ _____ _____    ______ ____
ROOT
ATOM      1  O   UNL     1      33.113 -23.950 -17.955  0.00  0.00    -0.270 OA
ATOM      2  N   UNL     1      34.433 -23.316 -16.132  0.00  0.00    -0.270 N 
ATOM      3  C   UNL     1      34.027 -23.260 -17.480  0.00  0.00    +0.251 C 
ENDROOT
BRANCH   3   5
ATOM      4  N   UNL     1      36.773 -21.314 -19.094  0.00  0.00    -0.248 NA
ATOM      5  C   UNL     1      34.715 -22.360 -18.387  0.00  0.00    +0.072 C 
ATOM      6  C   UNL     1      34.032 -21.689 -19.391  0.00  0.00    +0.003 C 
ATOM      7  C   UNL     1      34.719 -20.825 -20.255  0.00  0.00    -0.004 C 
ATOM      8  C   UNL     1      36.073 -22.139 -18.281  0.00  0.00    +0.103 C 
ATOM      9  C   UNL     1      36.107 -20.665 -20.067  0.00  0.00    +0.060 C 
ATOM     10  C   UNL     1      34.056 -20.132 -21.282  0.00  0.00    +0.053 C 
ATOM     11  C   UNL     1      36.789 -19.806 -20.925  0.00  0.00    +0.071 C 
ATOM     12  C   UNL     1      34.763 -19.279 -22.126  0.00  0.00    -0.026 C 
ATOM     13  C   UNL     1      36.131 -19.116 -21.947  0.00  0.00    -0.024 C 
ENDBRANCH   3   5
BRANCH   2  14
ATOM     14  C   UNL     1      33.799 -24.209 -15.164  0.00  0.00    +0.099 C 
ATOM     15  C   UNL     1      34.274 -25.644 -15.382  0.00  0.00    +0.026 C 
BRANCH  14  17
ATOM     16  F   UNL     1      28.177 -23.746 -15.305  0.00  0.00    -0.204 F 
ATOM     17  C   UNL     1      32.291 -24.084 -15.201  0.00  0.00    -0.004 C 
ATOM     18  C   UNL     1      31.506 -25.201 -15.490  0.00  0.00    -0.000 C 
ATOM     19  C   UNL     1      31.686 -22.853 -14.948  0.00  0.00    -0.000 C 
ATOM     20  C   UNL     1      30.116 -25.087 -15.524  0.00  0.00    +0.029 C 
ATOM     21  C   UNL     1      30.296 -22.739 -14.982  0.00  0.00    +0.029 C 
ATOM     22  C   UNL     1      29.511 -23.855 -15.271  0.00  0.00    +0.140 C 
ENDBRANCH  14  17
ENDBRANCH   2  14
BRANCH   2  23
ATOM     23  C   UNL     1      35.512 -22.488 -15.614  0.00  0.00    +0.121 C 
BRANCH  23  24
ATOM     24  C   UNL     1      36.440 -23.266 -14.724  0.00  0.00    -0.002 C 
ATOM     25  C   UNL     1      36.186 -23.345 -13.355  0.00  0.00    +0.004 C 
ATOM     26  C   UNL     1      37.552 -23.908 -15.266  0.00  0.00    -0.003 C 
ATOM     27  C   UNL     1      37.047 -24.068 -12.527  0.00  0.00    +0.075 C 
ATOM     28  C   UNL     1      38.412 -24.631 -14.440  0.00  0.00    -0.000 C 
ATOM     29  C   UNL     1      38.159 -24.711 -13.070  0.00  0.00    +0.006 C 
BRANCH  27  31
ATOM     30  O   UNL     1      37.050 -23.278 -10.269  0.00  0.00    -0.245 OA
ATOM     31  C   UNL     1      36.783 -24.153 -11.100  0.00  0.00    +0.338 C 
BRANCH  31  32
ATOM     32  O   UNL     1      36.191 -25.327 -10.748  0.00  0.00    -0.477 OA
ATOM     33  H   UNL     1      35.593 -25.353 -10.027  0.00  0.00    +0.295 HD
ENDBRANCH  31  32
ENDBRANCH  27  31
ENDBRANCH  23  24
ENDBRANCH   2  23
TORSDOF 7
ENDMDL
MODEL 4
REMARK VINA RESULT:     -10.6      1.472      2.031
REMARK  Name = 60195662
REMARK  7 active torsions:
REMARK  status: ('A' for Active; 'I' for Inactive)
REMARK    1  A    between atoms: N_2  and  C_14
REMARK    2  A    between atoms: N_2  and  C_23
REMARK    3  A    between atoms: C_3  and  C_5
REMARK    4  A    between atoms: C_14  and  C_17
REMARK    5  A    between atoms: C_23  and  C_24
REMARK    6  A    between atoms: C_27  and  C_31
REMARK    7  A    between atoms: C_31  and  O_32
REMARK                            x       y       z     vdW  Elec       q    Type
REMARK                         _______ _______ _______ _____ _____    ______ ____
ROOT
ATOM      1  O   UNL     1      32.058 -23.964 -17.507  0.00  0.00    -0.270 OA
ATOM      2  N   UNL     1      33.323 -23.542 -15.586  0.00  0.00    -0.270 N 
ATOM      3  C   UNL     1      33.053 -23.460 -16.966  0.00  0.00    +0.251 C 
ENDROOT
BRANCH   3   5
ATOM      4  N   UNL     1      36.277 -22.227 -18.388  0.00  0.00    -0.248 NA
ATOM      5  C   UNL     1      33.990 -22.761 -17.828  0.00  0.00    +0.072 C 
ATOM      6  C   UNL     1      33.550 -21.979 -18.884  0.00  0.00    +0.003 C 
ATOM      7  C   UNL     1      34.475 -21.314 -19.702  0.00  0.00    -0.004 C 
ATOM      8  C   UNL     1      35.352 -22.851 -17.623  0.00  0.00    +0.103 C 
ATOM      9  C   UNL     1      35.846 -21.468 -19.414  0.00  0.00    +0.060 C 
ATOM     10  C   UNL     1      34.061 -20.514 -20.781  0.00  0.00    +0.053 C 
ATOM     11  C   UNL     1      36.764 -20.807 -20.226  0.00  0.00    +0.071 C 
ATOM     12  C   UNL     1      35.001 -19.865 -21.577  0.00  0.00    -0.026 C 
ATOM     13  C   UNL     1      36.354 -20.012 -21.299  0.00  0.00    -0.024 C 
ENDBRANCH   3   5
BRANCH   2  14
ATOM     14  C   UNL     1      32.435 -24.241 -14.659  0.00  0.00    +0.099 C 
ATOM     15  C   UNL     1      32.753 -25.735 -14.653  0.00  0.00    +0.026 C 
BRANCH  14  17
ATOM     16  F   UNL     1      27.010 -23.190 -15.803  0.00  0.00    -0.204 F 
ATOM     17  C   UNL     1      30.980 -23.959 -14.967  0.00  0.00    -0.004 C 
ATOM     18  C   UNL     1      30.486 -22.658 -14.870  0.00  0.00    -0.000 C 
ATOM     19  C   UNL     1      30.132 -25.001 -15.347  0.00  0.00    -0.000 C 
ATOM     20  C   UNL     1      29.145 -22.398 -15.152  0.00  0.00    +0.029 C 
ATOM     21  C   UNL     1      28.792 -24.741 -15.629  0.00  0.00    +0.029 C 
ATOM     22  C   UNL     1      28.297 -23.440 -15.532  0.00  0.00    +0.140 C 
ENDBRANCH  14  17
ENDBRANCH   2  14
BRANCH   2  23
ATOM     23  C   UNL     1      34.504 -22.935 -14.991  0.00  0.00    +0.121 C 
BRANCH  23  24
ATOM     24  C   UNL     1      35.349 -23.944 -14.265  0.00  0.00    -0.002 C 
ATOM     25  C   UNL     1      36.035 -24.923 -14.982  0.00  0.00    +0.004 C 
ATOM     26  C   UNL     1      35.448 -23.899 -12.874  0.00  0.00    -0.003 C 
ATOM     27  C   UNL     1      36.820 -25.860 -14.308  0.00  0.00    +0.075 C 
ATOM     28  C   UNL     1      36.233 -24.834 -12.201  0.00  0.00    -0.000 C 
ATOM     29  C   UNL     1      36.919 -25.815 -12.918  0.00  0.00    +0.006 C 
BRANCH  27  31
ATOM     30  O   UNL     1      38.647 -27.335 -14.764  0.00  0.00    -0.245 OA
ATOM     31  C   UNL     1      37.536 -26.881 -15.056  0.00  0.00    +0.338 C 
BRANCH  31  32
ATOM     32  O   UNL     1      36.845 -27.308 -16.148  0.00  0.00    -0.477 OA
ATOM     33  H   UNL     1      36.998 -28.166 -16.493  0.00  0.00    +0.295 HD
ENDBRANCH  31  32
ENDBRANCH  27  31
ENDBRANCH  23  24
ENDBRANCH   2  23
TORSDOF 7
ENDMDL
MODEL 5
REMARK VINA RESULT:      -9.6      3.690      7.082
REMARK  Name = 60195662
REMARK  7 active torsions:
REMARK  status: ('A' for Active; 'I' for Inactive)
REMARK    1  A    between atoms: N_2  and  C_14
REMARK    2  A    between atoms: N_2  and  C_23
REMARK    3  A    between atoms: C_3  and  C_5
REMARK    4  A    between atoms: C_14  and  C_17
REMARK    5  A    between atoms: C_23  and  C_24
REMARK    6  A    between atoms: C_27  and  C_31
REMARK    7  A    between atoms: C_31  and  O_32
REMARK                            x       y       z     vdW  Elec       q    Type
REMARK                         _______ _______ _______ _____ _____    ______ ____
ROOT
ATOM      1  O   UNL     1      34.016 -23.657 -11.663  0.00  0.00    -0.270 OA
ATOM      2  N   UNL     1      35.390 -24.547 -13.333  0.00  0.00    -0.270 N 
ATOM      3  C   UNL     1      34.149 -24.162 -12.787  0.00  0.00    +0.251 C 
ENDROOT
BRANCH   3   5
ATOM      4  N   UNL     1      31.160 -25.850 -14.252  0.00  0.00    -0.248 NA
ATOM      5  C   UNL     1      32.941 -24.373 -13.564  0.00  0.00    +0.072 C 
ATOM      6  C   UNL     1      32.403 -23.362 -14.346  0.00  0.00    +0.003 C 
ATOM      7  C   UNL     1      31.235 -23.591 -15.087  0.00  0.00    -0.004 C 
ATOM      8  C   UNL     1      32.288 -25.588 -13.552  0.00  0.00    +0.103 C 
ATOM      9  C   UNL     1      30.639 -24.867 -15.010  0.00  0.00    +0.060 C 
ATOM     10  C   UNL     1      30.664 -22.587 -15.888  0.00  0.00    +0.053 C 
ATOM     11  C   UNL     1      29.480 -25.093 -15.747  0.00  0.00    +0.071 C 
ATOM     12  C   UNL     1      29.503 -22.841 -16.615  0.00  0.00    -0.026 C 
ATOM     13  C   UNL     1      28.911 -24.097 -16.543  0.00  0.00    -0.024 C 
ENDBRANCH   3   5
BRANCH   2  14
ATOM     14  C   UNL     1      36.646 -24.379 -12.604  0.00  0.00    +0.099 C 
ATOM     15  C   UNL     1      36.953 -22.895 -12.420  0.00  0.00    +0.026 C 
BRANCH  14  17
ATOM     16  F   UNL     1      40.867 -27.169 -15.103  0.00  0.00    -0.204 F 
ATOM     17  C   UNL     1      37.778 -25.128 -13.274  0.00  0.00    -0.004 C 
ATOM     18  C   UNL     1      39.035 -24.533 -13.390  0.00  0.00    -0.000 C 
ATOM     19  C   UNL     1      37.565 -26.413 -13.776  0.00  0.00    -0.000 C 
ATOM     20  C   UNL     1      40.079 -25.223 -14.008  0.00  0.00    +0.029 C 
ATOM     21  C   UNL     1      38.609 -27.102 -14.393  0.00  0.00    +0.029 C 
ATOM     22  C   UNL     1      39.866 -26.507 -14.510  0.00  0.00    +0.140 C 
ENDBRANCH  14  17
ENDBRANCH   2  14
BRANCH   2  23
ATOM     23  C   UNL     1      35.503 -25.137 -14.658  0.00  0.00    +0.121 C 
BRANCH  23  24
ATOM     24  C   UNL     1      35.608 -24.092 -15.732  0.00  0.00    -0.002 C 
ATOM     25  C   UNL     1      34.610 -23.986 -16.701  0.00  0.00    +0.004 C 
ATOM     26  C   UNL     1      36.701 -23.227 -15.759  0.00  0.00    -0.003 C 
ATOM     27  C   UNL     1      34.706 -23.014 -17.698  0.00  0.00    +0.075 C 
ATOM     28  C   UNL     1      36.797 -22.256 -16.756  0.00  0.00    -0.000 C 
ATOM     29  C   UNL     1      35.800 -22.149 -17.725  0.00  0.00    +0.006 C 
BRANCH  27  31
ATOM     30  O   UNL     1      32.701 -22.133 -18.659  0.00  0.00    -0.245 OA
ATOM     31  C   UNL     1      33.666 -22.903 -18.707  0.00  0.00    +0.338 C 
BRANCH  31  32
ATOM     32  O   UNL     1      33.858 -23.756 -19.750  0.00  0.00    -0.477 OA
ATOM     33  H   UNL     1      33.681 -24.671 -19.647  0.00  0.00    +0.295 HD
ENDBRANCH  31  32
ENDBRANCH  27  31
ENDBRANCH  23  24
ENDBRANCH   2  23
TORSDOF 7
ENDMDL
MODEL 6
REMARK VINA RESULT:      -9.2      2.368      6.076
REMARK  Name = 60195662
REMARK  7 active torsions:
REMARK  status: ('A' for Active; 'I' for Inactive)
REMARK    1  A    between atoms: N_2  and  C_14
REMARK    2  A    between atoms: N_2  and  C_23
REMARK    3  A    between atoms: C_3  and  C_5
REMARK    4  A    between atoms: C_14  and  C_17
REMARK    5  A    between atoms: C_23  and  C_24
REMARK    6  A    between atoms: C_27  and  C_31
REMARK    7  A    between atoms: C_31  and  O_32
REMARK                            x       y       z     vdW  Elec       q    Type
REMARK                         _______ _______ _______ _____ _____    ______ ____
ROOT
ATOM      1  O   UNL     1      34.203 -23.775 -18.607  0.00  0.00    -0.270 OA
ATOM      2  N   UNL     1      35.405 -22.757 -16.879  0.00  0.00    -0.270 N 
ATOM      3  C   UNL     1      34.307 -23.458 -17.413  0.00  0.00    +0.251 C 
ENDROOT
BRANCH   3   5
ATOM      4  N   UNL     1      32.463 -24.920 -14.515  0.00  0.00    -0.248 NA
ATOM      5  C   UNL     1      33.212 -23.829 -16.534  0.00  0.00    +0.072 C 
ATOM      6  C   UNL     1      31.903 -23.479 -16.828  0.00  0.00    +0.003 C 
ATOM      7  C   UNL     1      30.863 -23.848 -15.963  0.00  0.00    -0.004 C 
ATOM      8  C   UNL     1      33.437 -24.544 -15.376  0.00  0.00    +0.103 C 
ATOM      9  C   UNL     1      31.193 -24.578 -14.803  0.00  0.00    +0.060 C 
ATOM     10  C   UNL     1      29.526 -23.509 -16.233  0.00  0.00    +0.053 C 
ATOM     11  C   UNL     1      30.160 -24.946 -13.945  0.00  0.00    +0.071 C 
ATOM     12  C   UNL     1      28.513 -23.889 -15.357  0.00  0.00    -0.026 C 
ATOM     13  C   UNL     1      28.831 -24.608 -14.211  0.00  0.00    -0.024 C 
ENDBRANCH   3   5
BRANCH   2  14
ATOM     14  C   UNL     1      36.536 -22.337 -17.704  0.00  0.00    +0.099 C 
ATOM     15  C   UNL     1      37.542 -21.558 -16.860  0.00  0.00    +0.026 C 
BRANCH  14  17
ATOM     16  F   UNL     1      34.824 -19.448 -22.239  0.00  0.00    -0.204 F 
ATOM     17  C   UNL     1      36.077 -21.563 -18.921  0.00  0.00    -0.004 C 
ATOM     18  C   UNL     1      37.005 -20.870 -19.698  0.00  0.00    -0.000 C 
ATOM     19  C   UNL     1      34.725 -21.541 -19.265  0.00  0.00    -0.000 C 
ATOM     20  C   UNL     1      36.583 -20.156 -20.819  0.00  0.00    +0.029 C 
ATOM     21  C   UNL     1      34.302 -20.827 -20.386  0.00  0.00    +0.029 C 
ATOM     22  C   UNL     1      35.230 -20.134 -21.163  0.00  0.00    +0.140 C 
ENDBRANCH  14  17
ENDBRANCH   2  14
BRANCH   2  23
ATOM     23  C   UNL     1      35.487 -22.404 -15.469  0.00  0.00    +0.121 C 
BRANCH  23  24
ATOM     24  C   UNL     1      36.329 -23.377 -14.694  0.00  0.00    -0.002 C 
ATOM     25  C   UNL     1      36.635 -24.622 -15.241  0.00  0.00    +0.004 C 
ATOM     26  C   UNL     1      36.805 -23.034 -13.429  0.00  0.00    -0.003 C 
ATOM     27  C   UNL     1      37.418 -25.526 -14.521  0.00  0.00    +0.075 C 
ATOM     28  C   UNL     1      37.588 -23.937 -12.710  0.00  0.00    -0.000 C 
ATOM     29  C   UNL     1      37.894 -25.183 -13.256  0.00  0.00    +0.006 C 
BRANCH  27  31
ATOM     30  O   UNL     1      38.691 -27.538 -14.757  0.00  0.00    -0.245 OA
ATOM     31  C   UNL     1      37.739 -26.825 -15.091  0.00  0.00    +0.338 C 
BRANCH  31  32
ATOM     32  O   UNL     1      36.862 -27.199 -16.062  0.00  0.00    -0.477 OA
ATOM     33  H   UNL     1      37.180 -27.555 -16.869  0.00  0.00    +0.295 HD
ENDBRANCH  31  32
ENDBRANCH  27  31
ENDBRANCH  23  24
ENDBRANCH   2  23
TORSDOF 7
ENDMDL
MODEL 7
REMARK VINA RESULT:      -9.0      2.885      7.950
REMARK  Name = 60195662
REMARK  7 active torsions:
REMARK  status: ('A' for Active; 'I' for Inactive)
REMARK    1  A    between atoms: N_2  and  C_14
REMARK    2  A    between atoms: N_2  and  C_23
REMARK    3  A    between atoms: C_3  and  C_5
REMARK    4  A    between atoms: C_14  and  C_17
REMARK    5  A    between atoms: C_23  and  C_24
REMARK    6  A    between atoms: C_27  and  C_31
REMARK    7  A    between atoms: C_31  and  O_32
REMARK                            x       y       z     vdW  Elec       q    Type
REMARK                         _______ _______ _______ _____ _____    ______ ____
ROOT
ATOM      1  O   UNL     1      35.996 -24.058 -17.304  0.00  0.00    -0.270 OA
ATOM      2  N   UNL     1      33.892 -23.258 -16.671  0.00  0.00    -0.270 N 
ATOM      3  C   UNL     1      35.229 -23.628 -16.430  0.00  0.00    +0.251 C 
ENDROOT
BRANCH   3   5
ATOM      4  N   UNL     1      37.391 -22.582 -13.572  0.00  0.00    -0.248 NA
ATOM      5  C   UNL     1      35.758 -23.522 -15.082  0.00  0.00    +0.072 C 
ATOM      6  C   UNL     1      35.186 -24.217 -14.027  0.00  0.00    +0.003 C 
ATOM      7  C   UNL     1      35.714 -24.097 -12.735  0.00  0.00    -0.004 C 
ATOM      8  C   UNL     1      36.850 -22.725 -14.804  0.00  0.00    +0.103 C 
ATOM      9  C   UNL     1      36.833 -23.258 -12.550  0.00  0.00    +0.060 C 
ATOM     10  C   UNL     1      35.157 -24.788 -11.645  0.00  0.00    +0.053 C 
ATOM     11  C   UNL     1      37.358 -23.140 -11.266  0.00  0.00    +0.071 C 
ATOM     12  C   UNL     1      35.703 -24.651 -10.371  0.00  0.00    -0.026 C 
ATOM     13  C   UNL     1      36.805 -23.826 -10.182  0.00  0.00    -0.024 C 
ENDBRANCH   3   5
BRANCH   2  14
ATOM     14  C   UNL     1      33.285 -23.353 -17.998  0.00  0.00    +0.099 C 
ATOM     15  C   UNL     1      33.450 -24.766 -18.552  0.00  0.00    +0.026 C 
BRANCH  14  17
ATOM     16  F   UNL     1      35.320 -19.413 -21.488  0.00  0.00    -0.204 F 
ATOM     17  C   UNL     1      33.831 -22.296 -18.933  0.00  0.00    -0.004 C 
ATOM     18  C   UNL     1      32.956 -21.468 -19.637  0.00  0.00    -0.000 C 
ATOM     19  C   UNL     1      35.210 -22.150 -19.093  0.00  0.00    -0.000 C 
ATOM     20  C   UNL     1      33.459 -20.494 -20.500  0.00  0.00    +0.029 C 
ATOM     21  C   UNL     1      35.712 -21.176 -19.956  0.00  0.00    +0.029 C 
ATOM     22  C   UNL     1      34.837 -20.348 -20.659  0.00  0.00    +0.140 C 
ENDBRANCH  14  17
ENDBRANCH   2  14
BRANCH   2  23
ATOM     23  C   UNL     1      33.024 -22.758 -15.615  0.00  0.00    +0.121 C 
BRANCH  23  24
ATOM     24  C   UNL     1      31.745 -23.539 -15.521  0.00  0.00    -0.002 C 
ATOM     25  C   UNL     1      30.635 -23.152 -16.271  0.00  0.00    +0.004 C 
ATOM     26  C   UNL     1      31.668 -24.653 -14.685  0.00  0.00    -0.003 C 
ATOM     27  C   UNL     1      29.446 -23.878 -16.184  0.00  0.00    +0.075 C 
ATOM     28  C   UNL     1      30.480 -25.379 -14.598  0.00  0.00    -0.000 C 
ATOM     29  C   UNL     1      29.369 -24.992 -15.348  0.00  0.00    +0.006 C 
BRANCH  27  31
ATOM     30  O   UNL     1      27.597 -24.227 -17.661  0.00  0.00    -0.245 OA
ATOM     31  C   UNL     1      28.289 -23.475 -16.966  0.00  0.00    +0.338 C 
BRANCH  31  32
ATOM     32  O   UNL     1      28.027 -22.144 -16.861  0.00  0.00    -0.477 OA
ATOM     33  H   UNL     1      27.476 -21.828 -16.171  0.00  0.00    +0.295 HD
ENDBRANCH  31  32
ENDBRANCH  27  31
ENDBRANCH  23  24
ENDBRANCH   2  23
TORSDOF 7
ENDMDL
MODEL 8
REMARK VINA RESULT:      -9.0      2.773      6.327
REMARK  Name = 60195662
REMARK  7 active torsions:
REMARK  status: ('A' for Active; 'I' for Inactive)
REMARK    1  A    between atoms: N_2  and  C_14
REMARK    2  A    between atoms: N_2  and  C_23
REMARK    3  A    between atoms: C_3  and  C_5
REMARK    4  A    between atoms: C_14  and  C_17
REMARK    5  A    between atoms: C_23  and  C_24
REMARK    6  A    between atoms: C_27  and  C_31
REMARK    7  A    between atoms: C_31  and  O_32
REMARK                            x       y       z     vdW  Elec       q    Type
REMARK                         _______ _______ _______ _____ _____    ______ ____
ROOT
ATOM      1  O   UNL     1      34.235 -23.776 -18.593  0.00  0.00    -0.270 OA
ATOM      2  N   UNL     1      35.414 -22.751 -16.854  0.00  0.00    -0.270 N 
ATOM      3  C   UNL     1      34.329 -23.467 -17.397  0.00  0.00    +0.251 C 
ENDROOT
BRANCH   3   5
ATOM      4  N   UNL     1      32.493 -25.054 -14.561  0.00  0.00    -0.248 NA
ATOM      5  C   UNL     1      33.239 -23.864 -16.524  0.00  0.00    +0.072 C 
ATOM      6  C   UNL     1      31.934 -23.469 -16.778  0.00  0.00    +0.003 C 
ATOM      7  C   UNL     1      30.898 -23.865 -15.920  0.00  0.00    -0.004 C 
ATOM      8  C   UNL     1      33.463 -24.650 -15.413  0.00  0.00    +0.103 C 
ATOM      9  C   UNL     1      31.228 -24.668 -14.809  0.00  0.00    +0.060 C 
ATOM     10  C   UNL     1      29.566 -23.480 -16.149  0.00  0.00    +0.053 C 
ATOM     11  C   UNL     1      30.198 -25.062 -13.958  0.00  0.00    +0.071 C 
ATOM     12  C   UNL     1      28.556 -23.888 -15.281  0.00  0.00    -0.026 C 
ATOM     13  C   UNL     1      28.874 -24.681 -14.184  0.00  0.00    -0.024 C 
ENDBRANCH   3   5
BRANCH   2  14
ATOM     14  C   UNL     1      36.540 -22.304 -17.672  0.00  0.00    +0.099 C 
ATOM     15  C   UNL     1      37.515 -21.490 -16.824  0.00  0.00    +0.026 C 
BRANCH  14  17
ATOM     16  F   UNL     1      34.786 -19.499 -22.243  0.00  0.00    -0.204 F 
ATOM     17  C   UNL     1      36.069 -21.552 -18.898  0.00  0.00    -0.004 C 
ATOM     18  C   UNL     1      36.992 -20.887 -19.705  0.00  0.00    -0.000 C 
ATOM     19  C   UNL     1      34.712 -21.524 -19.222  0.00  0.00    -0.000 C 
ATOM     20  C   UNL     1      36.560 -20.193 -20.835  0.00  0.00    +0.029 C 
ATOM     21  C   UNL     1      34.279 -20.830 -20.352  0.00  0.00    +0.029 C 
ATOM     22  C   UNL     1      35.202 -20.165 -21.158  0.00  0.00    +0.140 C 
ENDBRANCH  14  17
ENDBRANCH   2  14
BRANCH   2  23
ATOM     23  C   UNL     1      35.486 -22.408 -15.441  0.00  0.00    +0.121 C 
BRANCH  23  24
ATOM     24  C   UNL     1      36.120 -23.500 -14.629  0.00  0.00    -0.002 C 
ATOM     25  C   UNL     1      35.867 -23.586 -13.260  0.00  0.00    +0.004 C 
ATOM     26  C   UNL     1      36.960 -24.428 -15.243  0.00  0.00    -0.003 C 
ATOM     27  C   UNL     1      36.456 -24.601 -12.505  0.00  0.00    +0.075 C 
ATOM     28  C   UNL     1      37.548 -25.443 -14.488  0.00  0.00    -0.000 C 
ATOM     29  C   UNL     1      37.296 -25.530 -13.119  0.00  0.00    +0.006 C 
BRANCH  27  31
ATOM     30  O   UNL     1      35.349 -25.426 -10.551  0.00  0.00    -0.245 OA
ATOM     31  C   UNL     1      36.192 -24.692 -11.078  0.00  0.00    +0.338 C 
BRANCH  31  32
ATOM     32  O   UNL     1      36.988 -23.865 -10.347  0.00  0.00    -0.477 OA
ATOM     33  H   UNL     1      37.683 -23.394 -10.764  0.00  0.00    +0.295 HD
ENDBRANCH  31  32
ENDBRANCH  27  31
ENDBRANCH  23  24
ENDBRANCH   2  23
TORSDOF 7
ENDMDL
MODEL 9
REMARK VINA RESULT:      -9.0     12.351     16.479
REMARK  Name = 60195662
REMARK  7 active torsions:
REMARK  status: ('A' for Active; 'I' for Inactive)
REMARK    1  A    between atoms: N_2  and  C_14
REMARK    2  A    between atoms: N_2  and  C_23
REMARK    3  A    between atoms: C_3  and  C_5
REMARK    4  A    between atoms: C_14  and  C_17
REMARK    5  A    between atoms: C_23  and  C_24
REMARK    6  A    between atoms: C_27  and  C_31
REMARK    7  A    between atoms: C_31  and  O_32
REMARK                            x       y       z     vdW  Elec       q    Type
REMARK                         _______ _______ _______ _____ _____    ______ ____
ROOT
ATOM      1  O   UNL     1      35.594  -8.839 -24.057  0.00  0.00    -0.270 OA
ATOM      2  N   UNL     1      33.420  -8.426 -23.302  0.00  0.00    -0.270 N 
ATOM      3  C   UNL     1      34.430  -9.224 -23.873  0.00  0.00    +0.251 C 
ENDROOT
BRANCH   3   5
ATOM      4  N   UNL     1      33.096 -12.050 -25.915  0.00  0.00    -0.248 NA
ATOM      5  C   UNL     1      34.108 -10.576 -24.293  0.00  0.00    +0.072 C 
ATOM      6  C   UNL     1      34.472 -11.674 -23.526  0.00  0.00    +0.003 C 
ATOM      7  C   UNL     1      34.149 -12.969 -23.953  0.00  0.00    -0.004 C 
ATOM      8  C   UNL     1      33.426 -10.816 -25.468  0.00  0.00    +0.103 C 
ATOM      9  C   UNL     1      33.451 -13.113 -25.169  0.00  0.00    +0.060 C 
ATOM     10  C   UNL     1      34.504 -14.101 -23.200  0.00  0.00    +0.053 C 
ATOM     11  C   UNL     1      33.130 -14.400 -25.592  0.00  0.00    +0.071 C 
ATOM     12  C   UNL     1      34.171 -15.378 -23.646  0.00  0.00    -0.026 C 
ATOM     13  C   UNL     1      33.482 -15.526 -24.845  0.00  0.00    -0.024 C 
ENDBRANCH   3   5
BRANCH   2  14
ATOM     14  C   UNL     1      33.666  -7.051 -22.870  0.00  0.00    +0.099 C 
ATOM     15  C   UNL     1      32.747  -6.695 -21.704  0.00  0.00    +0.026 C 
BRANCH  14  17
ATOM     16  F   UNL     1      33.212  -3.422 -27.167  0.00  0.00    -0.204 F 
ATOM     17  C   UNL     1      33.544  -6.078 -24.023  0.00  0.00    -0.004 C 
ATOM     18  C   UNL     1      34.601  -5.923 -24.920  0.00  0.00    -0.000 C 
ATOM     19  C   UNL     1      32.374  -5.336 -24.189  0.00  0.00    -0.000 C 
ATOM     20  C   UNL     1      34.490  -5.026 -25.982  0.00  0.00    +0.029 C 
ATOM     21  C   UNL     1      32.262  -4.439 -25.251  0.00  0.00    +0.029 C 
ATOM     22  C   UNL     1      33.320  -4.283 -26.148  0.00  0.00    +0.140 C 
ENDBRANCH  14  17
ENDBRANCH   2  14
BRANCH   2  23
ATOM     23  C   UNL     1      32.065  -8.917 -23.104  0.00  0.00    +0.121 C 
BRANCH  23  24
ATOM     24  C   UNL     1      31.946  -9.756 -21.864  0.00  0.00    -0.002 C 
ATOM     25  C   UNL     1      31.973 -11.147 -21.960  0.00  0.00    +0.004 C 
ATOM     26  C   UNL     1      31.812  -9.145 -20.618  0.00  0.00    -0.003 C 
ATOM     27  C   UNL     1      31.864 -11.928 -20.808  0.00  0.00    +0.075 C 
ATOM     28  C   UNL     1      31.703  -9.925 -19.466  0.00  0.00    -0.000 C 
ATOM     29  C   UNL     1      31.729 -11.316 -19.561  0.00  0.00    +0.006 C 
BRANCH  27  31
ATOM     30  O   UNL     1      32.249 -14.150 -20.011  0.00  0.00    -0.245 OA
ATOM     31  C   UNL     1      31.892 -13.378 -20.907  0.00  0.00    +0.338 C 
BRANCH  31  32
ATOM     32  O   UNL     1      31.474 -13.825 -22.122  0.00  0.00    -0.477 OA
ATOM     33  H   UNL     1      31.457 -13.243 -22.856  0.00  0.00    +0.295 HD
ENDBRANCH  31  32
ENDBRANCH  27  31
ENDBRANCH  23  24
ENDBRANCH   2  23
TORSDOF 7
ENDMDL
