MODEL 1
REMARK VINA RESULT:     -13.4      0.000      0.000
REMARK  Name = 25171648
REMARK  8 active torsions:
REMARK  status: ('A' for Active; 'I' for Inactive)
REMARK    1  A    between atoms: C_1  and  C_12
REMARK    2  A    between atoms: C_2  and  C_23
REMARK    3  A    between atoms: C_9  and  O_13
REMARK    4  A    between atoms: O_13  and  C_14
REMARK    5  A    between atoms: C_14  and  C_16
REMARK    6  A    between atoms: C_23  and  N_25
REMARK    7  A    between atoms: C_27  and  C_31
REMARK    8  A    between atoms: C_34  and  C_38
REMARK                            x       y       z     vdW  Elec       q    Type
REMARK                         _______ _______ _______ _____ _____    ______ ____
ROOT
ATOM      1  C   UNL     1      35.353 -20.119 -20.903  0.00  0.00    +0.062 C 
ATOM      2  C   UNL     1      34.413 -21.892 -19.557  0.00  0.00    +0.000 C 
ATOM      3  C   UNL     1      34.262 -20.906 -20.532  0.00  0.00    +0.007 C 
ATOM      4  C   UNL     1      36.593 -20.318 -20.297  0.00  0.00    +0.010 C 
ATOM      5  C   UNL     1      35.654 -22.091 -18.952  0.00  0.00    -0.003 C 
ATOM      6  C   UNL     1      36.744 -21.304 -19.323  0.00  0.00    +0.000 C 
ENDROOT
BRANCH   1  12
ATOM      7  N   UNL     1      34.626 -19.483 -23.067  0.00  0.00    -0.212 NA
ATOM      8  N   UNL     1      35.637 -17.868 -21.591  0.00  0.00    -0.190 NA
ATOM      9  C   UNL     1      34.906 -17.203 -23.785  0.00  0.00    +0.161 C 
ATOM     10  C   UNL     1      34.496 -18.505 -23.987  0.00  0.00    +0.201 C 
ATOM     11  C   UNL     1      35.474 -16.940 -22.555  0.00  0.00    +0.144 C 
ATOM     12  C   UNL     1      35.197 -19.101 -21.909  0.00  0.00    +0.031 C 
BRANCH   9  13
ATOM     13  O   UNL     1      34.756 -16.232 -24.745  0.00  0.00    -0.476 OA
BRANCH  13  14
ATOM     14  C   UNL     1      33.435 -15.914 -25.138  0.00  0.00    +0.205 C 
BRANCH  14  16
ATOM     15  N   UNL     1      34.263 -11.719 -24.529  0.00  0.00    +0.386 N 
ATOM     16  C   UNL     1      33.199 -14.427 -24.896  0.00  0.00    +0.040 C 
ATOM     17  C   UNL     1      33.732 -13.588 -26.062  0.00  0.00    -0.019 C 
ATOM     18  C   UNL     1      33.854 -13.971 -23.588  0.00  0.00    -0.019 C 
ATOM     19  C   UNL     1      33.590 -12.090 -25.782  0.00  0.00    -0.077 C 
ATOM     20  C   UNL     1      33.707 -12.460 -23.389  0.00  0.00    -0.077 C 
ATOM     21  C   UNL     1      34.162 -10.278 -24.301  0.00  0.00    -0.101 C 
ATOM     22  H   UNL     1      35.248 -11.969 -24.616  0.00  0.00    -0.080 HD
ENDBRANCH  14  16
ENDBRANCH  13  14
ENDBRANCH   9  13
ENDBRANCH   1  12
BRANCH   2  23
ATOM     23  C   UNL     1      33.248 -22.734 -19.160  0.00  0.00    +0.146 C 
BRANCH  23  25
ATOM     24  O   UNL     1      30.949 -22.597 -17.454  0.00  0.00    -0.268 OA
ATOM     25  N   UNL     1      33.221 -23.002 -17.732  0.00  0.00    -0.173 N 
ATOM     26  N   UNL     1      34.428 -23.338 -17.190  0.00  0.00    -0.175 NA
ATOM     27  C   UNL     1      34.483 -23.584 -15.921  0.00  0.00    +0.099 C 
ATOM     28  C   UNL     1      32.048 -22.909 -16.996  0.00  0.00    +0.268 C 
ATOM     29  C   UNL     1      33.321 -23.551 -15.013  0.00  0.00    +0.025 C 
ATOM     30  C   UNL     1      32.151 -23.219 -15.555  0.00  0.00    +0.061 C 
BRANCH  27  31
ATOM     31  C   UNL     1      35.793 -23.946 -15.318  0.00  0.00    +0.020 C 
ATOM     32  C   UNL     1      35.846 -24.834 -14.244  0.00  0.00    +0.012 C 
ATOM     33  C   UNL     1      36.970 -23.398 -15.828  0.00  0.00    +0.002 C 
ATOM     34  C   UNL     1      37.076 -25.173 -13.679  0.00  0.00    +0.068 C 
ATOM     35  C   UNL     1      38.200 -23.737 -15.264  0.00  0.00    +0.001 C 
ATOM     36  C   UNL     1      38.253 -24.625 -14.190  0.00  0.00    +0.010 C 
BRANCH  34  38
ATOM     37  N   UNL     1      37.176 -26.821 -11.683  0.00  0.00    -0.191 NA
ATOM     38  C   UNL     1      37.131 -26.082 -12.578  0.00  0.00    +0.100 C 
ENDBRANCH  34  38
ENDBRANCH  27  31
ENDBRANCH  23  25
ENDBRANCH   2  23
TORSDOF 8
ENDMDL
MODEL 2
REMARK VINA RESULT:     -13.4      0.933      1.323
REMARK  Name = 25171648
REMARK  8 active torsions:
REMARK  status: ('A' for Active; 'I' for Inactive)
REMARK    1  A    between atoms: C_1  and  C_12
REMARK    2  A    between atoms: C_2  and  C_23
REMARK    3  A    between atoms: C_9  and  O_13
REMARK    4  A    between atoms: O_13  and  C_14
REMARK    5  A    between atoms: C_14  and  C_16
REMARK    6  A    between atoms: C_23  and  N_25
REMARK    7  A    between atoms: C_27  and  C_31
REMARK    8  A    between atoms: C_34  and  C_38
REMARK                            x       y       z     vdW  Elec       q    Type
REMARK                         _______ _______ _______ _____ _____    ______ ____
ROOT
ATOM      1  C   UNL     1      35.277 -20.029 -20.710  0.00  0.00    +0.062 C 
ATOM      2  C   UNL     1      34.132 -21.806 -19.541  0.00  0.00    +0.000 C 
ATOM      3  C   UNL     1      34.090 -20.642 -20.309  0.00  0.00    +0.007 C 
ATOM      4  C   UNL     1      36.505 -20.579 -20.343  0.00  0.00    +0.010 C 
ATOM      5  C   UNL     1      35.360 -22.356 -19.174  0.00  0.00    -0.003 C 
ATOM      6  C   UNL     1      36.546 -21.743 -19.576  0.00  0.00    +0.000 C 
ENDROOT
BRANCH   1  12
ATOM      7  N   UNL     1      35.050 -18.988 -22.827  0.00  0.00    -0.212 NA
ATOM      8  N   UNL     1      35.380 -17.664 -20.840  0.00  0.00    -0.190 NA
ATOM      9  C   UNL     1      35.153 -16.587 -22.981  0.00  0.00    +0.161 C 
ATOM     10  C   UNL     1      35.015 -17.842 -23.539  0.00  0.00    +0.201 C 
ATOM     11  C   UNL     1      35.334 -16.559 -21.613  0.00  0.00    +0.144 C 
ATOM     12  C   UNL     1      35.234 -18.828 -21.503  0.00  0.00    +0.031 C 
BRANCH   9  13
ATOM     13  O   UNL     1      35.110 -15.442 -23.737  0.00  0.00    -0.476 OA
BRANCH  13  14
ATOM     14  C   UNL     1      33.835 -14.885 -23.991  0.00  0.00    +0.205 C 
BRANCH  14  16
ATOM     15  N   UNL     1      32.408 -10.929 -23.006  0.00  0.00    +0.386 N 
ATOM     16  C   UNL     1      33.770 -13.503 -23.348  0.00  0.00    +0.040 C 
ATOM     17  C   UNL     1      32.501 -13.349 -22.501  0.00  0.00    -0.019 C 
ATOM     18  C   UNL     1      33.821 -12.398 -24.408  0.00  0.00    -0.019 C 
ATOM     19  C   UNL     1      32.378 -11.934 -21.934  0.00  0.00    -0.077 C 
ATOM     20  C   UNL     1      33.656 -11.014 -23.777  0.00  0.00    -0.077 C 
ATOM     21  C   UNL     1      32.238  -9.586 -22.452  0.00  0.00    -0.101 C 
ATOM     22  H   UNL     1      31.632 -11.123 -23.639  0.00  0.00    -0.080 HD
ENDBRANCH  14  16
ENDBRANCH  13  14
ENDBRANCH   9  13
ENDBRANCH   1  12
BRANCH   2  23
ATOM     23  C   UNL     1      32.863 -22.463 -19.111  0.00  0.00    +0.146 C 
BRANCH  23  25
ATOM     24  O   UNL     1      30.604 -22.641 -17.356  0.00  0.00    -0.268 OA
ATOM     25  N   UNL     1      32.891 -22.855 -17.712  0.00  0.00    -0.173 N 
ATOM     26  N   UNL     1      34.133 -23.149 -17.225  0.00  0.00    -0.175 NA
ATOM     27  C   UNL     1      34.236 -23.500 -15.983  0.00  0.00    +0.099 C 
ATOM     28  C   UNL     1      31.734 -22.911 -16.949  0.00  0.00    +0.268 C 
ATOM     29  C   UNL     1      33.098 -23.629 -15.054  0.00  0.00    +0.025 C 
ATOM     30  C   UNL     1      31.894 -23.337 -15.543  0.00  0.00    +0.061 C 
BRANCH  27  31
ATOM     31  C   UNL     1      35.584 -23.817 -15.440  0.00  0.00    +0.020 C 
ATOM     32  C   UNL     1      35.715 -24.716 -14.381  0.00  0.00    +0.012 C 
ATOM     33  C   UNL     1      36.716 -23.217 -15.990  0.00  0.00    +0.002 C 
ATOM     34  C   UNL     1      36.980 -25.013 -13.873  0.00  0.00    +0.068 C 
ATOM     35  C   UNL     1      37.981 -23.514 -15.481  0.00  0.00    +0.001 C 
ATOM     36  C   UNL     1      38.113 -24.413 -14.423  0.00  0.00    +0.010 C 
BRANCH  34  38
ATOM     37  N   UNL     1      37.226 -26.681 -11.906  0.00  0.00    -0.191 NA
ATOM     38  C   UNL     1      37.116 -25.933 -12.787  0.00  0.00    +0.100 C 
ENDBRANCH  34  38
ENDBRANCH  27  31
ENDBRANCH  23  25
ENDBRANCH   2  23
TORSDOF 8
ENDMDL
MODEL 3
REMARK VINA RESULT:     -13.1      4.083     14.295
REMARK  Name = 25171648
REMARK  8 active torsions:
REMARK  status: ('A' for Active; 'I' for Inactive)
REMARK    1  A    between atoms: C_1  and  C_12
REMARK    2  A    between atoms: C_2  and  C_23
REMARK    3  A    between atoms: C_9  and  O_13
REMARK    4  A    between atoms: O_13  and  C_14
REMARK    5  A    between atoms: C_14  and  C_16
REMARK    6  A    between atoms: C_23  and  N_25
REMARK    7  A    between atoms: C_27  and  C_31
REMARK    8  A    between atoms: C_34  and  C_38
REMARK                            x       y       z     vdW  Elec       q    Type
REMARK                         _______ _______ _______ _____ _____    ______ ____
ROOT
ATOM      1  C   UNL     1      33.800 -13.435 -23.013  0.00  0.00    +0.062 C 
ATOM      2  C   UNL     1      32.323 -11.576 -22.558  0.00  0.00    +0.000 C 
ATOM      3  C   UNL     1      32.842 -12.823 -22.204  0.00  0.00    +0.007 C 
ATOM      4  C   UNL     1      34.238 -12.801 -24.176  0.00  0.00    +0.010 C 
ATOM      5  C   UNL     1      32.762 -10.943 -23.721  0.00  0.00    -0.003 C 
ATOM      6  C   UNL     1      33.720 -11.555 -24.529  0.00  0.00    +0.000 C 
ENDROOT
BRANCH   1  12
ATOM      7  N   UNL     1      34.463 -14.965 -21.331  0.00  0.00    -0.212 NA
ATOM      8  N   UNL     1      34.653 -15.549 -23.661  0.00  0.00    -0.190 NA
ATOM      9  C   UNL     1      35.332 -17.118 -21.967  0.00  0.00    +0.161 C 
ATOM     10  C   UNL     1      34.967 -16.179 -21.025  0.00  0.00    +0.201 C 
ATOM     11  C   UNL     1      35.150 -16.745 -23.283  0.00  0.00    +0.144 C 
ATOM     12  C   UNL     1      34.335 -14.720 -22.648  0.00  0.00    +0.031 C 
BRANCH   9  13
ATOM     13  O   UNL     1      35.842 -18.345 -21.619  0.00  0.00    -0.476 OA
BRANCH  13  14
ATOM     14  C   UNL     1      35.042 -19.477 -21.899  0.00  0.00    +0.205 C 
BRANCH  14  16
ATOM     15  N   UNL     1      34.018 -22.623 -19.122  0.00  0.00    +0.386 N 
ATOM     16  C   UNL     1      34.714 -20.179 -20.584  0.00  0.00    +0.040 C 
ATOM     17  C   UNL     1      35.742 -21.273 -20.273  0.00  0.00    -0.019 C 
ATOM     18  C   UNL     1      33.307 -20.786 -20.618  0.00  0.00    -0.019 C 
ATOM     19  C   UNL     1      35.365 -22.047 -19.009  0.00  0.00    -0.077 C 
ATOM     20  C   UNL     1      33.011 -21.576 -19.342  0.00  0.00    -0.077 C 
ATOM     21  C   UNL     1      33.693 -23.403 -17.927  0.00  0.00    -0.101 C 
ATOM     22  H   UNL     1      34.009 -23.244 -19.930  0.00  0.00    -0.080 HD
ENDBRANCH  14  16
ENDBRANCH  13  14
ENDBRANCH   9  13
ENDBRANCH   1  12
BRANCH   2  23
ATOM     23  C   UNL     1      31.299 -10.921 -21.694  0.00  0.00    +0.146 C 
BRANCH  23  25
ATOM     24  O   UNL     1      31.707 -10.155 -18.963  0.00  0.00    -0.268 OA
ATOM     25  N   UNL     1      31.728  -9.615 -21.223  0.00  0.00    -0.173 N 
ATOM     26  N   UNL     1      31.935  -8.692 -22.208  0.00  0.00    -0.175 NA
ATOM     27  C   UNL     1      32.311  -7.503 -21.863  0.00  0.00    +0.099 C 
ATOM     28  C   UNL     1      31.898  -9.348 -19.873  0.00  0.00    +0.268 C 
ATOM     29  C   UNL     1      32.558  -7.075 -20.473  0.00  0.00    +0.025 C 
ATOM     30  C   UNL     1      32.350  -7.985 -19.524  0.00  0.00    +0.061 C 
BRANCH  27  31
ATOM     31  C   UNL     1      32.535  -6.486 -22.925  0.00  0.00    +0.020 C 
ATOM     32  C   UNL     1      31.658  -5.410 -23.058  0.00  0.00    +0.012 C 
ATOM     33  C   UNL     1      33.623  -6.610 -23.790  0.00  0.00    +0.002 C 
ATOM     34  C   UNL     1      31.870  -4.457 -24.055  0.00  0.00    +0.068 C 
ATOM     35  C   UNL     1      33.835  -5.658 -24.787  0.00  0.00    +0.001 C 
ATOM     36  C   UNL     1      32.959  -4.581 -24.919  0.00  0.00    +0.010 C 
BRANCH  34  38
ATOM     37  N   UNL     1      30.243  -2.458 -24.303  0.00  0.00    -0.191 NA
ATOM     38  C   UNL     1      30.972  -3.354 -24.192  0.00  0.00    +0.100 C 
ENDBRANCH  34  38
ENDBRANCH  27  31
ENDBRANCH  23  25
ENDBRANCH   2  23
TORSDOF 8
ENDMDL
MODEL 4
REMARK VINA RESULT:     -12.6      1.987      3.922
REMARK  Name = 25171648
REMARK  8 active torsions:
REMARK  status: ('A' for Active; 'I' for Inactive)
REMARK    1  A    between atoms: C_1  and  C_12
REMARK    2  A    between atoms: C_2  and  C_23
REMARK    3  A    between atoms: C_9  and  O_13
REMARK    4  A    between atoms: O_13  and  C_14
REMARK    5  A    between atoms: C_14  and  C_16
REMARK    6  A    between atoms: C_23  and  N_25
REMARK    7  A    between atoms: C_27  and  C_31
REMARK    8  A    between atoms: C_34  and  C_38
REMARK                            x       y       z     vdW  Elec       q    Type
REMARK                         _______ _______ _______ _____ _____    ______ ____
ROOT
ATOM      1  C   UNL     1      34.472 -20.504 -20.595  0.00  0.00    +0.062 C 
ATOM      2  C   UNL     1      35.421 -21.942 -18.900  0.00  0.00    +0.000 C 
ATOM      3  C   UNL     1      35.582 -20.975 -19.894  0.00  0.00    +0.007 C 
ATOM      4  C   UNL     1      33.201 -20.999 -20.303  0.00  0.00    +0.010 C 
ATOM      5  C   UNL     1      34.150 -22.436 -18.609  0.00  0.00    -0.003 C 
ATOM      6  C   UNL     1      33.040 -21.965 -19.309  0.00  0.00    +0.000 C 
ENDROOT
BRANCH   1  12
ATOM      7  N   UNL     1      34.097 -19.782 -22.820  0.00  0.00    -0.212 NA
ATOM      8  N   UNL     1      35.319 -18.397 -21.273  0.00  0.00    -0.190 NA
ATOM      9  C   UNL     1      34.949 -17.645 -23.530  0.00  0.00    +0.161 C 
ATOM     10  C   UNL     1      34.272 -18.826 -23.756  0.00  0.00    +0.201 C 
ATOM     11  C   UNL     1      35.456 -17.483 -22.257  0.00  0.00    +0.144 C 
ATOM     12  C   UNL     1      34.638 -19.506 -21.620  0.00  0.00    +0.031 C 
BRANCH   9  13
ATOM     13  O   UNL     1      35.107 -16.694 -24.507  0.00  0.00    -0.476 OA
BRANCH  13  14
ATOM     14  C   UNL     1      33.972 -16.385 -25.294  0.00  0.00    +0.205 C 
BRANCH  14  16
ATOM     15  N   UNL     1      34.084 -12.147 -24.468  0.00  0.00    +0.386 N 
ATOM     16  C   UNL     1      33.496 -14.982 -24.930  0.00  0.00    +0.040 C 
ATOM     17  C   UNL     1      33.757 -13.998 -26.076  0.00  0.00    -0.019 C 
ATOM     18  C   UNL     1      34.179 -14.481 -23.653  0.00  0.00    -0.019 C 
ATOM     19  C   UNL     1      33.374 -12.570 -25.682  0.00  0.00    -0.077 C 
ATOM     20  C   UNL     1      33.781 -13.037 -23.339  0.00  0.00    -0.077 C 
ATOM     21  C   UNL     1      33.747 -10.763 -24.133  0.00  0.00    -0.101 C 
ATOM     22  H   UNL     1      35.085 -12.203 -24.654  0.00  0.00    -0.080 HD
ENDBRANCH  14  16
ENDBRANCH  13  14
ENDBRANCH   9  13
ENDBRANCH   1  12
BRANCH   2  23
ATOM     23  C   UNL     1      36.607 -22.446 -18.150  0.00  0.00    +0.146 C 
BRANCH  23  25
ATOM     24  O   UNL     1      38.425 -22.513 -15.936  0.00  0.00    -0.268 OA
ATOM     25  N   UNL     1      36.281 -22.812 -16.782  0.00  0.00    -0.173 N 
ATOM     26  N   UNL     1      34.976 -23.159 -16.578  0.00  0.00    -0.175 NA
ATOM     27  C   UNL     1      34.614 -23.503 -15.384  0.00  0.00    +0.099 C 
ATOM     28  C   UNL     1      37.240 -22.809 -15.780  0.00  0.00    +0.268 C 
ATOM     29  C   UNL     1      35.510 -23.525 -14.213  0.00  0.00    +0.025 C 
ATOM     30  C   UNL     1      36.779 -23.187 -14.427  0.00  0.00    +0.061 C 
BRANCH  27  31
ATOM     31  C   UNL     1      33.196 -23.888 -15.150  0.00  0.00    +0.020 C 
ATOM     32  C   UNL     1      32.185 -23.345 -15.943  0.00  0.00    +0.012 C 
ATOM     33  C   UNL     1      32.878 -24.794 -14.138  0.00  0.00    +0.002 C 
ATOM     34  C   UNL     1      30.856 -23.707 -15.723  0.00  0.00    +0.068 C 
ATOM     35  C   UNL     1      31.549 -25.157 -13.918  0.00  0.00    +0.001 C 
ATOM     36  C   UNL     1      30.538 -24.614 -14.710  0.00  0.00    +0.010 C 
BRANCH  34  38
ATOM     37  N   UNL     1      28.977 -22.698 -17.192  0.00  0.00    -0.191 NA
ATOM     38  C   UNL     1      29.819 -23.151 -16.534  0.00  0.00    +0.100 C 
ENDBRANCH  34  38
ENDBRANCH  27  31
ENDBRANCH  23  25
ENDBRANCH   2  23
TORSDOF 8
ENDMDL
MODEL 5
REMARK VINA RESULT:     -12.1      4.337     14.918
REMARK  Name = 25171648
REMARK  8 active torsions:
REMARK  status: ('A' for Active; 'I' for Inactive)
REMARK    1  A    between atoms: C_1  and  C_12
REMARK    2  A    between atoms: C_2  and  C_23
REMARK    3  A    between atoms: C_9  and  O_13
REMARK    4  A    between atoms: O_13  and  C_14
REMARK    5  A    between atoms: C_14  and  C_16
REMARK    6  A    between atoms: C_23  and  N_25
REMARK    7  A    between atoms: C_27  and  C_31
REMARK    8  A    between atoms: C_34  and  C_38
REMARK                            x       y       z     vdW  Elec       q    Type
REMARK                         _______ _______ _______ _____ _____    ______ ____
ROOT
ATOM      1  C   UNL     1      33.810 -12.219 -23.747  0.00  0.00    +0.062 C 
ATOM      2  C   UNL     1      32.564 -10.283 -23.012  0.00  0.00    +0.000 C 
ATOM      3  C   UNL     1      32.783 -11.661 -22.985  0.00  0.00    +0.007 C 
ATOM      4  C   UNL     1      34.616 -11.399 -24.537  0.00  0.00    +0.010 C 
ATOM      5  C   UNL     1      33.371  -9.464 -23.801  0.00  0.00    -0.003 C 
ATOM      6  C   UNL     1      34.398 -10.022 -24.563  0.00  0.00    +0.000 C 
ENDROOT
BRANCH   1  12
ATOM      7  N   UNL     1      33.554 -14.346 -24.760  0.00  0.00    -0.212 NA
ATOM      8  N   UNL     1      34.707 -14.122 -22.656  0.00  0.00    -0.190 NA
ATOM      9  C   UNL     1      34.458 -16.292 -23.667  0.00  0.00    +0.161 C 
ATOM     10  C   UNL     1      33.784 -15.675 -24.701  0.00  0.00    +0.201 C 
ATOM     11  C   UNL     1      34.902 -15.457 -22.662  0.00  0.00    +0.144 C 
ATOM     12  C   UNL     1      34.036 -13.641 -23.720  0.00  0.00    +0.031 C 
BRANCH   9  13
ATOM     13  O   UNL     1      34.674 -17.647 -23.641  0.00  0.00    -0.476 OA
BRANCH  13  14
ATOM     14  C   UNL     1      35.916 -18.091 -23.128  0.00  0.00    +0.205 C 
BRANCH  14  16
ATOM     15  N   UNL     1      35.635 -21.265 -20.212  0.00  0.00    +0.386 N 
ATOM     16  C   UNL     1      35.668 -18.801 -21.801  0.00  0.00    +0.040 C 
ATOM     17  C   UNL     1      36.950 -19.464 -21.283  0.00  0.00    -0.019 C 
ATOM     18  C   UNL     1      34.560 -19.851 -21.934  0.00  0.00    -0.019 C 
ATOM     19  C   UNL     1      36.687 -20.261 -20.004  0.00  0.00    -0.077 C 
ATOM     20  C   UNL     1      34.376 -20.635 -20.633  0.00  0.00    -0.077 C 
ATOM     21  C   UNL     1      35.432 -22.053 -18.996  0.00  0.00    -0.101 C 
ATOM     22  H   UNL     1      35.939 -21.889 -20.959  0.00  0.00    -0.080 HD
ENDBRANCH  14  16
ENDBRANCH  13  14
ENDBRANCH   9  13
ENDBRANCH   1  12
BRANCH   2  23
ATOM     23  C   UNL     1      31.467  -9.686 -22.197  0.00  0.00    +0.146 C 
BRANCH  23  25
ATOM     24  O   UNL     1      32.128  -8.981 -19.499  0.00  0.00    -0.268 OA
ATOM     25  N   UNL     1      31.799  -8.356 -21.713  0.00  0.00    -0.173 N 
ATOM     26  N   UNL     1      31.772  -7.378 -22.666  0.00  0.00    -0.175 NA
ATOM     27  C   UNL     1      32.051  -6.166 -22.306  0.00  0.00    +0.099 C 
ATOM     28  C   UNL     1      32.108  -8.123 -20.381  0.00  0.00    +0.268 C 
ATOM     29  C   UNL     1      32.422  -5.765 -20.936  0.00  0.00    +0.025 C 
ATOM     30  C   UNL     1      32.441  -6.729 -20.018  0.00  0.00    +0.061 C 
BRANCH  27  31
ATOM     31  C   UNL     1      32.020  -5.091 -23.333  0.00  0.00    +0.020 C 
ATOM     32  C   UNL     1      32.756  -5.228 -24.510  0.00  0.00    +0.012 C 
ATOM     33  C   UNL     1      31.253  -3.945 -23.120  0.00  0.00    +0.002 C 
ATOM     34  C   UNL     1      32.726  -4.218 -25.473  0.00  0.00    +0.068 C 
ATOM     35  C   UNL     1      31.223  -2.935 -24.082  0.00  0.00    +0.001 C 
ATOM     36  C   UNL     1      31.959  -3.072 -25.259  0.00  0.00    +0.010 C 
BRANCH  34  38
ATOM     37  N   UNL     1      34.094  -4.470 -27.657  0.00  0.00    -0.191 NA
ATOM     38  C   UNL     1      33.481  -4.357 -26.678  0.00  0.00    +0.100 C 
ENDBRANCH  34  38
ENDBRANCH  27  31
ENDBRANCH  23  25
ENDBRANCH   2  23
TORSDOF 8
ENDMDL
MODEL 6
REMARK VINA RESULT:     -12.0      4.000     14.659
REMARK  Name = 25171648
REMARK  8 active torsions:
REMARK  status: ('A' for Active; 'I' for Inactive)
REMARK    1  A    between atoms: C_1  and  C_12
REMARK    2  A    between atoms: C_2  and  C_23
REMARK    3  A    between atoms: C_9  and  O_13
REMARK    4  A    between atoms: O_13  and  C_14
REMARK    5  A    between atoms: C_14  and  C_16
REMARK    6  A    between atoms: C_23  and  N_25
REMARK    7  A    between atoms: C_27  and  C_31
REMARK    8  A    between atoms: C_34  and  C_38
REMARK                            x       y       z     vdW  Elec       q    Type
REMARK                         _______ _______ _______ _____ _____    ______ ____
ROOT
ATOM      1  C   UNL     1      33.309 -13.640 -21.916  0.00  0.00    +0.062 C 
ATOM      2  C   UNL     1      32.613 -11.603 -23.014  0.00  0.00    +0.000 C 
ATOM      3  C   UNL     1      33.356 -12.784 -23.017  0.00  0.00    +0.007 C 
ATOM      4  C   UNL     1      32.519 -13.314 -20.814  0.00  0.00    +0.010 C 
ATOM      5  C   UNL     1      31.824 -11.278 -21.912  0.00  0.00    -0.003 C 
ATOM      6  C   UNL     1      31.776 -12.134 -20.812  0.00  0.00    +0.000 C 
ENDROOT
BRANCH   1  12
ATOM      7  N   UNL     1      34.356 -15.395 -20.717  0.00  0.00    -0.212 NA
ATOM      8  N   UNL     1      34.436 -15.339 -23.125  0.00  0.00    -0.190 NA
ATOM      9  C   UNL     1      35.505 -17.131 -21.925  0.00  0.00    +0.161 C 
ATOM     10  C   UNL     1      35.075 -16.536 -20.757  0.00  0.00    +0.201 C 
ATOM     11  C   UNL     1      35.152 -16.482 -23.091  0.00  0.00    +0.144 C 
ATOM     12  C   UNL     1      34.076 -14.858 -21.919  0.00  0.00    +0.031 C 
BRANCH   9  13
ATOM     13  O   UNL     1      36.236 -18.294 -21.928  0.00  0.00    -0.476 OA
BRANCH  13  14
ATOM     14  C   UNL     1      35.535 -19.494 -22.193  0.00  0.00    +0.205 C 
BRANCH  14  16
ATOM     15  N   UNL     1      34.125 -22.400 -19.325  0.00  0.00    +0.386 N 
ATOM     16  C   UNL     1      35.081 -20.096 -20.866  0.00  0.00    +0.040 C 
ATOM     17  C   UNL     1      36.007 -21.239 -20.436  0.00  0.00    -0.019 C 
ATOM     18  C   UNL     1      33.638 -20.604 -20.956  0.00  0.00    -0.019 C 
ATOM     19  C   UNL     1      35.502 -21.914 -19.159  0.00  0.00    -0.077 C 
ATOM     20  C   UNL     1      33.212 -21.299 -19.660  0.00  0.00    -0.077 C 
ATOM     21  C   UNL     1      33.676 -23.087 -18.113  0.00  0.00    -0.101 C 
ATOM     22  H   UNL     1      34.117 -23.063 -20.099  0.00  0.00    -0.080 HD
ENDBRANCH  14  16
ENDBRANCH  13  14
ENDBRANCH   9  13
ENDBRANCH   1  12
BRANCH   2  23
ATOM     23  C   UNL     1      32.663 -10.687 -24.191  0.00  0.00    +0.146 C 
BRANCH  23  25
ATOM     24  O   UNL     1      35.488 -10.216 -24.083  0.00  0.00    -0.268 OA
ATOM     25  N   UNL     1      33.312  -9.424 -23.880  0.00  0.00    -0.173 N 
ATOM     26  N   UNL     1      32.458  -8.393 -23.611  0.00  0.00    -0.175 NA
ATOM     27  C   UNL     1      32.966  -7.239 -23.318  0.00  0.00    +0.099 C 
ATOM     28  C   UNL     1      34.694  -9.303 -23.857  0.00  0.00    +0.268 C 
ATOM     29  C   UNL     1      34.411  -6.948 -23.278  0.00  0.00    +0.025 C 
ATOM     30  C   UNL     1      35.231  -7.963 -23.541  0.00  0.00    +0.061 C 
BRANCH  27  31
ATOM     31  C   UNL     1      32.046  -6.109 -23.018  0.00  0.00    +0.020 C 
ATOM     32  C   UNL     1      31.971  -5.020 -23.886  0.00  0.00    +0.012 C 
ATOM     33  C   UNL     1      31.257  -6.140 -21.867  0.00  0.00    +0.002 C 
ATOM     34  C   UNL     1      31.108  -3.962 -23.603  0.00  0.00    +0.068 C 
ATOM     35  C   UNL     1      30.394  -5.081 -21.584  0.00  0.00    +0.001 C 
ATOM     36  C   UNL     1      30.319  -3.992 -22.453  0.00  0.00    +0.010 C 
BRANCH  34  38
ATOM     37  N   UNL     1      30.968  -1.938 -25.214  0.00  0.00    -0.191 NA
ATOM     38  C   UNL     1      31.031  -2.845 -24.492  0.00  0.00    +0.100 C 
ENDBRANCH  34  38
ENDBRANCH  27  31
ENDBRANCH  23  25
ENDBRANCH   2  23
TORSDOF 8
ENDMDL
MODEL 7
REMARK VINA RESULT:     -11.9      3.727     14.500
REMARK  Name = 25171648
REMARK  8 active torsions:
REMARK  status: ('A' for Active; 'I' for Inactive)
REMARK    1  A    between atoms: C_1  and  C_12
REMARK    2  A    between atoms: C_2  and  C_23
REMARK    3  A    between atoms: C_9  and  O_13
REMARK    4  A    between atoms: O_13  and  C_14
REMARK    5  A    between atoms: C_14  and  C_16
REMARK    6  A    between atoms: C_23  and  N_25
REMARK    7  A    between atoms: C_27  and  C_31
REMARK    8  A    between atoms: C_34  and  C_38
REMARK                            x       y       z     vdW  Elec       q    Type
REMARK                         _______ _______ _______ _____ _____    ______ ____
ROOT
ATOM      1  C   UNL     1      33.905 -14.275 -24.901  0.00  0.00    +0.062 C 
ATOM      2  C   UNL     1      34.011 -11.869 -24.697  0.00  0.00    +0.000 C 
ATOM      3  C   UNL     1      34.348 -13.138 -24.224  0.00  0.00    +0.007 C 
ATOM      4  C   UNL     1      33.124 -14.142 -26.049  0.00  0.00    +0.010 C 
ATOM      5  C   UNL     1      33.230 -11.738 -25.845  0.00  0.00    -0.003 C 
ATOM      6  C   UNL     1      32.788 -12.874 -26.522  0.00  0.00    +0.000 C 
ENDROOT
BRANCH   1  12
ATOM      7  N   UNL     1      34.925 -15.632 -23.248  0.00  0.00    -0.212 NA
ATOM      8  N   UNL     1      33.873 -16.629 -25.173  0.00  0.00    -0.190 NA
ATOM      9  C   UNL     1      34.903 -18.026 -23.506  0.00  0.00    +0.161 C 
ATOM     10  C   UNL     1      35.235 -16.874 -22.821  0.00  0.00    +0.201 C 
ATOM     11  C   UNL     1      34.214 -17.840 -24.687  0.00  0.00    +0.144 C 
ATOM     12  C   UNL     1      34.254 -15.584 -24.414  0.00  0.00    +0.031 C 
BRANCH   9  13
ATOM     13  O   UNL     1      35.234 -19.274 -23.040  0.00  0.00    -0.476 OA
BRANCH  13  14
ATOM     14  C   UNL     1      35.693 -19.363 -21.705  0.00  0.00    +0.205 C 
BRANCH  14  16
ATOM     15  N   UNL     1      34.003 -22.021 -18.749  0.00  0.00    +0.386 N 
ATOM     16  C   UNL     1      35.120 -20.629 -21.076  0.00  0.00    +0.040 C 
ATOM     17  C   UNL     1      33.683 -20.402 -20.592  0.00  0.00    -0.019 C 
ATOM     18  C   UNL     1      35.989 -21.108 -19.909  0.00  0.00    -0.019 C 
ATOM     19  C   UNL     1      33.136 -21.635 -19.871  0.00  0.00    -0.077 C 
ATOM     20  C   UNL     1      35.366 -22.319 -19.211  0.00  0.00    -0.077 C 
ATOM     21  C   UNL     1      33.440 -23.170 -18.039  0.00  0.00    -0.101 C 
ATOM     22  H   UNL     1      34.054 -21.232 -18.106  0.00  0.00    -0.080 HD
ENDBRANCH  14  16
ENDBRANCH  13  14
ENDBRANCH   9  13
ENDBRANCH   1  12
BRANCH   2  23
ATOM     23  C   UNL     1      34.484 -10.654 -23.973  0.00  0.00    +0.146 C 
BRANCH  23  25
ATOM     24  O   UNL     1      32.285 -11.477 -22.331  0.00  0.00    -0.268 OA
ATOM     25  N   UNL     1      33.385  -9.815 -23.525  0.00  0.00    -0.173 N 
ATOM     26  N   UNL     1      33.439  -8.521 -23.959  0.00  0.00    -0.175 NA
ATOM     27  C   UNL     1      32.489  -7.717 -23.606  0.00  0.00    +0.099 C 
ATOM     28  C   UNL     1      32.367 -10.315 -22.727  0.00  0.00    +0.268 C 
ATOM     29  C   UNL     1      31.355  -8.092 -22.741  0.00  0.00    +0.025 C 
ATOM     30  C   UNL     1      31.314  -9.357 -22.328  0.00  0.00    +0.061 C 
BRANCH  27  31
ATOM     31  C   UNL     1      32.534  -6.306 -24.076  0.00  0.00    +0.020 C 
ATOM     32  C   UNL     1      31.730  -5.342 -23.469  0.00  0.00    +0.012 C 
ATOM     33  C   UNL     1      33.382  -5.948 -25.125  0.00  0.00    +0.002 C 
ATOM     34  C   UNL     1      31.773  -4.019 -23.911  0.00  0.00    +0.068 C 
ATOM     35  C   UNL     1      33.425  -4.625 -25.567  0.00  0.00    +0.001 C 
ATOM     36  C   UNL     1      32.621  -3.661 -24.959  0.00  0.00    +0.010 C 
BRANCH  34  38
ATOM     37  N   UNL     1      30.280  -2.228 -22.785  0.00  0.00    -0.191 NA
ATOM     38  C   UNL     1      30.949  -3.031 -23.290  0.00  0.00    +0.100 C 
ENDBRANCH  34  38
ENDBRANCH  27  31
ENDBRANCH  23  25
ENDBRANCH   2  23
TORSDOF 8
ENDMDL
MODEL 8
REMARK VINA RESULT:     -11.4      5.581     16.038
REMARK  Name = 25171648
REMARK  8 active torsions:
REMARK  status: ('A' for Active; 'I' for Inactive)
REMARK    1  A    between atoms: C_1  and  C_12
REMARK    2  A    between atoms: C_2  and  C_23
REMARK    3  A    between atoms: C_9  and  O_13
REMARK    4  A    between atoms: O_13  and  C_14
REMARK    5  A    between atoms: C_14  and  C_16
REMARK    6  A    between atoms: C_23  and  N_25
REMARK    7  A    between atoms: C_27  and  C_31
REMARK    8  A    between atoms: C_34  and  C_38
REMARK                            x       y       z     vdW  Elec       q    Type
REMARK                         _______ _______ _______ _____ _____    ______ ____
ROOT
ATOM      1  C   UNL     1      33.575 -10.224 -24.050  0.00  0.00    +0.062 C 
ATOM      2  C   UNL     1      32.532  -8.147 -23.391  0.00  0.00    +0.000 C 
ATOM      3  C   UNL     1      32.427  -9.491 -23.752  0.00  0.00    +0.007 C 
ATOM      4  C   UNL     1      34.828  -9.614 -23.987  0.00  0.00    +0.010 C 
ATOM      5  C   UNL     1      33.784  -7.537 -23.328  0.00  0.00    -0.003 C 
ATOM      6  C   UNL     1      34.933  -8.271 -23.625  0.00  0.00    +0.000 C 
ENDROOT
BRANCH   1  12
ATOM      7  N   UNL     1      33.551 -11.888 -25.736  0.00  0.00    -0.212 NA
ATOM      8  N   UNL     1      33.293 -12.491 -23.417  0.00  0.00    -0.190 NA
ATOM      9  C   UNL     1      33.266 -14.197 -25.115  0.00  0.00    +0.161 C 
ATOM     10  C   UNL     1      33.446 -13.197 -26.049  0.00  0.00    +0.201 C 
ATOM     11  C   UNL     1      33.197 -13.781 -23.801  0.00  0.00    +0.144 C 
ATOM     12  C   UNL     1      33.467 -11.611 -24.422  0.00  0.00    +0.031 C 
BRANCH   9  13
ATOM     13  O   UNL     1      33.164 -15.519 -25.470  0.00  0.00    -0.476 OA
BRANCH  13  14
ATOM     14  C   UNL     1      34.348 -16.292 -25.422  0.00  0.00    +0.205 C 
BRANCH  14  16
ATOM     15  N   UNL     1      35.734 -18.879 -22.253  0.00  0.00    +0.386 N 
ATOM     16  C   UNL     1      34.347 -17.105 -24.131  0.00  0.00    +0.040 C 
ATOM     17  C   UNL     1      35.422 -16.599 -23.162  0.00  0.00    -0.019 C 
ATOM     18  C   UNL     1      34.568 -18.594 -24.417  0.00  0.00    -0.019 C 
ATOM     19  C   UNL     1      35.495 -17.471 -21.907  0.00  0.00    -0.077 C 
ATOM     20  C   UNL     1      34.668 -19.400 -23.120  0.00  0.00    -0.077 C 
ATOM     21  C   UNL     1      35.852 -19.691 -21.042  0.00  0.00    -0.101 C 
ATOM     22  H   UNL     1      36.612 -18.931 -22.769  0.00  0.00    -0.080 HD
ENDBRANCH  14  16
ENDBRANCH  13  14
ENDBRANCH   9  13
ENDBRANCH   1  12
BRANCH   2  23
ATOM     23  C   UNL     1      31.304  -7.361 -23.073  0.00  0.00    +0.146 C 
BRANCH  23  25
ATOM     24  O   UNL     1      30.297  -5.185 -21.504  0.00  0.00    -0.268 OA
ATOM     25  N   UNL     1      31.462  -5.947 -23.365  0.00  0.00    -0.173 N 
ATOM     26  N   UNL     1      32.154  -5.673 -24.510  0.00  0.00    -0.175 NA
ATOM     27  C   UNL     1      32.329  -4.433 -24.838  0.00  0.00    +0.099 C 
ATOM     28  C   UNL     1      30.935  -4.969 -22.534  0.00  0.00    +0.268 C 
ATOM     29  C   UNL     1      31.851  -3.284 -24.046  0.00  0.00    +0.025 C 
ATOM     30  C   UNL     1      31.176  -3.567 -22.934  0.00  0.00    +0.061 C 
BRANCH  27  31
ATOM     31  C   UNL     1      33.076  -4.122 -26.085  0.00  0.00    +0.020 C 
ATOM     32  C   UNL     1      34.372  -4.606 -26.262  0.00  0.00    +0.012 C 
ATOM     33  C   UNL     1      32.480  -3.345 -27.080  0.00  0.00    +0.002 C 
ATOM     34  C   UNL     1      35.072  -4.314 -27.433  0.00  0.00    +0.068 C 
ATOM     35  C   UNL     1      33.180  -3.053 -28.251  0.00  0.00    +0.001 C 
ATOM     36  C   UNL     1      34.476  -3.538 -28.427  0.00  0.00    +0.010 C 
BRANCH  34  38
ATOM     37  N   UNL     1      37.479  -5.212 -27.761  0.00  0.00    -0.191 NA
ATOM     38  C   UNL     1      36.401  -4.809 -27.614  0.00  0.00    +0.100 C 
ENDBRANCH  34  38
ENDBRANCH  27  31
ENDBRANCH  23  25
ENDBRANCH   2  23
TORSDOF 8
ENDMDL
MODEL 9
REMARK VINA RESULT:     -11.2      2.461      4.610
REMARK  Name = 25171648
REMARK  8 active torsions:
REMARK  status: ('A' for Active; 'I' for Inactive)
REMARK    1  A    between atoms: C_1  and  C_12
REMARK    2  A    between atoms: C_2  and  C_23
REMARK    3  A    between atoms: C_9  and  O_13
REMARK    4  A    between atoms: O_13  and  C_14
REMARK    5  A    between atoms: C_14  and  C_16
REMARK    6  A    between atoms: C_23  and  N_25
REMARK    7  A    between atoms: C_27  and  C_31
REMARK    8  A    between atoms: C_34  and  C_38
REMARK                            x       y       z     vdW  Elec       q    Type
REMARK                         _______ _______ _______ _____ _____    ______ ____
ROOT
ATOM      1  C   UNL     1      34.504 -17.092 -24.020  0.00  0.00    +0.062 C 
ATOM      2  C   UNL     1      35.430 -18.929 -22.753  0.00  0.00    +0.000 C 
ATOM      3  C   UNL     1      35.099 -17.578 -22.855  0.00  0.00    +0.007 C 
ATOM      4  C   UNL     1      34.242 -17.957 -25.082  0.00  0.00    +0.010 C 
ATOM      5  C   UNL     1      35.168 -19.794 -23.816  0.00  0.00    -0.003 C 
ATOM      6  C   UNL     1      34.572 -19.308 -24.979  0.00  0.00    +0.000 C 
ENDROOT
BRANCH   1  12
ATOM      7  N   UNL     1      34.537 -14.907 -23.102  0.00  0.00    -0.212 NA
ATOM      8  N   UNL     1      33.501 -15.322 -25.238  0.00  0.00    -0.190 NA
ATOM      9  C   UNL     1      33.524 -13.096 -24.322  0.00  0.00    +0.161 C 
ATOM     10  C   UNL     1      34.201 -13.607 -23.234  0.00  0.00    +0.201 C 
ATOM     11  C   UNL     1      33.197 -14.010 -25.304  0.00  0.00    +0.144 C 
ATOM     12  C   UNL     1      34.162 -15.697 -24.125  0.00  0.00    +0.031 C 
BRANCH   9  13
ATOM     13  O   UNL     1      33.199 -11.766 -24.423  0.00  0.00    -0.476 OA
BRANCH  13  14
ATOM     14  C   UNL     1      34.176 -10.831 -24.006  0.00  0.00    +0.205 C 
BRANCH  14  16
ATOM     15  N   UNL     1      32.893  -7.183 -22.082  0.00  0.00    +0.386 N 
ATOM     16  C   UNL     1      33.499  -9.479 -23.803  0.00  0.00    +0.040 C 
ATOM     17  C   UNL     1      34.531  -8.389 -23.490  0.00  0.00    -0.019 C 
ATOM     18  C   UNL     1      32.461  -9.546 -22.678  0.00  0.00    -0.019 C 
ATOM     19  C   UNL     1      33.854  -7.052 -23.186  0.00  0.00    -0.077 C 
ATOM     20  C   UNL     1      31.851  -8.169 -22.401  0.00  0.00    -0.077 C 
ATOM     21  C   UNL     1      32.292  -5.886 -21.770  0.00  0.00    -0.101 C 
ATOM     22  H   UNL     1      33.400  -7.515 -21.262  0.00  0.00    -0.080 HD
ENDBRANCH  14  16
ENDBRANCH  13  14
ENDBRANCH   9  13
ENDBRANCH   1  12
BRANCH   2  23
ATOM     23  C   UNL     1      36.067 -19.450 -21.508  0.00  0.00    +0.146 C 
BRANCH  23  25
ATOM     24  O   UNL     1      33.268 -19.818 -22.003  0.00  0.00    -0.268 OA
ATOM     25  N   UNL     1      35.154 -20.259 -20.719  0.00  0.00    -0.173 N 
ATOM     26  N   UNL     1      35.723 -20.878 -19.643  0.00  0.00    -0.175 NA
ATOM     27  C   UNL     1      34.969 -21.611 -18.888  0.00  0.00    +0.099 C 
ATOM     28  C   UNL     1      33.811 -20.372 -21.048  0.00  0.00    +0.268 C 
ATOM     29  C   UNL     1      33.532 -21.848 -19.122  0.00  0.00    +0.025 C 
ATOM     30  C   UNL     1      32.991 -21.237 -20.173  0.00  0.00    +0.061 C 
BRANCH  27  31
ATOM     31  C   UNL     1      35.576 -22.286 -17.710  0.00  0.00    +0.020 C 
ATOM     32  C   UNL     1      34.777 -23.034 -16.845  0.00  0.00    +0.012 C 
ATOM     33  C   UNL     1      36.946 -22.172 -17.471  0.00  0.00    +0.002 C 
ATOM     34  C   UNL     1      35.348 -23.667 -15.741  0.00  0.00    +0.068 C 
ATOM     35  C   UNL     1      37.517 -22.805 -16.367  0.00  0.00    +0.001 C 
ATOM     36  C   UNL     1      36.718 -23.553 -15.502  0.00  0.00    +0.010 C 
BRANCH  34  38
ATOM     37  N   UNL     1      33.865 -25.053 -14.133  0.00  0.00    -0.191 NA
ATOM     38  C   UNL     1      34.530 -24.432 -14.854  0.00  0.00    +0.100 C 
ENDBRANCH  34  38
ENDBRANCH  27  31
ENDBRANCH  23  25
ENDBRANCH   2  23
TORSDOF 8
ENDMDL
