MODEL 1
REMARK VINA RESULT:     -12.0      0.000      0.000
REMARK  Name = 24941248
REMARK  7 active torsions:
REMARK  status: ('A' for Active; 'I' for Inactive)
REMARK    1  A    between atoms: N_2  and  C_24
REMARK    2  A    between atoms: C_6  and  C_14
REMARK    3  A    between atoms: C_13  and  C_19
REMARK    4  A    between atoms: C_19  and  C_20
REMARK    5  A    between atoms: C_20  and  C_21
REMARK    6  A    between atoms: C_21  and  O_22
REMARK    7  A    between atoms: C_24  and  C_26
REMARK                            x       y       z     vdW  Elec       q    Type
REMARK                         _______ _______ _______ _____ _____    ______ ____
ROOT
ATOM      1  O   UNL     1      33.461 -16.273 -26.375  0.00  0.00    -0.352 OA
ATOM      2  N   UNL     1      35.743 -18.128 -21.811  0.00  0.00    -0.316 N 
ATOM      3  N   UNL     1      33.159 -14.954 -26.061  0.00  0.00    -0.077 NA
ATOM      4  N   UNL     1      35.057 -18.576 -24.046  0.00  0.00    -0.226 NA
ATOM      5  C   UNL     1      34.144 -15.957 -24.264  0.00  0.00    +0.062 A 
ATOM      6  C   UNL     1      33.573 -14.787 -24.801  0.00  0.00    +0.123 A 
ATOM      7  C   UNL     1      35.154 -17.687 -23.024  0.00  0.00    +0.129 C 
ATOM      8  C   UNL     1      34.721 -16.365 -23.060  0.00  0.00    +0.039 C 
ATOM      9  C   UNL     1      34.048 -16.867 -25.302  0.00  0.00    +0.196 A 
ATOM     10  C   UNL     1      34.496 -18.172 -25.212  0.00  0.00    +0.140 C 
ATOM     11  H   UNL     1      35.820 -17.491 -21.063  0.00  0.00    +0.148 HD
ENDROOT
BRANCH   6  14
ATOM     12 CL   UNL     1      34.683  -9.754 -24.642  0.00  0.00    -0.082 Cl
ATOM     13  C   UNL     1      32.460 -12.182 -22.370  0.00  0.00    -0.021 C 
ATOM     14  C   UNL     1      33.412 -13.515 -24.146  0.00  0.00    +0.021 C 
ATOM     15  C   UNL     1      32.617 -13.414 -23.004  0.00  0.00    -0.003 C 
ATOM     16  C   UNL     1      33.100 -11.051 -22.876  0.00  0.00    +0.007 C 
ATOM     17  C   UNL     1      34.051 -12.383 -24.652  0.00  0.00    +0.013 C 
ATOM     18  C   UNL     1      33.895 -11.151 -24.018  0.00  0.00    +0.057 C 
BRANCH  13  19
ATOM     19  C   UNL     1      31.609 -12.074 -21.150  0.00  0.00    +0.029 C 
BRANCH  19  20
ATOM     20  C   UNL     1      31.376 -10.617 -20.731  0.00  0.00    +0.036 C 
BRANCH  20  21
ATOM     21  C   UNL     1      31.958 -10.315 -19.358  0.00  0.00    +0.138 C 
BRANCH  21  22
ATOM     22  O   UNL     1      32.737  -9.129 -19.439  0.00  0.00    -0.382 OA
ATOM     23  H   UNL     1      33.342  -9.087 -18.683  0.00  0.00    +0.210 HD
ENDBRANCH  21  22
ENDBRANCH  20  21
ENDBRANCH  19  20
ENDBRANCH  13  19
ENDBRANCH   6  14
BRANCH   2  24
ATOM     24  C   UNL     1      36.230 -19.455 -21.630  0.00  0.00    +0.093 C 
ATOM     25  C   UNL     1      37.592 -19.409 -20.944  0.00  0.00    +0.026 C 
BRANCH  24  26
ATOM     26  C   UNL     1      35.215 -20.286 -20.875  0.00  0.00    -0.005 C 
ATOM     27  C   UNL     1      33.852 -20.088 -21.090  0.00  0.00    -0.003 C 
ATOM     28  C   UNL     1      35.644 -21.251 -19.962  0.00  0.00    -0.003 C 
ATOM     29  C   UNL     1      32.916 -20.853 -20.393  0.00  0.00    -0.000 C 
ATOM     30  C   UNL     1      34.709 -22.015 -19.265  0.00  0.00    -0.000 C 
ATOM     31  C   UNL     1      33.345 -21.818 -19.481  0.00  0.00    -0.000 C 
ENDBRANCH  24  26
ENDBRANCH   2  24
TORSDOF 7
ENDMDL
MODEL 2
REMARK VINA RESULT:     -11.3      1.863      2.612
REMARK  Name = 24941248
REMARK  7 active torsions:
REMARK  status: ('A' for Active; 'I' for Inactive)
REMARK    1  A    between atoms: N_2  and  C_24
REMARK    2  A    between atoms: C_6  and  C_14
REMARK    3  A    between atoms: C_13  and  C_19
REMARK    4  A    between atoms: C_19  and  C_20
REMARK    5  A    between atoms: C_20  and  C_21
REMARK    6  A    between atoms: C_21  and  O_22
REMARK    7  A    between atoms: C_24  and  C_26
REMARK                            x       y       z     vdW  Elec       q    Type
REMARK                         _______ _______ _______ _____ _____    ______ ____
ROOT
ATOM      1  O   UNL     1      33.336 -15.643 -26.493  0.00  0.00    -0.352 OA
ATOM      2  N   UNL     1      35.647 -17.782 -22.071  0.00  0.00    -0.316 N 
ATOM      3  N   UNL     1      33.049 -14.341 -26.099  0.00  0.00    -0.077 NA
ATOM      4  N   UNL     1      34.934 -18.092 -24.321  0.00  0.00    -0.226 NA
ATOM      5  C   UNL     1      34.044 -15.457 -24.375  0.00  0.00    +0.062 A 
ATOM      6  C   UNL     1      33.477 -14.252 -24.836  0.00  0.00    +0.123 A 
ATOM      7  C   UNL     1      35.049 -17.266 -23.250  0.00  0.00    +0.129 C 
ATOM      8  C   UNL     1      34.628 -15.940 -23.203  0.00  0.00    +0.039 C 
ATOM      9  C   UNL     1      33.928 -16.304 -25.463  0.00  0.00    +0.196 A 
ATOM     10  C   UNL     1      34.365 -17.615 -25.455  0.00  0.00    +0.140 C 
ATOM     11  H   UNL     1      35.737 -17.191 -21.287  0.00  0.00    +0.148 HD
ENDROOT
BRANCH   6  14
ATOM     12 CL   UNL     1      31.619 -11.780 -20.711  0.00  0.00    -0.082 Cl
ATOM     13  C   UNL     1      33.768 -10.653 -23.891  0.00  0.00    -0.021 C 
ATOM     14  C   UNL     1      33.335 -13.020 -24.105  0.00  0.00    +0.021 C 
ATOM     15  C   UNL     1      33.905 -11.847 -24.600  0.00  0.00    -0.003 C 
ATOM     16  C   UNL     1      33.061 -10.633 -22.689  0.00  0.00    +0.007 C 
ATOM     17  C   UNL     1      32.628 -12.999 -22.903  0.00  0.00    +0.013 C 
ATOM     18  C   UNL     1      32.491 -11.806 -22.195  0.00  0.00    +0.057 C 
BRANCH  13  19
ATOM     19  C   UNL     1      34.378  -9.399 -24.419  0.00  0.00    +0.029 C 
BRANCH  19  20
ATOM     20  C   UNL     1      34.681  -8.387 -23.306  0.00  0.00    +0.036 C 
BRANCH  20  21
ATOM     21  C   UNL     1      33.945  -7.070 -23.513  0.00  0.00    +0.138 C 
BRANCH  21  22
ATOM     22  O   UNL     1      34.727  -6.235 -24.356  0.00  0.00    -0.382 OA
ATOM     23  H   UNL     1      35.560  -6.682 -24.570  0.00  0.00    +0.210 HD
ENDBRANCH  21  22
ENDBRANCH  20  21
ENDBRANCH  19  20
ENDBRANCH  13  19
ENDBRANCH   6  14
BRANCH   2  24
ATOM     24  C   UNL     1      36.123 -19.123 -21.974  0.00  0.00    +0.093 C 
ATOM     25  C   UNL     1      37.532 -19.121 -21.385  0.00  0.00    +0.026 C 
BRANCH  24  26
ATOM     26  C   UNL     1      35.151 -19.966 -21.178  0.00  0.00    -0.005 C 
ATOM     27  C   UNL     1      35.628 -20.911 -20.271  0.00  0.00    -0.003 C 
ATOM     28  C   UNL     1      33.777 -19.798 -21.352  0.00  0.00    -0.003 C 
ATOM     29  C   UNL     1      34.732 -21.690 -19.537  0.00  0.00    -0.000 C 
ATOM     30  C   UNL     1      32.881 -20.576 -20.620  0.00  0.00    -0.000 C 
ATOM     31  C   UNL     1      33.358 -21.521 -19.711  0.00  0.00    -0.000 C 
ENDBRANCH  24  26
ENDBRANCH   2  24
TORSDOF 7
ENDMDL
MODEL 3
REMARK VINA RESULT:     -10.6      7.537     12.749
REMARK  Name = 24941248
REMARK  7 active torsions:
REMARK  status: ('A' for Active; 'I' for Inactive)
REMARK    1  A    between atoms: N_2  and  C_24
REMARK    2  A    between atoms: C_6  and  C_14
REMARK    3  A    between atoms: C_13  and  C_19
REMARK    4  A    between atoms: C_19  and  C_20
REMARK    5  A    between atoms: C_20  and  C_21
REMARK    6  A    between atoms: C_21  and  O_22
REMARK    7  A    between atoms: C_24  and  C_26
REMARK                            x       y       z     vdW  Elec       q    Type
REMARK                         _______ _______ _______ _____ _____    ______ ____
ROOT
ATOM      1  O   UNL     1      31.434 -24.062 -15.030  0.00  0.00    -0.352 OA
ATOM      2  N   UNL     1      34.547 -22.163 -19.053  0.00  0.00    -0.316 N 
ATOM      3  N   UNL     1      32.362 -24.531 -14.109  0.00  0.00    -0.077 NA
ATOM      4  N   UNL     1      32.352 -22.531 -18.205  0.00  0.00    -0.226 NA
ATOM      5  C   UNL     1      33.453 -23.670 -15.919  0.00  0.00    +0.062 A 
ATOM      6  C   UNL     1      33.557 -24.289 -14.657  0.00  0.00    +0.123 A 
ATOM      7  C   UNL     1      33.694 -22.646 -18.027  0.00  0.00    +0.129 C 
ATOM      8  C   UNL     1      34.315 -23.203 -16.913  0.00  0.00    +0.039 C 
ATOM      9  C   UNL     1      32.088 -23.550 -16.107  0.00  0.00    +0.196 A 
ATOM     10  C   UNL     1      31.523 -22.987 -17.235  0.00  0.00    +0.140 C 
ATOM     11  H   UNL     1      35.522 -22.241 -18.933  0.00  0.00    +0.148 HD
ENDROOT
BRANCH   6  14
ATOM     12 CL   UNL     1      36.274 -24.285 -10.276  0.00  0.00    -0.082 Cl
ATOM     13  C   UNL     1      36.948 -25.684 -13.962  0.00  0.00    -0.021 C 
ATOM     14  C   UNL     1      34.764 -24.653 -13.962  0.00  0.00    +0.021 C 
ATOM     15  C   UNL     1      35.780 -25.330 -14.636  0.00  0.00    -0.003 C 
ATOM     16  C   UNL     1      37.101 -25.361 -12.614  0.00  0.00    +0.007 C 
ATOM     17  C   UNL     1      34.917 -24.330 -12.613  0.00  0.00    +0.013 C 
ATOM     18  C   UNL     1      36.085 -24.684 -11.939  0.00  0.00    +0.057 C 
BRANCH  13  19
ATOM     19  C   UNL     1      38.035 -26.409 -14.683  0.00  0.00    +0.029 C 
BRANCH  19  20
ATOM     20  C   UNL     1      39.408 -26.192 -14.034  0.00  0.00    +0.036 C 
BRANCH  20  21
ATOM     21  C   UNL     1      40.363 -25.441 -14.950  0.00  0.00    +0.138 C 
BRANCH  21  22
ATOM     22  O   UNL     1      40.558 -26.203 -16.134  0.00  0.00    -0.382 OA
ATOM     23  H   UNL     1      39.727 -26.640 -16.377  0.00  0.00    +0.210 HD
ENDBRANCH  21  22
ENDBRANCH  20  21
ENDBRANCH  19  20
ENDBRANCH  13  19
ENDBRANCH   6  14
BRANCH   2  24
ATOM     24  C   UNL     1      34.051 -21.571 -20.250  0.00  0.00    +0.093 C 
ATOM     25  C   UNL     1      32.669 -20.975 -19.988  0.00  0.00    +0.026 C 
BRANCH  24  26
ATOM     26  C   UNL     1      35.040 -20.557 -20.782  0.00  0.00    -0.005 C 
ATOM     27  C   UNL     1      34.660 -19.673 -21.791  0.00  0.00    -0.003 C 
ATOM     28  C   UNL     1      36.334 -20.507 -20.262  0.00  0.00    -0.003 C 
ATOM     29  C   UNL     1      35.573 -18.739 -22.282  0.00  0.00    -0.000 C 
ATOM     30  C   UNL     1      37.247 -19.573 -20.753  0.00  0.00    -0.000 C 
ATOM     31  C   UNL     1      36.866 -18.688 -21.761  0.00  0.00    -0.000 C 
ENDBRANCH  24  26
ENDBRANCH   2  24
TORSDOF 7
ENDMDL
MODEL 4
REMARK VINA RESULT:      -9.3      3.090      8.493
REMARK  Name = 24941248
REMARK  7 active torsions:
REMARK  status: ('A' for Active; 'I' for Inactive)
REMARK    1  A    between atoms: N_2  and  C_24
REMARK    2  A    between atoms: C_6  and  C_14
REMARK    3  A    between atoms: C_13  and  C_19
REMARK    4  A    between atoms: C_19  and  C_20
REMARK    5  A    between atoms: C_20  and  C_21
REMARK    6  A    between atoms: C_21  and  O_22
REMARK    7  A    between atoms: C_24  and  C_26
REMARK                            x       y       z     vdW  Elec       q    Type
REMARK                         _______ _______ _______ _____ _____    ______ ____
ROOT
ATOM      1  O   UNL     1      33.318 -17.519 -26.275  0.00  0.00    -0.352 OA
ATOM      2  N   UNL     1      34.318 -12.913 -23.580  0.00  0.00    -0.316 N 
ATOM      3  N   UNL     1      33.762 -18.499 -25.397  0.00  0.00    -0.077 NA
ATOM      4  N   UNL     1      33.476 -13.952 -25.550  0.00  0.00    -0.226 NA
ATOM      5  C   UNL     1      34.085 -16.441 -24.466  0.00  0.00    +0.062 A 
ATOM      6  C   UNL     1      34.215 -17.837 -24.327  0.00  0.00    +0.123 A 
ATOM      7  C   UNL     1      34.038 -14.090 -24.321  0.00  0.00    +0.129 C 
ATOM      8  C   UNL     1      34.370 -15.299 -23.715  0.00  0.00    +0.039 C 
ATOM      9  C   UNL     1      33.512 -16.294 -25.717  0.00  0.00    +0.196 A 
ATOM     10  C   UNL     1      33.202 -15.066 -26.271  0.00  0.00    +0.140 C 
ATOM     11  H   UNL     1      34.725 -13.001 -22.687  0.00  0.00    +0.148 HD
ENDROOT
BRANCH   6  14
ATOM     12 CL   UNL     1      38.322 -19.049 -21.457  0.00  0.00    -0.082 Cl
ATOM     13  C   UNL     1      34.448 -20.034 -21.319  0.00  0.00    -0.021 C 
ATOM     14  C   UNL     1      34.757 -18.554 -23.203  0.00  0.00    +0.021 C 
ATOM     15  C   UNL     1      33.923 -19.340 -22.409  0.00  0.00    -0.003 C 
ATOM     16  C   UNL     1      35.809 -19.944 -21.025  0.00  0.00    +0.007 C 
ATOM     17  C   UNL     1      36.118 -18.464 -22.909  0.00  0.00    +0.013 C 
ATOM     18  C   UNL     1      36.644 -19.159 -21.820  0.00  0.00    +0.057 C 
BRANCH  13  19
ATOM     19  C   UNL     1      33.555 -20.873 -20.468  0.00  0.00    +0.029 C 
BRANCH  19  20
ATOM     20  C   UNL     1      34.345 -21.783 -19.518  0.00  0.00    +0.036 C 
BRANCH  20  21
ATOM     21  C   UNL     1      33.431 -22.590 -18.607  0.00  0.00    +0.138 C 
BRANCH  21  22
ATOM     22  O   UNL     1      33.773 -23.965 -18.715  0.00  0.00    -0.382 OA
ATOM     23  H   UNL     1      33.020 -24.508 -18.433  0.00  0.00    +0.210 HD
ENDBRANCH  21  22
ENDBRANCH  20  21
ENDBRANCH  19  20
ENDBRANCH  13  19
ENDBRANCH   6  14
BRANCH   2  24
ATOM     24  C   UNL     1      34.034 -11.607 -24.075  0.00  0.00    +0.093 C 
ATOM     25  C   UNL     1      33.622 -11.698 -25.543  0.00  0.00    +0.026 C 
BRANCH  24  26
ATOM     26  C   UNL     1      32.991 -10.934 -23.209  0.00  0.00    -0.005 C 
ATOM     27  C   UNL     1      32.805  -9.555 -23.286  0.00  0.00    -0.003 C 
ATOM     28  C   UNL     1      32.216 -11.694 -22.333  0.00  0.00    -0.003 C 
ATOM     29  C   UNL     1      31.844  -8.934 -22.487  0.00  0.00    -0.000 C 
ATOM     30  C   UNL     1      31.255 -11.074 -21.535  0.00  0.00    -0.000 C 
ATOM     31  C   UNL     1      31.069  -9.694 -21.612  0.00  0.00    -0.000 C 
ENDBRANCH  24  26
ENDBRANCH   2  24
TORSDOF 7
ENDMDL
MODEL 5
REMARK VINA RESULT:      -9.1      4.237     10.292
REMARK  Name = 24941248
REMARK  7 active torsions:
REMARK  status: ('A' for Active; 'I' for Inactive)
REMARK    1  A    between atoms: N_2  and  C_24
REMARK    2  A    between atoms: C_6  and  C_14
REMARK    3  A    between atoms: C_13  and  C_19
REMARK    4  A    between atoms: C_19  and  C_20
REMARK    5  A    between atoms: C_20  and  C_21
REMARK    6  A    between atoms: C_21  and  O_22
REMARK    7  A    between atoms: C_24  and  C_26
REMARK                            x       y       z     vdW  Elec       q    Type
REMARK                         _______ _______ _______ _____ _____    ______ ____
ROOT
ATOM      1  O   UNL     1      31.747 -12.288 -19.963  0.00  0.00    -0.352 OA
ATOM      2  N   UNL     1      32.670  -8.315 -23.546  0.00  0.00    -0.316 N 
ATOM      3  N   UNL     1      32.233 -13.416 -20.613  0.00  0.00    -0.077 NA
ATOM      4  N   UNL     1      31.823  -8.947 -21.412  0.00  0.00    -0.226 NA
ATOM      5  C   UNL     1      32.516 -11.587 -21.948  0.00  0.00    +0.062 A 
ATOM      6  C   UNL     1      32.685 -12.978 -21.792  0.00  0.00    +0.123 A 
ATOM      7  C   UNL     1      32.409  -9.321 -22.579  0.00  0.00    +0.129 C 
ATOM      8  C   UNL     1      32.783 -10.618 -22.916  0.00  0.00    +0.039 C 
ATOM      9  C   UNL     1      31.918 -11.201 -20.761  0.00  0.00    +0.196 A 
ATOM     10  C   UNL     1      31.568  -9.895 -20.477  0.00  0.00    +0.140 C 
ATOM     11  H   UNL     1      33.096  -8.574 -24.396  0.00  0.00    +0.148 HD
ENDROOT
BRANCH   6  14
ATOM     12 CL   UNL     1      33.089 -14.592 -26.672  0.00  0.00    -0.082 Cl
ATOM     13  C   UNL     1      34.722 -15.763 -23.213  0.00  0.00    -0.021 C 
ATOM     14  C   UNL     1      33.265 -13.896 -22.736  0.00  0.00    +0.021 C 
ATOM     15  C   UNL     1      34.158 -14.874 -22.298  0.00  0.00    -0.003 C 
ATOM     16  C   UNL     1      34.391 -15.676 -24.565  0.00  0.00    +0.007 C 
ATOM     17  C   UNL     1      32.934 -13.809 -24.088  0.00  0.00    +0.013 C 
ATOM     18  C   UNL     1      33.497 -14.699 -25.003  0.00  0.00    +0.057 C 
BRANCH  13  19
ATOM     19  C   UNL     1      35.678 -16.808 -22.746  0.00  0.00    +0.029 C 
BRANCH  19  20
ATOM     20  C   UNL     1      35.309 -17.357 -21.361  0.00  0.00    +0.036 C 
BRANCH  20  21
ATOM     21  C   UNL     1      35.638 -18.836 -21.224  0.00  0.00    +0.138 C 
BRANCH  21  22
ATOM     22  O   UNL     1      36.846 -18.972 -20.487  0.00  0.00    -0.382 OA
ATOM     23  H   UNL     1      37.036 -18.141 -20.024  0.00  0.00    +0.210 HD
ENDBRANCH  21  22
ENDBRANCH  20  21
ENDBRANCH  19  20
ENDBRANCH  13  19
ENDBRANCH   6  14
BRANCH   2  24
ATOM     24  C   UNL     1      32.339  -6.944 -23.338  0.00  0.00    +0.093 C 
ATOM     25  C   UNL     1      32.682  -6.550 -21.903  0.00  0.00    +0.026 C 
BRANCH  24  26
ATOM     26  C   UNL     1      33.027  -6.077 -24.370  0.00  0.00    -0.005 C 
ATOM     27  C   UNL     1      32.334  -5.031 -24.976  0.00  0.00    -0.003 C 
ATOM     28  C   UNL     1      34.356  -6.325 -24.714  0.00  0.00    -0.003 C 
ATOM     29  C   UNL     1      32.968  -4.232 -25.928  0.00  0.00    -0.000 C 
ATOM     30  C   UNL     1      34.991  -5.527 -25.665  0.00  0.00    -0.000 C 
ATOM     31  C   UNL     1      34.297  -4.479 -26.271  0.00  0.00    -0.000 C 
ENDBRANCH  24  26
ENDBRANCH   2  24
TORSDOF 7
ENDMDL
