MODEL 1
REMARK VINA RESULT:     -11.8      0.000      0.000
REMARK  Name = 5289110
REMARK  6 active torsions:
REMARK  status: ('A' for Active; 'I' for Inactive)
REMARK    1  A    between atoms: C_3  and  C_9
REMARK    2  A    between atoms: C_4  and  C_22
REMARK    3  A    between atoms: N_8  and  C_11
REMARK    4  A    between atoms: C_11  and  C_13
REMARK    5  A    between atoms: N_21  and  C_24
REMARK    6  A    between atoms: C_24  and  C_26
REMARK                            x       y       z     vdW  Elec       q    Type
REMARK                         _______ _______ _______ _____ _____    ______ ____
ROOT
ATOM      1  N   UNL     1      36.585 -24.627 -13.536  0.00  0.00    -0.244 NA
ATOM      2  N   UNL     1      37.971 -23.584 -15.209  0.00  0.00    -0.244 NA
ATOM      3  C   UNL     1      35.548 -23.897 -13.993  0.00  0.00    +0.115 C 
ATOM      4  C   UNL     1      36.886 -22.906 -15.590  0.00  0.00    +0.115 C 
ATOM      5  C   UNL     1      35.642 -23.002 -15.041  0.00  0.00    +0.100 C 
ATOM      6  C   UNL     1      37.751 -24.423 -14.179  0.00  0.00    +0.250 C 
ENDROOT
BRANCH   3   9
ATOM      7  O   UNL     1      34.210 -24.834 -12.310  0.00  0.00    -0.269 OA
ATOM      8  N   UNL     1      33.167 -23.423 -13.826  0.00  0.00    -0.296 N 
ATOM      9  C   UNL     1      34.281 -24.101 -13.313  0.00  0.00    +0.260 C 
ATOM     10  H   UNL     1      33.292 -22.860 -14.623  0.00  0.00    +0.150 HD
BRANCH   8  11
ATOM     11  C   UNL     1      31.845 -23.505 -13.249  0.00  0.00    +0.117 C 
BRANCH  11  13
ATOM     12  F   UNL     1      28.013 -25.186 -17.003  0.00  0.00    -0.205 F 
ATOM     13  C   UNL     1      30.821 -23.951 -14.253  0.00  0.00    -0.003 C 
ATOM     14  C   UNL     1      29.916 -23.031 -14.768  0.00  0.00    -0.005 C 
ATOM     15  C   UNL     1      28.965 -23.445 -15.701  0.00  0.00    +0.005 C 
ATOM     16  C   UNL     1      30.787 -25.282 -14.655  0.00  0.00    -0.000 C 
ATOM     17  C   UNL     1      28.924 -24.779 -16.110  0.00  0.00    +0.136 C 
ATOM     18  C   UNL     1      29.835 -25.696 -15.587  0.00  0.00    +0.029 C 
ATOM     19  C   UNL     1      27.993 -22.461 -16.258  0.00  0.00    +0.033 C 
ENDBRANCH  11  13
ENDBRANCH   8  11
ENDBRANCH   3   9
BRANCH   4  22
ATOM     20  O   UNL     1      37.623 -20.878 -16.508  0.00  0.00    -0.269 OA
ATOM     21  N   UNL     1      36.728 -22.434 -17.976  0.00  0.00    -0.296 N 
ATOM     22  C   UNL     1      37.108 -21.973 -16.724  0.00  0.00    +0.260 C 
ATOM     23  H   UNL     1      36.323 -23.329 -18.048  0.00  0.00    +0.150 HD
BRANCH  21  24
ATOM     24  C   UNL     1      36.902 -21.655 -19.176  0.00  0.00    +0.117 C 
BRANCH  24  26
ATOM     25  F   UNL     1      31.992 -20.172 -21.479  0.00  0.00    -0.205 F 
ATOM     26  C   UNL     1      35.601 -21.260 -19.789  0.00  0.00    -0.003 C 
ATOM     27  C   UNL     1      35.578 -20.388 -20.878  0.00  0.00    -0.005 C 
ATOM     28  C   UNL     1      34.361 -20.019 -21.450  0.00  0.00    +0.005 C 
ATOM     29  C   UNL     1      34.406 -21.763 -19.274  0.00  0.00    -0.000 C 
ATOM     30  C   UNL     1      33.167 -20.521 -20.935  0.00  0.00    +0.136 C 
ATOM     31  C   UNL     1      33.189 -21.393 -19.846  0.00  0.00    +0.029 C 
ATOM     32  C   UNL     1      34.341 -19.086 -22.615  0.00  0.00    +0.033 C 
ENDBRANCH  24  26
ENDBRANCH  21  24
ENDBRANCH   4  22
TORSDOF 6
ENDMDL
MODEL 2
REMARK VINA RESULT:     -11.7      7.001     11.824
REMARK  Name = 5289110
REMARK  6 active torsions:
REMARK  status: ('A' for Active; 'I' for Inactive)
REMARK    1  A    between atoms: C_3  and  C_9
REMARK    2  A    between atoms: C_4  and  C_22
REMARK    3  A    between atoms: N_8  and  C_11
REMARK    4  A    between atoms: C_11  and  C_13
REMARK    5  A    between atoms: N_21  and  C_24
REMARK    6  A    between atoms: C_24  and  C_26
REMARK                            x       y       z     vdW  Elec       q    Type
REMARK                         _______ _______ _______ _____ _____    ______ ____
ROOT
ATOM      1  N   UNL     1      33.567 -16.135 -25.806  0.00  0.00    -0.244 NA
ATOM      2  N   UNL     1      34.618 -17.840 -24.466  0.00  0.00    -0.244 NA
ATOM      3  C   UNL     1      33.847 -15.247 -24.829  0.00  0.00    +0.115 C 
ATOM      4  C   UNL     1      34.850 -16.889 -23.557  0.00  0.00    +0.115 C 
ATOM      5  C   UNL     1      34.501 -15.575 -23.658  0.00  0.00    +0.100 C 
ATOM      6  C   UNL     1      33.975 -17.395 -25.561  0.00  0.00    +0.250 C 
ENDROOT
BRANCH   3   9
ATOM      7  O   UNL     1      32.763 -13.595 -26.092  0.00  0.00    -0.269 OA
ATOM      8  N   UNL     1      33.750 -12.927 -24.104  0.00  0.00    -0.296 N 
ATOM      9  C   UNL     1      33.416 -13.882 -25.073  0.00  0.00    +0.260 C 
ATOM     10  H   UNL     1      34.269 -13.222 -23.321  0.00  0.00    +0.150 HD
BRANCH   8  11
ATOM     11  C   UNL     1      33.376 -11.534 -24.190  0.00  0.00    +0.117 C 
BRANCH  11  13
ATOM     12  F   UNL     1      30.983  -9.716 -19.438  0.00  0.00    -0.205 F 
ATOM     13  C   UNL     1      32.736 -11.046 -22.922  0.00  0.00    -0.003 C 
ATOM     14  C   UNL     1      32.711  -9.684 -22.644  0.00  0.00    -0.005 C 
ATOM     15  C   UNL     1      32.117  -9.230 -21.466  0.00  0.00    +0.005 C 
ATOM     16  C   UNL     1      32.178 -11.961 -22.037  0.00  0.00    -0.000 C 
ATOM     17  C   UNL     1      31.554 -10.143 -20.572  0.00  0.00    +0.136 C 
ATOM     18  C   UNL     1      31.584 -11.507 -20.859  0.00  0.00    +0.029 C 
ATOM     19  C   UNL     1      32.085  -7.770 -21.164  0.00  0.00    +0.033 C 
ENDBRANCH  11  13
ENDBRANCH   8  11
ENDBRANCH   3   9
BRANCH   4  22
ATOM     20  O   UNL     1      35.399 -16.755 -21.281  0.00  0.00    -0.269 OA
ATOM     21  N   UNL     1      36.346 -18.491 -22.491  0.00  0.00    -0.296 N 
ATOM     22  C   UNL     1      35.558 -17.360 -22.338  0.00  0.00    +0.260 C 
ATOM     23  H   UNL     1      36.411 -18.907 -23.382  0.00  0.00    +0.150 HD
BRANCH  21  24
ATOM     24  C   UNL     1      37.075 -19.082 -21.398  0.00  0.00    +0.117 C 
BRANCH  24  26
ATOM     25  F   UNL     1      34.032 -22.891 -18.598  0.00  0.00    -0.205 F 
ATOM     26  C   UNL     1      36.265 -20.092 -20.656  0.00  0.00    -0.003 C 
ATOM     27  C   UNL     1      34.881 -20.134 -20.822  0.00  0.00    -0.005 C 
ATOM     28  C   UNL     1      34.124 -21.078 -20.128  0.00  0.00    +0.005 C 
ATOM     29  C   UNL     1      36.892 -20.995 -19.798  0.00  0.00    -0.000 C 
ATOM     30  C   UNL     1      34.751 -21.980 -19.269  0.00  0.00    +0.136 C 
ATOM     31  C   UNL     1      36.135 -21.938 -19.103  0.00  0.00    +0.029 C 
ATOM     32  C   UNL     1      32.643 -21.121 -20.308  0.00  0.00    +0.033 C 
ENDBRANCH  24  26
ENDBRANCH  21  24
ENDBRANCH   4  22
TORSDOF 6
ENDMDL
MODEL 3
REMARK VINA RESULT:     -11.6      7.323     10.591
REMARK  Name = 5289110
REMARK  6 active torsions:
REMARK  status: ('A' for Active; 'I' for Inactive)
REMARK    1  A    between atoms: C_3  and  C_9
REMARK    2  A    between atoms: C_4  and  C_22
REMARK    3  A    between atoms: N_8  and  C_11
REMARK    4  A    between atoms: C_11  and  C_13
REMARK    5  A    between atoms: N_21  and  C_24
REMARK    6  A    between atoms: C_24  and  C_26
REMARK                            x       y       z     vdW  Elec       q    Type
REMARK                         _______ _______ _______ _____ _____    ______ ____
ROOT
ATOM      1  N   UNL     1      35.098 -16.502 -20.636  0.00  0.00    -0.244 NA
ATOM      2  N   UNL     1      34.283 -14.388 -21.458  0.00  0.00    -0.244 NA
ATOM      3  C   UNL     1      35.189 -16.922 -21.914  0.00  0.00    +0.115 C 
ATOM      4  C   UNL     1      34.409 -14.894 -22.687  0.00  0.00    +0.115 C 
ATOM      5  C   UNL     1      34.852 -16.144 -23.004  0.00  0.00    +0.100 C 
ATOM      6  C   UNL     1      34.643 -15.244 -20.482  0.00  0.00    +0.250 C 
ENDROOT
BRANCH   3   9
ATOM      7  O   UNL     1      36.059 -18.663 -23.222  0.00  0.00    -0.269 OA
ATOM      8  N   UNL     1      35.716 -19.102 -20.971  0.00  0.00    -0.296 N 
ATOM      9  C   UNL     1      35.678 -18.277 -22.102  0.00  0.00    +0.260 C 
ATOM     10  H   UNL     1      35.398 -18.733 -20.116  0.00  0.00    +0.150 HD
BRANCH   8  11
ATOM     11  C   UNL     1      36.195 -20.465 -20.991  0.00  0.00    +0.117 C 
BRANCH  11  13
ATOM     12  F   UNL     1      34.293 -23.427 -16.607  0.00  0.00    -0.205 F 
ATOM     13  C   UNL     1      35.690 -21.255 -19.818  0.00  0.00    -0.003 C 
ATOM     14  C   UNL     1      36.552 -21.564 -18.773  0.00  0.00    -0.005 C 
ATOM     15  C   UNL     1      36.083 -22.298 -17.684  0.00  0.00    +0.005 C 
ATOM     16  C   UNL     1      34.364 -21.672 -19.791  0.00  0.00    -0.000 C 
ATOM     17  C   UNL     1      34.753 -22.720 -17.648  0.00  0.00    +0.136 C 
ATOM     18  C   UNL     1      33.894 -22.406 -18.701  0.00  0.00    +0.029 C 
ATOM     19  C   UNL     1      37.004 -22.630 -16.559  0.00  0.00    +0.033 C 
ENDBRANCH  11  13
ENDBRANCH   8  11
ENDBRANCH   3   9
BRANCH   4  22
ATOM     20  O   UNL     1      33.472 -14.418 -24.784  0.00  0.00    -0.269 OA
ATOM     21  N   UNL     1      34.278 -12.621 -23.559  0.00  0.00    -0.296 N 
ATOM     22  C   UNL     1      34.015 -13.966 -23.779  0.00  0.00    +0.260 C 
ATOM     23  H   UNL     1      34.718 -12.356 -22.719  0.00  0.00    +0.150 HD
BRANCH  21  24
ATOM     24  C   UNL     1      33.932 -11.598 -24.513  0.00  0.00    +0.117 C 
BRANCH  24  26
ATOM     25  F   UNL     1      32.585  -6.739 -22.027  0.00  0.00    -0.205 F 
ATOM     26  C   UNL     1      33.577 -10.306 -23.855  0.00  0.00    -0.003 C 
ATOM     27  C   UNL     1      34.260  -9.139 -24.195  0.00  0.00    -0.005 C 
ATOM     28  C   UNL     1      33.927  -7.932 -23.579  0.00  0.00    +0.005 C 
ATOM     29  C   UNL     1      32.561 -10.267 -22.900  0.00  0.00    -0.000 C 
ATOM     30  C   UNL     1      32.912  -7.893 -22.624  0.00  0.00    +0.136 C 
ATOM     31  C   UNL     1      32.229  -9.061 -22.284  0.00  0.00    +0.029 C 
ATOM     32  C   UNL     1      34.659  -6.685 -23.946  0.00  0.00    +0.033 C 
ENDBRANCH  24  26
ENDBRANCH  21  24
ENDBRANCH   4  22
TORSDOF 6
ENDMDL
MODEL 4
REMARK VINA RESULT:     -11.6      7.329     12.386
REMARK  Name = 5289110
REMARK  6 active torsions:
REMARK  status: ('A' for Active; 'I' for Inactive)
REMARK    1  A    between atoms: C_3  and  C_9
REMARK    2  A    between atoms: C_4  and  C_22
REMARK    3  A    between atoms: N_8  and  C_11
REMARK    4  A    between atoms: C_11  and  C_13
REMARK    5  A    between atoms: N_21  and  C_24
REMARK    6  A    between atoms: C_24  and  C_26
REMARK                            x       y       z     vdW  Elec       q    Type
REMARK                         _______ _______ _______ _____ _____    ______ ____
ROOT
ATOM      1  N   UNL     1      34.282 -14.404 -21.457  0.00  0.00    -0.244 NA
ATOM      2  N   UNL     1      35.102 -16.515 -20.634  0.00  0.00    -0.244 NA
ATOM      3  C   UNL     1      34.407 -14.886 -22.710  0.00  0.00    +0.115 C 
ATOM      4  C   UNL     1      35.190 -16.902 -21.909  0.00  0.00    +0.115 C 
ATOM      5  C   UNL     1      34.865 -16.155 -23.003  0.00  0.00    +0.100 C 
ATOM      6  C   UNL     1      34.642 -15.259 -20.481  0.00  0.00    +0.250 C 
ENDROOT
BRANCH   3   9
ATOM      7  O   UNL     1      33.488 -14.412 -24.815  0.00  0.00    -0.269 OA
ATOM      8  N   UNL     1      34.263 -12.615 -23.573  0.00  0.00    -0.296 N 
ATOM      9  C   UNL     1      34.023 -13.979 -23.779  0.00  0.00    +0.260 C 
ATOM     10  H   UNL     1      34.690 -12.340 -22.729  0.00  0.00    +0.150 HD
BRANCH   8  11
ATOM     11  C   UNL     1      33.918 -11.588 -24.529  0.00  0.00    +0.117 C 
BRANCH  11  13
ATOM     12  F   UNL     1      32.651  -6.724 -22.011  0.00  0.00    -0.205 F 
ATOM     13  C   UNL     1      33.581 -10.287 -23.859  0.00  0.00    -0.003 C 
ATOM     14  C   UNL     1      34.271  -9.133 -24.209  0.00  0.00    -0.005 C 
ATOM     15  C   UNL     1      33.958  -7.925 -23.587  0.00  0.00    +0.005 C 
ATOM     16  C   UNL     1      32.582 -10.250 -22.892  0.00  0.00    -0.000 C 
ATOM     17  C   UNL     1      32.957  -7.879 -22.616  0.00  0.00    +0.136 C 
ATOM     18  C   UNL     1      32.269  -9.042 -22.269  0.00  0.00    +0.029 C 
ATOM     19  C   UNL     1      34.695  -6.683 -23.961  0.00  0.00    +0.033 C 
ENDBRANCH  11  13
ENDBRANCH   8  11
ENDBRANCH   3   9
BRANCH   4  22
ATOM     20  O   UNL     1      36.086 -18.633 -23.213  0.00  0.00    -0.269 OA
ATOM     21  N   UNL     1      35.714 -19.089 -20.970  0.00  0.00    -0.296 N 
ATOM     22  C   UNL     1      35.697 -18.285 -22.100  0.00  0.00    +0.260 C 
ATOM     23  H   UNL     1      35.380 -18.719 -20.121  0.00  0.00    +0.150 HD
BRANCH  21  24
ATOM     24  C   UNL     1      36.199 -20.446 -20.989  0.00  0.00    +0.117 C 
BRANCH  24  26
ATOM     25  F   UNL     1      34.369 -23.431 -16.591  0.00  0.00    -0.205 F 
ATOM     26  C   UNL     1      35.717 -21.238 -19.821  0.00  0.00    -0.003 C 
ATOM     27  C   UNL     1      36.588 -21.540 -18.775  0.00  0.00    -0.005 C 
ATOM     28  C   UNL     1      36.136 -22.281 -17.683  0.00  0.00    +0.005 C 
ATOM     29  C   UNL     1      34.393 -21.675 -19.774  0.00  0.00    -0.000 C 
ATOM     30  C   UNL     1      34.813 -22.718 -17.636  0.00  0.00    +0.136 C 
ATOM     31  C   UNL     1      33.941 -22.416 -18.682  0.00  0.00    +0.029 C 
ATOM     32  C   UNL     1      37.071 -22.602 -16.565  0.00  0.00    +0.033 C 
ENDBRANCH  24  26
ENDBRANCH  21  24
ENDBRANCH   4  22
TORSDOF 6
ENDMDL
MODEL 5
REMARK VINA RESULT:     -11.4      8.484     13.364
REMARK  Name = 5289110
REMARK  6 active torsions:
REMARK  status: ('A' for Active; 'I' for Inactive)
REMARK    1  A    between atoms: C_3  and  C_9
REMARK    2  A    between atoms: C_4  and  C_22
REMARK    3  A    between atoms: N_8  and  C_11
REMARK    4  A    between atoms: C_11  and  C_13
REMARK    5  A    between atoms: N_21  and  C_24
REMARK    6  A    between atoms: C_24  and  C_26
REMARK                            x       y       z     vdW  Elec       q    Type
REMARK                         _______ _______ _______ _____ _____    ______ ____
ROOT
ATOM      1  N   UNL     1      32.891 -13.495 -24.083  0.00  0.00    -0.244 NA
ATOM      2  N   UNL     1      34.211 -15.510 -24.017  0.00  0.00    -0.244 NA
ATOM      3  C   UNL     1      33.072 -13.377 -22.752  0.00  0.00    +0.115 C 
ATOM      4  C   UNL     1      34.334 -15.308 -22.702  0.00  0.00    +0.115 C 
ATOM      5  C   UNL     1      33.800 -14.273 -21.993  0.00  0.00    +0.100 C 
ATOM      6  C   UNL     1      33.479 -14.570 -24.643  0.00  0.00    +0.250 C 
ENDROOT
BRANCH   3   9
ATOM      7  O   UNL     1      31.910 -12.323 -21.009  0.00  0.00    -0.269 OA
ATOM      8  N   UNL     1      32.497 -11.015 -22.830  0.00  0.00    -0.296 N 
ATOM      9  C   UNL     1      32.446 -12.225 -22.127  0.00  0.00    +0.260 C 
ATOM     10  H   UNL     1      32.937 -11.007 -23.711  0.00  0.00    +0.150 HD
BRANCH   8  11
ATOM     11  C   UNL     1      31.942  -9.776 -22.333  0.00  0.00    +0.117 C 
BRANCH  11  13
ATOM     12  F   UNL     1      34.474  -5.294 -24.592  0.00  0.00    -0.205 F 
ATOM     13  C   UNL     1      32.616  -8.577 -22.936  0.00  0.00    -0.003 C 
ATOM     14  C   UNL     1      31.877  -7.429 -23.193  0.00  0.00    -0.005 C 
ATOM     15  C   UNL     1      32.503  -6.315 -23.752  0.00  0.00    +0.005 C 
ATOM     16  C   UNL     1      33.973  -8.628 -23.232  0.00  0.00    -0.000 C 
ATOM     17  C   UNL     1      33.865  -6.358 -24.053  0.00  0.00    +0.136 C 
ATOM     18  C   UNL     1      34.599  -7.514 -23.792  0.00  0.00    +0.029 C 
ATOM     19  C   UNL     1      31.714  -5.079 -24.029  0.00  0.00    +0.033 C 
ENDBRANCH  11  13
ENDBRANCH   8  11
ENDBRANCH   3   9
BRANCH   4  22
ATOM     20  O   UNL     1      35.296 -16.239 -20.777  0.00  0.00    -0.269 OA
ATOM     21  N   UNL     1      35.637 -17.366 -22.775  0.00  0.00    -0.296 N 
ATOM     22  C   UNL     1      35.137 -16.336 -21.992  0.00  0.00    +0.260 C 
ATOM     23  H   UNL     1      35.455 -17.356 -23.743  0.00  0.00    +0.150 HD
BRANCH  21  24
ATOM     24  C   UNL     1      36.414 -18.450 -22.228  0.00  0.00    +0.117 C 
BRANCH  24  26
ATOM     25  F   UNL     1      33.240 -22.111 -19.378  0.00  0.00    -0.205 F 
ATOM     26  C   UNL     1      35.574 -19.422 -21.470  0.00  0.00    -0.003 C 
ATOM     27  C   UNL     1      36.156 -20.241 -20.503  0.00  0.00    -0.005 C 
ATOM     28  C   UNL     1      35.370 -21.151 -19.794  0.00  0.00    +0.005 C 
ATOM     29  C   UNL     1      34.206 -19.512 -21.728  0.00  0.00    -0.000 C 
ATOM     30  C   UNL     1      34.003 -21.240 -20.053  0.00  0.00    +0.136 C 
ATOM     31  C   UNL     1      33.421 -20.421 -21.021  0.00  0.00    +0.029 C 
ATOM     32  C   UNL     1      35.996 -22.025 -18.760  0.00  0.00    +0.033 C 
ENDBRANCH  24  26
ENDBRANCH  21  24
ENDBRANCH   4  22
TORSDOF 6
ENDMDL
MODEL 6
REMARK VINA RESULT:     -11.3     10.602     15.513
REMARK  Name = 5289110
REMARK  6 active torsions:
REMARK  status: ('A' for Active; 'I' for Inactive)
REMARK    1  A    between atoms: C_3  and  C_9
REMARK    2  A    between atoms: C_4  and  C_22
REMARK    3  A    between atoms: N_8  and  C_11
REMARK    4  A    between atoms: C_11  and  C_13
REMARK    5  A    between atoms: N_21  and  C_24
REMARK    6  A    between atoms: C_24  and  C_26
REMARK                            x       y       z     vdW  Elec       q    Type
REMARK                         _______ _______ _______ _____ _____    ______ ____
ROOT
ATOM      1  N   UNL     1      31.626 -11.153 -20.772  0.00  0.00    -0.244 NA
ATOM      2  N   UNL     1      32.313 -13.103 -22.009  0.00  0.00    -0.244 NA
ATOM      3  C   UNL     1      32.098 -10.392 -21.781  0.00  0.00    +0.115 C 
ATOM      4  C   UNL     1      32.751 -12.268 -22.954  0.00  0.00    +0.115 C 
ATOM      5  C   UNL     1      32.683 -10.906 -22.921  0.00  0.00    +0.100 C 
ATOM      6  C   UNL     1      31.765 -12.480 -20.949  0.00  0.00    +0.250 C 
ENDROOT
BRANCH   3   9
ATOM      7  O   UNL     1      32.100  -8.434 -20.491  0.00  0.00    -0.269 OA
ATOM      8  N   UNL     1      31.683  -8.204 -22.760  0.00  0.00    -0.296 N 
ATOM      9  C   UNL     1      31.958  -8.956 -21.611  0.00  0.00    +0.260 C 
ATOM     10  H   UNL     1      31.583  -8.680 -23.615  0.00  0.00    +0.150 HD
BRANCH   8  11
ATOM     11  C   UNL     1      31.538  -6.766 -22.759  0.00  0.00    +0.117 C 
BRANCH  11  13
ATOM     12  F   UNL     1      34.995  -4.314 -26.452  0.00  0.00    -0.205 F 
ATOM     13  C   UNL     1      32.460  -6.108 -23.745  0.00  0.00    -0.003 C 
ATOM     14  C   UNL     1      32.027  -4.995 -24.456  0.00  0.00    -0.005 C 
ATOM     15  C   UNL     1      32.883  -4.385 -25.373  0.00  0.00    +0.005 C 
ATOM     16  C   UNL     1      33.738  -6.621 -23.939  0.00  0.00    -0.000 C 
ATOM     17  C   UNL     1      34.167  -4.893 -25.573  0.00  0.00    +0.136 C 
ATOM     18  C   UNL     1      34.594  -6.010 -24.856  0.00  0.00    +0.029 C 
ATOM     19  C   UNL     1      32.423  -3.189 -26.136  0.00  0.00    +0.033 C 
ENDBRANCH  11  13
ENDBRANCH   8  11
ENDBRANCH   3   9
BRANCH   4  22
ATOM     20  O   UNL     1      34.193 -12.327 -24.803  0.00  0.00    -0.269 OA
ATOM     21  N   UNL     1      32.952 -14.238 -24.375  0.00  0.00    -0.296 N 
ATOM     22  C   UNL     1      33.363 -12.935 -24.132  0.00  0.00    +0.260 C 
ATOM     23  H   UNL     1      32.279 -14.641 -23.779  0.00  0.00    +0.150 HD
BRANCH  21  24
ATOM     24  C   UNL     1      33.472 -15.025 -25.464  0.00  0.00    +0.117 C 
BRANCH  24  26
ATOM     25  F   UNL     1      35.039 -20.172 -23.834  0.00  0.00    -0.205 F 
ATOM     26  C   UNL     1      33.890 -16.390 -25.029  0.00  0.00    -0.003 C 
ATOM     27  C   UNL     1      34.707 -16.546 -23.910  0.00  0.00    -0.005 C 
ATOM     28  C   UNL     1      35.097 -17.822 -23.504  0.00  0.00    +0.005 C 
ATOM     29  C   UNL     1      33.461 -17.510 -25.741  0.00  0.00    -0.000 C 
ATOM     30  C   UNL     1      34.669 -18.942 -24.217  0.00  0.00    +0.136 C 
ATOM     31  C   UNL     1      33.852 -18.786 -25.336  0.00  0.00    +0.029 C 
ATOM     32  C   UNL     1      35.972 -17.985 -22.306  0.00  0.00    +0.033 C 
ENDBRANCH  24  26
ENDBRANCH  21  24
ENDBRANCH   4  22
TORSDOF 6
ENDMDL
MODEL 7
REMARK VINA RESULT:     -11.2      6.030     11.033
REMARK  Name = 5289110
REMARK  6 active torsions:
REMARK  status: ('A' for Active; 'I' for Inactive)
REMARK    1  A    between atoms: C_3  and  C_9
REMARK    2  A    between atoms: C_4  and  C_22
REMARK    3  A    between atoms: N_8  and  C_11
REMARK    4  A    between atoms: C_11  and  C_13
REMARK    5  A    between atoms: N_21  and  C_24
REMARK    6  A    between atoms: C_24  and  C_26
REMARK                            x       y       z     vdW  Elec       q    Type
REMARK                         _______ _______ _______ _____ _____    ______ ____
ROOT
ATOM      1  N   UNL     1      33.890 -17.808 -25.423  0.00  0.00    -0.244 NA
ATOM      2  N   UNL     1      34.717 -19.455 -23.871  0.00  0.00    -0.244 NA
ATOM      3  C   UNL     1      34.209 -16.855 -24.524  0.00  0.00    +0.115 C 
ATOM      4  C   UNL     1      34.997 -18.442 -23.048  0.00  0.00    +0.115 C 
ATOM      5  C   UNL     1      34.778 -17.119 -23.294  0.00  0.00    +0.100 C 
ATOM      6  C   UNL     1      34.166 -19.068 -25.037  0.00  0.00    +0.250 C 
ENDROOT
BRANCH   3   9
ATOM      7  O   UNL     1      33.492 -15.235 -26.061  0.00  0.00    -0.269 OA
ATOM      8  N   UNL     1      34.123 -14.490 -23.958  0.00  0.00    -0.296 N 
ATOM      9  C   UNL     1      33.919 -15.488 -24.920  0.00  0.00    +0.260 C 
ATOM     10  H   UNL     1      34.464 -14.758 -23.075  0.00  0.00    +0.150 HD
BRANCH   8  11
ATOM     11  C   UNL     1      33.860 -13.088 -24.191  0.00  0.00    +0.117 C 
BRANCH  11  13
ATOM     12  F   UNL     1      30.876 -10.798 -20.013  0.00  0.00    -0.205 F 
ATOM     13  C   UNL     1      33.062 -12.474 -23.077  0.00  0.00    -0.003 C 
ATOM     14  C   UNL     1      32.773 -11.115 -23.106  0.00  0.00    -0.005 C 
ATOM     15  C   UNL     1      32.032 -10.544 -22.071  0.00  0.00    +0.005 C 
ATOM     16  C   UNL     1      32.623 -13.271 -22.026  0.00  0.00    -0.000 C 
ATOM     17  C   UNL     1      31.587 -11.337 -21.012  0.00  0.00    +0.136 C 
ATOM     18  C   UNL     1      31.882 -12.700 -20.991  0.00  0.00    +0.029 C 
ATOM     19  C   UNL     1      31.717  -9.086 -22.098  0.00  0.00    +0.033 C 
ENDBRANCH  11  13
ENDBRANCH   8  11
ENDBRANCH   3   9
BRANCH   4  22
ATOM     20  O   UNL     1      35.952 -17.981 -20.955  0.00  0.00    -0.269 OA
ATOM     21  N   UNL     1      35.712 -20.214 -21.534  0.00  0.00    -0.296 N 
ATOM     22  C   UNL     1      35.604 -18.848 -21.754  0.00  0.00    +0.260 C 
ATOM     23  H   UNL     1      35.405 -20.832 -22.237  0.00  0.00    +0.150 HD
BRANCH  21  24
ATOM     24  C   UNL     1      36.257 -20.764 -20.319  0.00  0.00    +0.117 C 
BRANCH  24  26
ATOM     25  F   UNL     1      32.354 -23.385 -17.237  0.00  0.00    -0.205 F 
ATOM     26  C   UNL     1      35.223 -21.461 -19.499  0.00  0.00    -0.003 C 
ATOM     27  C   UNL     1      35.597 -22.157 -18.350  0.00  0.00    -0.005 C 
ATOM     28  C   UNL     1      34.630 -22.809 -17.584  0.00  0.00    +0.005 C 
ATOM     29  C   UNL     1      33.883 -21.414 -19.881  0.00  0.00    -0.000 C 
ATOM     30  C   UNL     1      33.290 -22.763 -17.967  0.00  0.00    +0.136 C 
ATOM     31  C   UNL     1      32.916 -22.066 -19.116  0.00  0.00    +0.029 C 
ATOM     32  C   UNL     1      35.033 -23.552 -16.355  0.00  0.00    +0.033 C 
ENDBRANCH  24  26
ENDBRANCH  21  24
ENDBRANCH   4  22
TORSDOF 6
ENDMDL
MODEL 8
REMARK VINA RESULT:     -11.2     10.631     14.804
REMARK  Name = 5289110
REMARK  6 active torsions:
REMARK  status: ('A' for Active; 'I' for Inactive)
REMARK    1  A    between atoms: C_3  and  C_9
REMARK    2  A    between atoms: C_4  and  C_22
REMARK    3  A    between atoms: N_8  and  C_11
REMARK    4  A    between atoms: C_11  and  C_13
REMARK    5  A    between atoms: N_21  and  C_24
REMARK    6  A    between atoms: C_24  and  C_26
REMARK                            x       y       z     vdW  Elec       q    Type
REMARK                         _______ _______ _______ _____ _____    ______ ____
ROOT
ATOM      1  N   UNL     1      32.244 -13.035 -22.079  0.00  0.00    -0.244 NA
ATOM      2  N   UNL     1      31.616 -11.062 -20.846  0.00  0.00    -0.244 NA
ATOM      3  C   UNL     1      32.758 -12.231 -23.032  0.00  0.00    +0.115 C 
ATOM      4  C   UNL     1      32.151 -10.350 -21.841  0.00  0.00    +0.115 C 
ATOM      5  C   UNL     1      32.740 -10.852 -22.964  0.00  0.00    +0.100 C 
ATOM      6  C   UNL     1      31.695 -12.393 -21.029  0.00  0.00    +0.250 C 
ENDROOT
BRANCH   3   9
ATOM      7  O   UNL     1      34.213 -12.330 -24.868  0.00  0.00    -0.269 OA
ATOM      8  N   UNL     1      32.934 -14.214 -24.430  0.00  0.00    -0.296 N 
ATOM      9  C   UNL     1      33.354 -12.902 -24.173  0.00  0.00    +0.260 C 
ATOM     10  H   UNL     1      32.251 -14.607 -23.841  0.00  0.00    +0.150 HD
BRANCH   8  11
ATOM     11  C   UNL     1      33.449 -15.021 -25.512  0.00  0.00    +0.117 C 
BRANCH  11  13
ATOM     12  F   UNL     1      35.041 -20.123 -23.767  0.00  0.00    -0.205 F 
ATOM     13  C   UNL     1      33.875 -16.383 -25.043  0.00  0.00    -0.003 C 
ATOM     14  C   UNL     1      34.706 -16.500 -23.935  0.00  0.00    -0.005 C 
ATOM     15  C   UNL     1      35.102 -17.765 -23.500  0.00  0.00    +0.005 C 
ATOM     16  C   UNL     1      33.436 -17.513 -25.724  0.00  0.00    -0.000 C 
ATOM     17  C   UNL     1      34.665 -18.904 -24.177  0.00  0.00    +0.136 C 
ATOM     18  C   UNL     1      33.832 -18.777 -25.289  0.00  0.00    +0.029 C 
ATOM     19  C   UNL     1      35.992 -17.897 -22.310  0.00  0.00    +0.033 C 
ENDBRANCH  11  13
ENDBRANCH   8  11
ENDBRANCH   3   9
BRANCH   4  22
ATOM     20  O   UNL     1      32.317  -8.395 -20.556  0.00  0.00    -0.269 OA
ATOM     21  N   UNL     1      31.740  -8.142 -22.788  0.00  0.00    -0.296 N 
ATOM     22  C   UNL     1      32.072  -8.878 -21.660  0.00  0.00    +0.260 C 
ATOM     23  H   UNL     1      31.561  -8.621 -23.630  0.00  0.00    +0.150 HD
BRANCH  21  24
ATOM     24  C   UNL     1      31.648  -6.704 -22.777  0.00  0.00    +0.117 C 
BRANCH  24  26
ATOM     25  F   UNL     1      35.056  -4.323 -26.561  0.00  0.00    -0.205 F 
ATOM     26  C   UNL     1      32.550  -6.070 -23.782  0.00  0.00    -0.003 C 
ATOM     27  C   UNL     1      32.101  -4.986 -24.537  0.00  0.00    -0.005 C 
ATOM     28  C   UNL     1      32.946  -4.394 -25.477  0.00  0.00    +0.005 C 
ATOM     29  C   UNL     1      33.842  -6.561 -23.966  0.00  0.00    -0.000 C 
ATOM     30  C   UNL     1      34.238  -4.886 -25.661  0.00  0.00    +0.136 C 
ATOM     31  C   UNL     1      34.686  -5.969 -24.906  0.00  0.00    +0.029 C 
ATOM     32  C   UNL     1      32.463  -3.235 -26.283  0.00  0.00    +0.033 C 
ENDBRANCH  24  26
ENDBRANCH  21  24
ENDBRANCH   4  22
TORSDOF 6
ENDMDL
MODEL 9
REMARK VINA RESULT:     -11.1      9.884     14.813
REMARK  Name = 5289110
REMARK  6 active torsions:
REMARK  status: ('A' for Active; 'I' for Inactive)
REMARK    1  A    between atoms: C_3  and  C_9
REMARK    2  A    between atoms: C_4  and  C_22
REMARK    3  A    between atoms: N_8  and  C_11
REMARK    4  A    between atoms: C_11  and  C_13
REMARK    5  A    between atoms: N_21  and  C_24
REMARK    6  A    between atoms: C_24  and  C_26
REMARK                            x       y       z     vdW  Elec       q    Type
REMARK                         _______ _______ _______ _____ _____    ______ ____
ROOT
ATOM      1  N   UNL     1      32.929 -11.478 -22.744  0.00  0.00    -0.244 NA
ATOM      2  N   UNL     1      32.630 -13.868 -22.816  0.00  0.00    -0.244 NA
ATOM      3  C   UNL     1      33.782 -11.590 -23.783  0.00  0.00    +0.115 C 
ATOM      4  C   UNL     1      33.487 -13.877 -23.841  0.00  0.00    +0.115 C 
ATOM      5  C   UNL     1      34.105 -12.790 -24.384  0.00  0.00    +0.100 C 
ATOM      6  C   UNL     1      32.398 -12.639 -22.317  0.00  0.00    +0.250 C 
ENDROOT
BRANCH   3   9
ATOM      7  O   UNL     1      35.082 -10.335 -25.277  0.00  0.00    -0.269 OA
ATOM      8  N   UNL     1      34.069  -9.187 -23.537  0.00  0.00    -0.296 N 
ATOM      9  C   UNL     1      34.367 -10.349 -24.259  0.00  0.00    +0.260 C 
ATOM     10  H   UNL     1      33.497  -9.269 -22.740  0.00  0.00    +0.150 HD
BRANCH   8  11
ATOM     11  C   UNL     1      34.555  -7.874 -23.896  0.00  0.00    +0.117 C 
BRANCH  11  13
ATOM     12  F   UNL     1      30.857  -3.843 -22.599  0.00  0.00    -0.205 F 
ATOM     13  C   UNL     1      33.567  -6.796 -23.553  0.00  0.00    -0.003 C 
ATOM     14  C   UNL     1      33.354  -5.749 -24.441  0.00  0.00    -0.005 C 
ATOM     15  C   UNL     1      32.437  -4.748 -24.122  0.00  0.00    +0.005 C 
ATOM     16  C   UNL     1      32.876  -6.856 -22.348  0.00  0.00    -0.000 C 
ATOM     17  C   UNL     1      31.739  -4.801 -22.915  0.00  0.00    +0.136 C 
ATOM     18  C   UNL     1      31.958  -5.855 -22.029  0.00  0.00    +0.029 C 
ATOM     19  C   UNL     1      32.204  -3.622 -25.073  0.00  0.00    +0.033 C 
ENDBRANCH  11  13
ENDBRANCH   8  11
ENDBRANCH   3   9
BRANCH   4  22
ATOM     20  O   UNL     1      33.300 -15.517 -25.507  0.00  0.00    -0.269 OA
ATOM     21  N   UNL     1      34.552 -16.060 -23.631  0.00  0.00    -0.296 N 
ATOM     22  C   UNL     1      33.759 -15.224 -24.405  0.00  0.00    +0.260 C 
ATOM     23  H   UNL     1      34.873 -15.734 -22.760  0.00  0.00    +0.150 HD
BRANCH  21  24
ATOM     24  C   UNL     1      34.923 -17.387 -24.053  0.00  0.00    +0.117 C 
BRANCH  24  26
ATOM     25  F   UNL     1      36.156 -20.742 -19.714  0.00  0.00    -0.205 F 
ATOM     26  C   UNL     1      35.247 -18.278 -22.902  0.00  0.00    -0.003 C 
ATOM     27  C   UNL     1      34.250 -19.066 -22.327  0.00  0.00    -0.005 C 
ATOM     28  C   UNL     1      34.554 -19.899 -21.250  0.00  0.00    +0.005 C 
ATOM     29  C   UNL     1      36.548 -18.324 -22.400  0.00  0.00    -0.000 C 
ATOM     30  C   UNL     1      35.854 -19.944 -20.749  0.00  0.00    +0.136 C 
ATOM     31  C   UNL     1      36.852 -19.156 -21.323  0.00  0.00    +0.029 C 
ATOM     32  C   UNL     1      33.485 -20.741 -20.638  0.00  0.00    +0.033 C 
ENDBRANCH  24  26
ENDBRANCH  21  24
ENDBRANCH   4  22
TORSDOF 6
ENDMDL
