MODEL 1
REMARK VINA RESULT:     -10.7      0.000      0.000
REMARK  Name = 16741245
REMARK  7 active torsions:
REMARK  status: ('A' for Active; 'I' for Inactive)
REMARK    1  A    between atoms: C_2  and  S_20
REMARK    2  A    between atoms: C_3  and  N_9
REMARK    3  A    between atoms: C_10  and  C_12
REMARK    4  A    between atoms: C_12  and  C_17
REMARK    5  A    between atoms: C_12  and  O_18
REMARK    6  A    between atoms: S_20  and  C_23
REMARK    7  A    between atoms: C_26  and  C_31
REMARK                            x       y       z     vdW  Elec       q    Type
REMARK                         _______ _______ _______ _____ _____    ______ ____
ROOT
ATOM      1 CL   UNL     1      32.699 -12.970 -21.465  0.00  0.00    -0.081 Cl
ATOM      2  C   UNL     1      33.585 -14.704 -24.951  0.00  0.00    +0.111 C 
ATOM      3  C   UNL     1      33.158 -12.126 -24.021  0.00  0.00    +0.061 C 
ATOM      4  C   UNL     1      33.284 -14.488 -23.606  0.00  0.00    +0.031 C 
ATOM      5  C   UNL     1      33.671 -13.622 -25.827  0.00  0.00    +0.020 C 
ATOM      6  C   UNL     1      33.069 -13.192 -23.138  0.00  0.00    +0.072 C 
ATOM      7  C   UNL     1      33.456 -12.326 -25.360  0.00  0.00    +0.017 C 
ENDROOT
BRANCH   3   9
ATOM      8  O   UNL     1      35.019  -9.786 -23.968  0.00  0.00    -0.272 OA
ATOM      9  N   UNL     1      32.945 -10.799 -23.578  0.00  0.00    -0.281 N 
ATOM     10  C   UNL     1      33.854  -9.747 -23.576  0.00  0.00    +0.259 C 
ATOM     11  H   UNL     1      32.047 -10.597 -23.229  0.00  0.00    +0.155 HD
BRANCH  10  12
ATOM     12  C   UNL     1      33.257  -8.444 -23.015  0.00  0.00    +0.245 C 
ATOM     13  C   UNL     1      31.829  -8.225 -23.514  0.00  0.00    +0.048 C 
BRANCH  12  17
ATOM     14  F   UNL     1      35.350  -7.343 -22.715  0.00  0.00    -0.167 F 
ATOM     15  F   UNL     1      33.572  -6.098 -22.878  0.00  0.00    -0.167 F 
ATOM     16  F   UNL     1      34.355  -7.110 -24.643  0.00  0.00    -0.167 F 
ATOM     17  C   UNL     1      34.144  -7.244 -23.314  0.00  0.00    +0.427 C 
ENDBRANCH  12  17
BRANCH  12  18
ATOM     18  O   UNL     1      33.210  -8.580 -21.594  0.00  0.00    -0.372 OA
ATOM     19  H   UNL     1      34.071  -8.336 -21.219  0.00  0.00    +0.211 HD
ENDBRANCH  12  18
ENDBRANCH  10  12
ENDBRANCH   3   9
BRANCH   2  20
ATOM     20  S   UNL     1      33.855 -16.326 -25.536  0.00  0.00    +0.027 S 
ATOM     21  O   UNL     1      34.878 -16.294 -26.573  0.00  0.00    -0.164 OA
ATOM     22  O   UNL     1      32.541 -16.878 -25.835  0.00  0.00    -0.164 OA
BRANCH  20  23
ATOM     23  C   UNL     1      34.560 -17.287 -24.224  0.00  0.00    +0.110 C 
ATOM     24  C   UNL     1      34.450 -18.663 -24.268  0.00  0.00    +0.019 C 
ATOM     25  C   UNL     1      35.203 -16.637 -23.187  0.00  0.00    +0.019 C 
ATOM     26  C   UNL     1      35.656 -18.785 -22.178  0.00  0.00    +0.054 C 
ATOM     27  C   UNL     1      35.003 -19.420 -23.235  0.00  0.00    +0.006 C 
ATOM     28  C   UNL     1      35.756 -17.394 -22.155  0.00  0.00    +0.006 C 
BRANCH  26  31
ATOM     29  O   UNL     1      37.436 -19.400 -20.862  0.00  0.00    -0.270 OA
ATOM     30  N   UNL     1      35.417 -20.488 -20.413  0.00  0.00    -0.273 N 
ATOM     31  C   UNL     1      36.234 -19.574 -21.102  0.00  0.00    +0.249 C 
ATOM     32  C   UNL     1      34.002 -20.662 -20.732  0.00  0.00    +0.115 C 
ATOM     33  C   UNL     1      35.927 -21.325 -19.336  0.00  0.00    +0.115 C 
ENDBRANCH  26  31
ENDBRANCH  20  23
ENDBRANCH   2  20
TORSDOF 7
ENDMDL
MODEL 2
REMARK VINA RESULT:     -10.5      1.649      1.921
REMARK  Name = 16741245
REMARK  7 active torsions:
REMARK  status: ('A' for Active; 'I' for Inactive)
REMARK    1  A    between atoms: C_2  and  S_20
REMARK    2  A    between atoms: C_3  and  N_9
REMARK    3  A    between atoms: C_10  and  C_12
REMARK    4  A    between atoms: C_12  and  C_17
REMARK    5  A    between atoms: C_12  and  O_18
REMARK    6  A    between atoms: S_20  and  C_23
REMARK    7  A    between atoms: C_26  and  C_31
REMARK                            x       y       z     vdW  Elec       q    Type
REMARK                         _______ _______ _______ _____ _____    ______ ____
ROOT
ATOM      1 CL   UNL     1      32.348 -12.357 -21.280  0.00  0.00    -0.081 Cl
ATOM      2  C   UNL     1      33.519 -13.856 -24.791  0.00  0.00    +0.111 C 
ATOM      3  C   UNL     1      33.302 -11.347 -23.630  0.00  0.00    +0.061 C 
ATOM      4  C   UNL     1      33.047 -13.730 -23.484  0.00  0.00    +0.031 C 
ATOM      5  C   UNL     1      33.883 -12.719 -25.513  0.00  0.00    +0.020 C 
ATOM      6  C   UNL     1      32.938 -12.468 -22.901  0.00  0.00    +0.072 C 
ATOM      7  C   UNL     1      33.773 -11.457 -24.930  0.00  0.00    +0.017 C 
ENDROOT
BRANCH   3   9
ATOM      8  O   UNL     1      30.900  -9.814 -22.723  0.00  0.00    -0.272 OA
ATOM      9  N   UNL     1      33.203 -10.052 -23.067  0.00  0.00    -0.281 N 
ATOM     10  C   UNL     1      32.052  -9.386 -22.663  0.00  0.00    +0.259 C 
ATOM     11  H   UNL     1      34.050  -9.564 -22.949  0.00  0.00    +0.155 HD
BRANCH  10  12
ATOM     12  C   UNL     1      32.341  -7.985 -22.096  0.00  0.00    +0.245 C 
ATOM     13  C   UNL     1      33.552  -7.347 -22.778  0.00  0.00    +0.048 C 
BRANCH  12  17
ATOM     14  F   UNL     1      32.411  -9.265 -20.087  0.00  0.00    -0.167 F 
ATOM     15  F   UNL     1      31.546  -7.270 -19.979  0.00  0.00    -0.167 F 
ATOM     16  F   UNL     1      33.701  -7.510 -20.208  0.00  0.00    -0.167 F 
ATOM     17  C   UNL     1      32.503  -8.013 -20.583  0.00  0.00    +0.427 C 
ENDBRANCH  12  17
BRANCH  12  18
ATOM     18  O   UNL     1      31.201  -7.173 -22.375  0.00  0.00    -0.372 OA
ATOM     19  H   UNL     1      30.814  -6.862 -21.541  0.00  0.00    +0.211 HD
ENDBRANCH  12  18
ENDBRANCH  10  12
ENDBRANCH   3   9
BRANCH   2  20
ATOM     20  S   UNL     1      33.657 -15.435 -25.521  0.00  0.00    +0.027 S 
ATOM     21  O   UNL     1      34.584 -15.363 -26.643  0.00  0.00    -0.164 OA
ATOM     22  O   UNL     1      32.296 -15.908 -25.737  0.00  0.00    -0.164 OA
BRANCH  20  23
ATOM     23  C   UNL     1      34.430 -16.527 -24.358  0.00  0.00    +0.110 C 
ATOM     24  C   UNL     1      34.537 -17.869 -24.668  0.00  0.00    +0.019 C 
ATOM     25  C   UNL     1      34.906 -16.011 -23.167  0.00  0.00    +0.019 C 
ATOM     26  C   UNL     1      35.631 -18.230 -22.544  0.00  0.00    +0.054 C 
ATOM     27  C   UNL     1      35.143 -18.729 -23.751  0.00  0.00    +0.006 C 
ATOM     28  C   UNL     1      35.513 -16.871 -22.252  0.00  0.00    +0.006 C 
BRANCH  26  31
ATOM     29  O   UNL     1      37.487 -19.008 -21.436  0.00  0.00    -0.270 OA
ATOM     30  N   UNL     1      35.473 -20.072 -20.915  0.00  0.00    -0.273 N 
ATOM     31  C   UNL     1      36.265 -19.126 -21.590  0.00  0.00    +0.249 C 
ATOM     32  C   UNL     1      34.031 -20.176 -21.130  0.00  0.00    +0.115 C 
ATOM     33  C   UNL     1      36.037 -21.014 -19.958  0.00  0.00    +0.115 C 
ENDBRANCH  26  31
ENDBRANCH  20  23
ENDBRANCH   2  20
TORSDOF 7
ENDMDL
MODEL 3
REMARK VINA RESULT:     -10.0      4.824     10.431
REMARK  Name = 16741245
REMARK  7 active torsions:
REMARK  status: ('A' for Active; 'I' for Inactive)
REMARK    1  A    between atoms: C_2  and  S_20
REMARK    2  A    between atoms: C_3  and  N_9
REMARK    3  A    between atoms: C_10  and  C_12
REMARK    4  A    between atoms: C_12  and  C_17
REMARK    5  A    between atoms: C_12  and  O_18
REMARK    6  A    between atoms: S_20  and  C_23
REMARK    7  A    between atoms: C_26  and  C_31
REMARK                            x       y       z     vdW  Elec       q    Type
REMARK                         _______ _______ _______ _____ _____    ______ ____
ROOT
ATOM      1 CL   UNL     1      33.986 -11.899 -25.082  0.00  0.00    -0.081 Cl
ATOM      2  C   UNL     1      32.291 -11.362 -21.507  0.00  0.00    +0.111 C 
ATOM      3  C   UNL     1      33.020 -13.511 -23.100  0.00  0.00    +0.061 C 
ATOM      4  C   UNL     1      32.885 -11.139 -22.748  0.00  0.00    +0.031 C 
ATOM      5  C   UNL     1      32.064 -12.666 -21.066  0.00  0.00    +0.020 C 
ATOM      6  C   UNL     1      33.252 -12.220 -23.550  0.00  0.00    +0.072 C 
ATOM      7  C   UNL     1      32.430 -13.746 -21.868  0.00  0.00    +0.017 C 
ENDROOT
BRANCH   3   9
ATOM      8  O   UNL     1      35.216 -15.507 -22.733  0.00  0.00    -0.272 OA
ATOM      9  N   UNL     1      33.381 -14.629 -23.890  0.00  0.00    -0.281 N 
ATOM     10  C   UNL     1      34.419 -15.527 -23.669  0.00  0.00    +0.259 C 
ATOM     11  H   UNL     1      32.832 -14.789 -24.691  0.00  0.00    +0.155 HD
BRANCH  10  12
ATOM     12  C   UNL     1      34.501 -16.619 -24.750  0.00  0.00    +0.245 C 
ATOM     13  C   UNL     1      33.275 -16.596 -25.662  0.00  0.00    +0.048 C 
BRANCH  12  17
ATOM     14  F   UNL     1      33.922 -18.209 -23.070  0.00  0.00    -0.167 F 
ATOM     15  F   UNL     1      35.997 -18.150 -23.726  0.00  0.00    -0.167 F 
ATOM     16  F   UNL     1      34.465 -18.976 -25.038  0.00  0.00    -0.167 F 
ATOM     17  C   UNL     1      34.717 -17.997 -24.140  0.00  0.00    +0.427 C 
ENDBRANCH  12  17
BRANCH  12  18
ATOM     18  O   UNL     1      35.650 -16.336 -25.549  0.00  0.00    -0.372 OA
ATOM     19  H   UNL     1      35.446 -15.613 -26.163  0.00  0.00    +0.211 HD
ENDBRANCH  12  18
ENDBRANCH  10  12
ENDBRANCH   3   9
BRANCH   2  20
ATOM     20  S   UNL     1      31.832 -10.010 -20.502  0.00  0.00    +0.027 S 
ATOM     21  O   UNL     1      32.884  -9.763 -19.525  0.00  0.00    -0.164 OA
ATOM     22  O   UNL     1      30.474 -10.277 -20.050  0.00  0.00    -0.164 OA
BRANCH  20  23
ATOM     23  C   UNL     1      31.790  -8.551 -21.509  0.00  0.00    +0.110 C 
ATOM     24  C   UNL     1      32.418  -7.407 -21.057  0.00  0.00    +0.019 C 
ATOM     25  C   UNL     1      31.128  -8.592 -22.721  0.00  0.00    +0.019 C 
ATOM     26  C   UNL     1      31.721  -6.276 -23.075  0.00  0.00    +0.054 C 
ATOM     27  C   UNL     1      32.383  -6.258 -21.847  0.00  0.00    +0.006 C 
ATOM     28  C   UNL     1      31.095  -7.443 -23.512  0.00  0.00    +0.006 C 
BRANCH  26  31
ATOM     29  O   UNL     1      30.678  -4.367 -23.813  0.00  0.00    -0.270 OA
ATOM     30  N   UNL     1      32.773  -4.806 -24.750  0.00  0.00    -0.273 N 
ATOM     31  C   UNL     1      31.687  -5.079 -23.900  0.00  0.00    +0.249 C 
ATOM     32  C   UNL     1      33.944  -5.678 -24.821  0.00  0.00    +0.115 C 
ATOM     33  C   UNL     1      32.805  -3.637 -25.618  0.00  0.00    +0.115 C 
ENDBRANCH  26  31
ENDBRANCH  20  23
ENDBRANCH   2  20
TORSDOF 7
ENDMDL
MODEL 4
REMARK VINA RESULT:      -9.9      8.485     13.328
REMARK  Name = 16741245
REMARK  7 active torsions:
REMARK  status: ('A' for Active; 'I' for Inactive)
REMARK    1  A    between atoms: C_2  and  S_20
REMARK    2  A    between atoms: C_3  and  N_9
REMARK    3  A    between atoms: C_10  and  C_12
REMARK    4  A    between atoms: C_12  and  C_17
REMARK    5  A    between atoms: C_12  and  O_18
REMARK    6  A    between atoms: S_20  and  C_23
REMARK    7  A    between atoms: C_26  and  C_31
REMARK                            x       y       z     vdW  Elec       q    Type
REMARK                         _______ _______ _______ _____ _____    ______ ____
ROOT
ATOM      1 CL   UNL     1      33.570 -24.232 -13.926  0.00  0.00    -0.081 Cl
ATOM      2  C   UNL     1      34.466 -23.007 -17.619  0.00  0.00    +0.111 C 
ATOM      3  C   UNL     1      35.691 -23.004 -15.131  0.00  0.00    +0.061 C 
ATOM      4  C   UNL     1      33.807 -23.550 -16.517  0.00  0.00    +0.031 C 
ATOM      5  C   UNL     1      35.742 -22.463 -17.469  0.00  0.00    +0.020 C 
ATOM      6  C   UNL     1      34.423 -23.548 -15.265  0.00  0.00    +0.072 C 
ATOM      7  C   UNL     1      36.357 -22.461 -16.218  0.00  0.00    +0.017 C 
ENDROOT
BRANCH   3   9
ATOM      8  O   UNL     1      37.370 -25.089 -13.798  0.00  0.00    -0.272 OA
ATOM      9  N   UNL     1      36.343 -22.987 -13.875  0.00  0.00    -0.281 N 
ATOM     10  C   UNL     1      37.114 -23.993 -13.304  0.00  0.00    +0.259 C 
ATOM     11  H   UNL     1      36.237 -22.166 -13.342  0.00  0.00    +0.155 HD
BRANCH  10  12
ATOM     12  C   UNL     1      37.662 -23.609 -11.917  0.00  0.00    +0.245 C 
ATOM     13  C   UNL     1      38.943 -24.376 -11.591  0.00  0.00    +0.048 C 
BRANCH  12  17
ATOM     14  F   UNL     1      36.830 -22.971  -9.776  0.00  0.00    -0.167 F 
ATOM     15  F   UNL     1      36.612 -25.057 -10.360  0.00  0.00    -0.167 F 
ATOM     16  F   UNL     1      35.370 -23.530 -11.298  0.00  0.00    -0.167 F 
ATOM     17  C   UNL     1      36.612 -23.787 -10.829  0.00  0.00    +0.427 C 
ENDBRANCH  12  17
BRANCH  12  18
ATOM     18  O   UNL     1      37.980 -22.218 -11.960  0.00  0.00    -0.372 OA
ATOM     19  H   UNL     1      37.166 -21.698 -11.871  0.00  0.00    +0.211 HD
ENDBRANCH  12  18
ENDBRANCH  10  12
ENDBRANCH   3   9
BRANCH   2  20
ATOM     20  S   UNL     1      33.696 -23.009 -19.186  0.00  0.00    +0.027 S 
ATOM     21  O   UNL     1      32.253 -22.928 -19.008  0.00  0.00    -0.164 OA
ATOM     22  O   UNL     1      34.272 -24.125 -19.924  0.00  0.00    -0.164 OA
BRANCH  20  23
ATOM     23  C   UNL     1      34.140 -21.516 -20.032  0.00  0.00    +0.110 C 
ATOM     24  C   UNL     1      33.137 -20.684 -20.493  0.00  0.00    +0.019 C 
ATOM     25  C   UNL     1      35.477 -21.219 -20.212  0.00  0.00    +0.019 C 
ATOM     26  C   UNL     1      34.829 -19.190 -21.353  0.00  0.00    +0.054 C 
ATOM     27  C   UNL     1      33.485 -19.510 -21.161  0.00  0.00    +0.006 C 
ATOM     28  C   UNL     1      35.825 -20.044 -20.879  0.00  0.00    +0.006 C 
BRANCH  26  31
ATOM     29  O   UNL     1      35.666 -17.050 -21.361  0.00  0.00    -0.270 OA
ATOM     30  N   UNL     1      34.976 -17.879 -23.435  0.00  0.00    -0.273 N 
ATOM     31  C   UNL     1      35.192 -17.965 -22.048  0.00  0.00    +0.249 C 
ATOM     32  C   UNL     1      34.412 -18.985 -24.205  0.00  0.00    +0.115 C 
ATOM     33  C   UNL     1      35.298 -16.681 -24.197  0.00  0.00    +0.115 C 
ENDBRANCH  26  31
ENDBRANCH  20  23
ENDBRANCH   2  20
TORSDOF 7
ENDMDL
MODEL 5
REMARK VINA RESULT:      -9.6      1.685      2.172
REMARK  Name = 16741245
REMARK  7 active torsions:
REMARK  status: ('A' for Active; 'I' for Inactive)
REMARK    1  A    between atoms: C_2  and  S_20
REMARK    2  A    between atoms: C_3  and  N_9
REMARK    3  A    between atoms: C_10  and  C_12
REMARK    4  A    between atoms: C_12  and  C_17
REMARK    5  A    between atoms: C_12  and  O_18
REMARK    6  A    between atoms: S_20  and  C_23
REMARK    7  A    between atoms: C_26  and  C_31
REMARK                            x       y       z     vdW  Elec       q    Type
REMARK                         _______ _______ _______ _____ _____    ______ ____
ROOT
ATOM      1 CL   UNL     1      32.826 -11.530 -26.249  0.00  0.00    -0.081 Cl
ATOM      2  C   UNL     1      33.816 -15.052 -24.648  0.00  0.00    +0.111 C 
ATOM      3  C   UNL     1      33.514 -12.440 -23.768  0.00  0.00    +0.061 C 
ATOM      4  C   UNL     1      33.442 -14.052 -25.546  0.00  0.00    +0.031 C 
ATOM      5  C   UNL     1      34.037 -14.737 -23.307  0.00  0.00    +0.020 C 
ATOM      6  C   UNL     1      33.291 -12.738 -25.103  0.00  0.00    +0.072 C 
ATOM      7  C   UNL     1      33.886 -13.424 -22.865  0.00  0.00    +0.017 C 
ENDROOT
BRANCH   3   9
ATOM      8  O   UNL     1      31.426 -11.251 -21.987  0.00  0.00    -0.272 OA
ATOM      9  N   UNL     1      33.368 -11.116 -23.286  0.00  0.00    -0.281 N 
ATOM     10  C   UNL     1      32.370 -10.619 -22.457  0.00  0.00    +0.259 C 
ATOM     11  H   UNL     1      34.054 -10.473 -23.574  0.00  0.00    +0.155 HD
BRANCH  10  12
ATOM     12  C   UNL     1      32.545  -9.121 -22.147  0.00  0.00    +0.245 C 
ATOM     13  C   UNL     1      32.442  -8.846 -20.647  0.00  0.00    +0.048 C 
BRANCH  12  17
ATOM     14  F   UNL     1      30.418  -8.922 -23.205  0.00  0.00    -0.167 F 
ATOM     15  F   UNL     1      32.100  -7.893 -24.127  0.00  0.00    -0.167 F 
ATOM     16  F   UNL     1      31.248  -7.135 -22.269  0.00  0.00    -0.167 F 
ATOM     17  C   UNL     1      31.567  -8.265 -22.940  0.00  0.00    +0.427 C 
ENDBRANCH  12  17
BRANCH  12  18
ATOM     18  O   UNL     1      33.857  -8.752 -22.574  0.00  0.00    -0.372 OA
ATOM     19  H   UNL     1      34.049  -7.847 -22.282  0.00  0.00    +0.211 HD
ENDBRANCH  12  18
ENDBRANCH  10  12
ENDBRANCH   3   9
BRANCH   2  20
ATOM     20  S   UNL     1      34.005 -16.697 -25.202  0.00  0.00    +0.027 S 
ATOM     21  O   UNL     1      35.046 -16.741 -26.220  0.00  0.00    -0.164 OA
ATOM     22  O   UNL     1      32.668 -17.181 -25.514  0.00  0.00    -0.164 OA
BRANCH  20  23
ATOM     23  C   UNL     1      34.634 -17.672 -23.861  0.00  0.00    +0.110 C 
ATOM     24  C   UNL     1      34.476 -19.044 -23.899  0.00  0.00    +0.019 C 
ATOM     25  C   UNL     1      35.265 -17.037 -22.808  0.00  0.00    +0.019 C 
ATOM     26  C   UNL     1      35.609 -19.192 -21.771  0.00  0.00    +0.054 C 
ATOM     27  C   UNL     1      34.968 -19.811 -22.844  0.00  0.00    +0.006 C 
ATOM     28  C   UNL     1      35.759 -17.805 -21.754  0.00  0.00    +0.006 C 
BRANCH  26  31
ATOM     29  O   UNL     1      37.312 -19.826 -20.365  0.00  0.00    -0.270 OA
ATOM     30  N   UNL     1      35.266 -20.907 -20.035  0.00  0.00    -0.273 N 
ATOM     31  C   UNL     1      36.124 -19.992 -20.671  0.00  0.00    +0.249 C 
ATOM     32  C   UNL     1      33.869 -21.070 -20.431  0.00  0.00    +0.115 C 
ATOM     33  C   UNL     1      35.712 -21.754 -18.938  0.00  0.00    +0.115 C 
ENDBRANCH  26  31
ENDBRANCH  20  23
ENDBRANCH   2  20
TORSDOF 7
ENDMDL
MODEL 6
REMARK VINA RESULT:      -9.5      8.311     12.360
REMARK  Name = 16741245
REMARK  7 active torsions:
REMARK  status: ('A' for Active; 'I' for Inactive)
REMARK    1  A    between atoms: C_2  and  S_20
REMARK    2  A    between atoms: C_3  and  N_9
REMARK    3  A    between atoms: C_10  and  C_12
REMARK    4  A    between atoms: C_12  and  C_17
REMARK    5  A    between atoms: C_12  and  O_18
REMARK    6  A    between atoms: S_20  and  C_23
REMARK    7  A    between atoms: C_26  and  C_31
REMARK                            x       y       z     vdW  Elec       q    Type
REMARK                         _______ _______ _______ _____ _____    ______ ____
ROOT
ATOM      1 CL   UNL     1      34.021 -24.309 -15.693  0.00  0.00    -0.081 Cl
ATOM      2  C   UNL     1      34.998 -21.999 -18.800  0.00  0.00    +0.111 C 
ATOM      3  C   UNL     1      32.668 -22.957 -17.642  0.00  0.00    +0.061 C 
ATOM      4  C   UNL     1      35.065 -22.817 -17.672  0.00  0.00    +0.031 C 
ATOM      5  C   UNL     1      33.759 -21.664 -19.345  0.00  0.00    +0.020 C 
ATOM      6  C   UNL     1      33.893 -23.299 -17.090  0.00  0.00    +0.072 C 
ATOM      7  C   UNL     1      32.587 -22.146 -18.764  0.00  0.00    +0.017 C 
ENDROOT
BRANCH   3   9
ATOM      8  O   UNL     1      31.516 -22.528 -14.916  0.00  0.00    -0.272 OA
ATOM      9  N   UNL     1      31.460 -23.430 -17.075  0.00  0.00    -0.281 N 
ATOM     10  C   UNL     1      30.974 -23.197 -15.794  0.00  0.00    +0.259 C 
ATOM     11  H   UNL     1      30.898 -23.991 -17.657  0.00  0.00    +0.155 HD
BRANCH  10  12
ATOM     12  C   UNL     1      29.619 -23.881 -15.537  0.00  0.00    +0.245 C 
ATOM     13  C   UNL     1      28.573 -22.881 -15.047  0.00  0.00    +0.048 C 
BRANCH  12  17
ATOM     14  F   UNL     1      30.086 -24.664 -13.334  0.00  0.00    -0.167 F 
ATOM     15  F   UNL     1      30.720 -25.913 -15.000  0.00  0.00    -0.167 F 
ATOM     16  F   UNL     1      28.603 -25.761 -14.500  0.00  0.00    -0.167 F 
ATOM     17  C   UNL     1      29.756 -25.059 -14.583  0.00  0.00    +0.427 C 
ENDBRANCH  12  17
BRANCH  12  18
ATOM     18  O   UNL     1      29.171 -24.411 -16.785  0.00  0.00    -0.372 OA
ATOM     19  H   UNL     1      29.035 -23.685 -17.414  0.00  0.00    +0.211 HD
ENDBRANCH  12  18
ENDBRANCH  10  12
ENDBRANCH   3   9
BRANCH   2  20
ATOM     20  S   UNL     1      36.465 -21.395 -19.529  0.00  0.00    +0.027 S 
ATOM     21  O   UNL     1      37.072 -22.452 -20.328  0.00  0.00    -0.164 OA
ATOM     22  O   UNL     1      37.228 -20.770 -18.457  0.00  0.00    -0.164 OA
BRANCH  20  23
ATOM     23  C   UNL     1      36.034 -20.130 -20.694  0.00  0.00    +0.110 C 
ATOM     24  C   UNL     1      34.727 -20.041 -21.133  0.00  0.00    +0.019 C 
ATOM     25  C   UNL     1      37.014 -19.263 -21.136  0.00  0.00    +0.019 C 
ATOM     26  C   UNL     1      35.361 -18.161 -22.512  0.00  0.00    +0.054 C 
ATOM     27  C   UNL     1      34.387 -19.048 -22.052  0.00  0.00    +0.006 C 
ATOM     28  C   UNL     1      36.674 -18.268 -22.053  0.00  0.00    +0.006 C 
BRANCH  26  31
ATOM     29  O   UNL     1      35.287 -15.958 -23.160  0.00  0.00    -0.270 OA
ATOM     30  N   UNL     1      34.363 -17.491 -24.663  0.00  0.00    -0.273 N 
ATOM     31  C   UNL     1      35.007 -17.124 -23.467  0.00  0.00    +0.249 C 
ATOM     32  C   UNL     1      34.051 -18.882 -24.984  0.00  0.00    +0.115 C 
ATOM     33  C   UNL     1      33.962 -16.509 -25.661  0.00  0.00    +0.115 C 
ENDBRANCH  26  31
ENDBRANCH  20  23
ENDBRANCH   2  20
TORSDOF 7
ENDMDL
MODEL 7
REMARK VINA RESULT:      -9.5      7.753     12.114
REMARK  Name = 16741245
REMARK  7 active torsions:
REMARK  status: ('A' for Active; 'I' for Inactive)
REMARK    1  A    between atoms: C_2  and  S_20
REMARK    2  A    between atoms: C_3  and  N_9
REMARK    3  A    between atoms: C_10  and  C_12
REMARK    4  A    between atoms: C_12  and  C_17
REMARK    5  A    between atoms: C_12  and  O_18
REMARK    6  A    between atoms: S_20  and  C_23
REMARK    7  A    between atoms: C_26  and  C_31
REMARK                            x       y       z     vdW  Elec       q    Type
REMARK                         _______ _______ _______ _____ _____    ______ ____
ROOT
ATOM      1 CL   UNL     1      34.407 -24.274 -15.488  0.00  0.00    -0.081 Cl
ATOM      2  C   UNL     1      35.212 -22.035 -18.694  0.00  0.00    +0.111 C 
ATOM      3  C   UNL     1      32.960 -23.124 -17.498  0.00  0.00    +0.061 C 
ATOM      4  C   UNL     1      35.338 -22.793 -17.531  0.00  0.00    +0.031 C 
ATOM      5  C   UNL     1      33.952 -21.824 -19.256  0.00  0.00    +0.020 C 
ATOM      6  C   UNL     1      34.205 -23.342 -16.929  0.00  0.00    +0.072 C 
ATOM      7  C   UNL     1      32.820 -22.373 -18.655  0.00  0.00    +0.017 C 
ENDROOT
BRANCH   3   9
ATOM      8  O   UNL     1      31.642 -22.504 -14.886  0.00  0.00    -0.272 OA
ATOM      9  N   UNL     1      31.791 -23.667 -16.912  0.00  0.00    -0.281 N 
ATOM     10  C   UNL     1      31.223 -23.338 -15.686  0.00  0.00    +0.259 C 
ATOM     11  H   UNL     1      31.326 -24.360 -17.434  0.00  0.00    +0.155 HD
BRANCH  10  12
ATOM     12  C   UNL     1      29.947 -24.145 -15.386  0.00  0.00    +0.245 C 
ATOM     13  C   UNL     1      30.180 -25.645 -15.566  0.00  0.00    +0.048 C 
BRANCH  12  17
ATOM     14  F   UNL     1      29.072 -22.560 -16.937  0.00  0.00    -0.167 F 
ATOM     15  F   UNL     1      27.716 -23.342 -15.424  0.00  0.00    -0.167 F 
ATOM     16  F   UNL     1      28.348 -24.613 -17.078  0.00  0.00    -0.167 F 
ATOM     17  C   UNL     1      28.767 -23.660 -16.215  0.00  0.00    +0.427 C 
ENDBRANCH  12  17
BRANCH  12  18
ATOM     18  O   UNL     1      29.614 -23.913 -14.017  0.00  0.00    -0.372 OA
ATOM     19  H   UNL     1      29.008 -23.157 -13.956  0.00  0.00    +0.211 HD
ENDBRANCH  12  18
ENDBRANCH  10  12
ENDBRANCH   3   9
BRANCH   2  20
ATOM     20  S   UNL     1      36.629 -21.348 -19.447  0.00  0.00    +0.027 S 
ATOM     21  O   UNL     1      37.301 -22.378 -20.228  0.00  0.00    -0.164 OA
ATOM     22  O   UNL     1      37.354 -20.649 -18.395  0.00  0.00    -0.164 OA
BRANCH  20  23
ATOM     23  C   UNL     1      36.104 -20.141 -20.635  0.00  0.00    +0.110 C 
ATOM     24  C   UNL     1      37.037 -19.266 -21.158  0.00  0.00    +0.019 C 
ATOM     25  C   UNL     1      34.774 -20.102 -21.010  0.00  0.00    +0.019 C 
ATOM     26  C   UNL     1      35.287 -18.258 -22.484  0.00  0.00    +0.054 C 
ATOM     27  C   UNL     1      36.624 -18.315 -22.091  0.00  0.00    +0.006 C 
ATOM     28  C   UNL     1      34.363 -19.151 -21.944  0.00  0.00    +0.006 C 
BRANCH  26  31
ATOM     29  O   UNL     1      34.971 -16.077 -23.136  0.00  0.00    -0.270 OA
ATOM     30  N   UNL     1      34.332 -17.704 -24.687  0.00  0.00    -0.273 N 
ATOM     31  C   UNL     1      34.857 -17.267 -23.458  0.00  0.00    +0.249 C 
ATOM     32  C   UNL     1      34.216 -19.122 -25.025  0.00  0.00    +0.115 C 
ATOM     33  C   UNL     1      33.866 -16.774 -25.706  0.00  0.00    +0.115 C 
ENDBRANCH  26  31
ENDBRANCH  20  23
ENDBRANCH   2  20
TORSDOF 7
ENDMDL
MODEL 8
REMARK VINA RESULT:      -9.3      5.707      9.199
REMARK  Name = 16741245
REMARK  7 active torsions:
REMARK  status: ('A' for Active; 'I' for Inactive)
REMARK    1  A    between atoms: C_2  and  S_20
REMARK    2  A    between atoms: C_3  and  N_9
REMARK    3  A    between atoms: C_10  and  C_12
REMARK    4  A    between atoms: C_12  and  C_17
REMARK    5  A    between atoms: C_12  and  O_18
REMARK    6  A    between atoms: S_20  and  C_23
REMARK    7  A    between atoms: C_26  and  C_31
REMARK                            x       y       z     vdW  Elec       q    Type
REMARK                         _______ _______ _______ _____ _____    ______ ____
ROOT
ATOM      1 CL   UNL     1      37.082 -19.992 -20.593  0.00  0.00    -0.081 Cl
ATOM      2  C   UNL     1      33.842 -21.959 -19.337  0.00  0.00    +0.111 C 
ATOM      3  C   UNL     1      34.380 -19.715 -20.876  0.00  0.00    +0.061 C 
ATOM      4  C   UNL     1      35.161 -21.569 -19.564  0.00  0.00    +0.031 C 
ATOM      5  C   UNL     1      32.793 -21.220 -19.886  0.00  0.00    +0.020 C 
ATOM      6  C   UNL     1      35.432 -20.440 -20.337  0.00  0.00    +0.072 C 
ATOM      7  C   UNL     1      33.063 -20.092 -20.659  0.00  0.00    +0.017 C 
ENDROOT
BRANCH   3   9
ATOM      8  O   UNL     1      34.906 -19.462 -23.809  0.00  0.00    -0.272 OA
ATOM      9  N   UNL     1      34.621 -18.565 -21.666  0.00  0.00    -0.281 N 
ATOM     10  C   UNL     1      34.862 -18.509 -23.033  0.00  0.00    +0.259 C 
ATOM     11  H   UNL     1      34.619 -17.704 -21.189  0.00  0.00    +0.155 HD
BRANCH  10  12
ATOM     12  C   UNL     1      35.081 -17.072 -23.540  0.00  0.00    +0.245 C 
ATOM     13  C   UNL     1      34.674 -16.041 -22.488  0.00  0.00    +0.048 C 
BRANCH  12  17
ATOM     14  F   UNL     1      33.402 -17.740 -25.095  0.00  0.00    -0.167 F 
ATOM     15  F   UNL     1      35.241 -16.895 -25.900  0.00  0.00    -0.167 F 
ATOM     16  F   UNL     1      33.799 -15.604 -24.897  0.00  0.00    -0.167 F 
ATOM     17  C   UNL     1      34.372 -16.828 -24.864  0.00  0.00    +0.427 C 
ENDBRANCH  12  17
BRANCH  12  18
ATOM     18  O   UNL     1      36.479 -16.921 -23.787  0.00  0.00    -0.372 OA
ATOM     19  H   UNL     1      36.978 -17.484 -23.174  0.00  0.00    +0.211 HD
ENDBRANCH  12  18
ENDBRANCH  10  12
ENDBRANCH   3   9
BRANCH   2  20
ATOM     20  S   UNL     1      33.502 -23.372 -18.370  0.00  0.00    +0.027 S 
ATOM     21  O   UNL     1      33.866 -24.565 -19.123  0.00  0.00    -0.164 OA
ATOM     22  O   UNL     1      32.140 -23.215 -17.879  0.00  0.00    -0.164 OA
BRANCH  20  23
ATOM     23  C   UNL     1      34.586 -23.366 -16.968  0.00  0.00    +0.110 C 
ATOM     24  C   UNL     1      34.130 -23.873 -15.766  0.00  0.00    +0.019 C 
ATOM     25  C   UNL     1      35.862 -22.854 -17.108  0.00  0.00    +0.019 C 
ATOM     26  C   UNL     1      36.274 -23.355 -14.780  0.00  0.00    +0.054 C 
ATOM     27  C   UNL     1      34.982 -23.867 -14.662  0.00  0.00    +0.006 C 
ATOM     28  C   UNL     1      36.714 -22.850 -16.003  0.00  0.00    +0.006 C 
BRANCH  26  31
ATOM     29  O   UNL     1      37.428 -22.249 -13.130  0.00  0.00    -0.270 OA
ATOM     30  N   UNL     1      37.677 -24.573 -13.161  0.00  0.00    -0.273 N 
ATOM     31  C   UNL     1      37.163 -23.350 -13.629  0.00  0.00    +0.249 C 
ATOM     32  C   UNL     1      37.336 -25.850 -13.784  0.00  0.00    +0.115 C 
ATOM     33  C   UNL     1      38.585 -24.648 -12.026  0.00  0.00    +0.115 C 
ENDBRANCH  26  31
ENDBRANCH  20  23
ENDBRANCH   2  20
TORSDOF 7
ENDMDL
MODEL 9
REMARK VINA RESULT:      -9.3      6.343     10.001
REMARK  Name = 16741245
REMARK  7 active torsions:
REMARK  status: ('A' for Active; 'I' for Inactive)
REMARK    1  A    between atoms: C_2  and  S_20
REMARK    2  A    between atoms: C_3  and  N_9
REMARK    3  A    between atoms: C_10  and  C_12
REMARK    4  A    between atoms: C_12  and  C_17
REMARK    5  A    between atoms: C_12  and  O_18
REMARK    6  A    between atoms: S_20  and  C_23
REMARK    7  A    between atoms: C_26  and  C_31
REMARK                            x       y       z     vdW  Elec       q    Type
REMARK                         _______ _______ _______ _____ _____    ______ ____
ROOT
ATOM      1 CL   UNL     1      37.129 -21.206 -20.278  0.00  0.00    -0.081 Cl
ATOM      2  C   UNL     1      33.672 -22.386 -18.664  0.00  0.00    +0.111 C 
ATOM      3  C   UNL     1      34.486 -20.638 -20.658  0.00  0.00    +0.061 C 
ATOM      4  C   UNL     1      35.029 -22.238 -18.952  0.00  0.00    +0.031 C 
ATOM      5  C   UNL     1      32.725 -21.654 -19.381  0.00  0.00    +0.020 C 
ATOM      6  C   UNL     1      35.438 -21.359 -19.954  0.00  0.00    +0.072 C 
ATOM      7  C   UNL     1      33.134 -20.775 -20.382  0.00  0.00    +0.017 C 
ENDROOT
BRANCH   3   9
ATOM      8  O   UNL     1      35.018 -17.697 -20.543  0.00  0.00    -0.272 OA
ATOM      9  N   UNL     1      34.868 -19.738 -21.681  0.00  0.00    -0.281 N 
ATOM     10  C   UNL     1      35.101 -18.372 -21.568  0.00  0.00    +0.259 C 
ATOM     11  H   UNL     1      34.981 -20.124 -22.579  0.00  0.00    +0.155 HD
BRANCH  10  12
ATOM     12  C   UNL     1      35.501 -17.723 -22.906  0.00  0.00    +0.245 C 
ATOM     13  C   UNL     1      35.222 -16.220 -22.902  0.00  0.00    +0.048 C 
BRANCH  12  17
ATOM     14  F   UNL     1      33.533 -18.694 -23.839  0.00  0.00    -0.167 F 
ATOM     15  F   UNL     1      35.447 -19.581 -24.380  0.00  0.00    -0.167 F 
ATOM     16  F   UNL     1      34.878 -17.641 -25.196  0.00  0.00    -0.167 F 
ATOM     17  C   UNL     1      34.830 -18.412 -24.086  0.00  0.00    +0.427 C 
ENDBRANCH  12  17
BRANCH  12  18
ATOM     18  O   UNL     1      36.907 -17.911 -23.062  0.00  0.00    -0.372 OA
ATOM     19  H   UNL     1      37.267 -17.205 -23.622  0.00  0.00    +0.211 HD
ENDBRANCH  12  18
ENDBRANCH  10  12
ENDBRANCH   3   9
BRANCH   2  20
ATOM     20  S   UNL     1      33.159 -23.487 -17.411  0.00  0.00    +0.027 S 
ATOM     21  O   UNL     1      33.173 -24.846 -17.934  0.00  0.00    -0.164 OA
ATOM     22  O   UNL     1      31.928 -22.937 -16.860  0.00  0.00    -0.164 OA
BRANCH  20  23
ATOM     23  C   UNL     1      34.378 -23.479 -16.123  0.00  0.00    +0.110 C 
ATOM     24  C   UNL     1      35.651 -23.025 -16.408  0.00  0.00    +0.019 C 
ATOM     25  C   UNL     1      34.026 -23.928 -14.864  0.00  0.00    +0.019 C 
ATOM     26  C   UNL     1      36.278 -23.469 -14.118  0.00  0.00    +0.054 C 
ATOM     27  C   UNL     1      36.610 -23.020 -15.396  0.00  0.00    +0.006 C 
ATOM     28  C   UNL     1      34.986 -23.922 -13.852  0.00  0.00    +0.006 C 
BRANCH  26  31
ATOM     29  O   UNL     1      37.497 -22.380 -12.503  0.00  0.00    -0.270 OA
ATOM     30  N   UNL     1      37.943 -24.661 -12.747  0.00  0.00    -0.273 N 
ATOM     31  C   UNL     1      37.278 -23.463 -13.062  0.00  0.00    +0.249 C 
ATOM     32  C   UNL     1      37.652 -25.917 -13.435  0.00  0.00    +0.115 C 
ATOM     33  C   UNL     1      38.968 -24.731 -11.714  0.00  0.00    +0.115 C 
ENDBRANCH  26  31
ENDBRANCH  20  23
ENDBRANCH   2  20
TORSDOF 7
ENDMDL
