MODEL 1
REMARK VINA RESULT:     -11.7      0.000      0.000
REMARK  Name = 46937052
REMARK  7 active torsions:
REMARK  status: ('A' for Active; 'I' for Inactive)
REMARK    1  A    between atoms: O_1  and  C_3
REMARK    2  A    between atoms: O_1  and  C_17
REMARK    3  A    between atoms: C_4  and  C_11
REMARK    4  A    between atoms: C_17  and  C_18
REMARK    5  A    between atoms: C_18  and  N_19
REMARK    6  A    between atoms: C_18  and  C_23
REMARK    7  A    between atoms: C_23  and  C_25
REMARK                            x       y       z     vdW  Elec       q    Type
REMARK                         _______ _______ _______ _____ _____    ______ ____
ROOT
ATOM      1  O   UNL     1      33.822 -20.543 -20.987  0.00  0.00    -0.476 OA
ENDROOT
BRANCH   1   3
ATOM      2  N   UNL     1      35.814 -22.412 -18.553  0.00  0.00    -0.239 NA
ATOM      3  C   UNL     1      34.131 -21.316 -19.898  0.00  0.00    +0.158 C 
ATOM      4  C   UNL     1      33.478 -22.565 -17.948  0.00  0.00    +0.039 C 
ATOM      5  C   UNL     1      33.136 -21.784 -19.046  0.00  0.00    +0.042 C 
ATOM      6  C   UNL     1      35.443 -21.655 -19.610  0.00  0.00    +0.136 C 
ATOM      7  C   UNL     1      34.820 -22.848 -17.748  0.00  0.00    +0.101 C 
BRANCH   4  11
ATOM      8  N   UNL     1      31.201 -22.867 -17.307  0.00  0.00    -0.264 NA
ATOM      9  N   UNL     1      29.879 -24.605 -14.311  0.00  0.00    -0.150 NA
ATOM     10  N   UNL     1      30.796 -25.200 -13.339  0.00  0.00    -0.147 NA
ATOM     11  C   UNL     1      32.438 -23.082 -17.019  0.00  0.00    +0.078 C 
ATOM     12  C   UNL     1      32.010 -24.255 -15.000  0.00  0.00    +0.040 C 
ATOM     13  C   UNL     1      30.603 -24.067 -15.256  0.00  0.00    +0.107 C 
ATOM     14  C   UNL     1      30.110 -23.341 -16.452  0.00  0.00    +0.173 C 
ATOM     15  C   UNL     1      32.947 -23.796 -15.814  0.00  0.00    +0.022 C 
ATOM     16  C   UNL     1      32.011 -24.984 -13.754  0.00  0.00    +0.123 C 
ENDBRANCH   4  11
ENDBRANCH   1   3
BRANCH   1  17
ATOM     17  C   UNL     1      34.900 -20.176 -21.838  0.00  0.00    +0.184 C 
BRANCH  17  18
ATOM     18  C   UNL     1      34.922 -18.657 -22.049  0.00  0.00    -0.017 C 
BRANCH  18  19
ATOM     19  N   UNL     1      35.650 -18.048 -20.932  0.00  0.00    +0.384 N 
ATOM     20  H   UNL     1      35.023 -17.946 -20.134  0.00  0.00    -0.089 HD
ATOM     21  H   UNL     1      35.997 -17.131 -21.212  0.00  0.00    -0.089 HD
ATOM     22  H   UNL     1      36.436 -18.645 -20.673  0.00  0.00    -0.089 HD
ENDBRANCH  18  19
BRANCH  18  23
ATOM     23  C   UNL     1      35.595 -18.238 -23.380  0.00  0.00    +0.010 C 
BRANCH  23  25
ATOM     24  N   UNL     1      33.536 -16.722 -26.106  0.00  0.00    -0.244 NA
ATOM     25  C   UNL     1      34.800 -17.315 -24.209  0.00  0.00    -0.004 C 
ATOM     26  C   UNL     1      34.404 -16.043 -24.079  0.00  0.00    +0.011 C 
ATOM     27  C   UNL     1      33.625 -15.666 -25.240  0.00  0.00    +0.080 C 
ATOM     28  C   UNL     1      34.208 -17.661 -25.512  0.00  0.00    +0.094 C 
ATOM     29  C   UNL     1      34.659 -15.121 -23.002  0.00  0.00    -0.020 C 
ATOM     30  C   UNL     1      33.112 -14.434 -25.352  0.00  0.00    +0.015 C 
ATOM     31  C   UNL     1      33.327 -13.395 -24.270  0.00  0.00    -0.020 C 
ATOM     32  C   UNL     1      34.153 -13.877 -23.091  0.00  0.00    +0.052 C 
ENDBRANCH  23  25
ENDBRANCH  18  23
ENDBRANCH  17  18
ENDBRANCH   1  17
TORSDOF 7
ENDMDL
MODEL 2
REMARK VINA RESULT:     -11.6      2.598     10.502
REMARK  Name = 46937052
REMARK  7 active torsions:
REMARK  status: ('A' for Active; 'I' for Inactive)
REMARK    1  A    between atoms: O_1  and  C_3
REMARK    2  A    between atoms: O_1  and  C_17
REMARK    3  A    between atoms: C_4  and  C_11
REMARK    4  A    between atoms: C_17  and  C_18
REMARK    5  A    between atoms: C_18  and  N_19
REMARK    6  A    between atoms: C_18  and  C_23
REMARK    7  A    between atoms: C_23  and  C_25
REMARK                            x       y       z     vdW  Elec       q    Type
REMARK                         _______ _______ _______ _____ _____    ______ ____
ROOT
ATOM      1  O   UNL     1      33.221 -22.559 -18.876  0.00  0.00    -0.476 OA
ENDROOT
BRANCH   1   3
ATOM      2  N   UNL     1      36.679 -21.437 -19.287  0.00  0.00    -0.239 NA
ATOM      3  C   UNL     1      34.300 -21.859 -19.351  0.00  0.00    +0.158 C 
ATOM      4  C   UNL     1      35.259 -20.197 -20.801  0.00  0.00    +0.039 C 
ATOM      5  C   UNL     1      34.148 -20.892 -20.338  0.00  0.00    +0.042 C 
ATOM      6  C   UNL     1      35.575 -22.092 -18.863  0.00  0.00    +0.136 C 
ATOM      7  C   UNL     1      36.492 -20.505 -20.248  0.00  0.00    +0.101 C 
BRANCH   4  11
ATOM      8  N   UNL     1      35.522 -17.959 -21.583  0.00  0.00    -0.264 NA
ATOM      9  N   UNL     1      34.650 -16.582 -24.913  0.00  0.00    -0.150 NA
ATOM     10  N   UNL     1      34.054 -17.443 -25.934  0.00  0.00    -0.147 NA
ATOM     11  C   UNL     1      35.131 -19.156 -21.856  0.00  0.00    +0.078 C 
ATOM     12  C   UNL     1      34.430 -18.676 -24.072  0.00  0.00    +0.040 C 
ATOM     13  C   UNL     1      34.855 -17.316 -23.852  0.00  0.00    +0.107 C 
ATOM     14  C   UNL     1      35.435 -16.872 -22.560  0.00  0.00    +0.173 C 
ATOM     15  C   UNL     1      34.533 -19.612 -23.143  0.00  0.00    +0.022 C 
ATOM     16  C   UNL     1      33.935 -18.637 -25.429  0.00  0.00    +0.123 C 
ENDBRANCH   4  11
ENDBRANCH   1   3
BRANCH   1  17
ATOM     17  C   UNL     1      33.494 -23.616 -17.965  0.00  0.00    +0.184 C 
BRANCH  17  18
ATOM     18  C   UNL     1      33.097 -23.212 -16.540  0.00  0.00    -0.017 C 
BRANCH  18  19
ATOM     19  N   UNL     1      31.636 -23.267 -16.437  0.00  0.00    +0.384 N 
ATOM     20  H   UNL     1      31.340 -24.237 -16.329  0.00  0.00    -0.089 HD
ATOM     21  H   UNL     1      31.221 -22.877 -17.284  0.00  0.00    -0.089 HD
ATOM     22  H   UNL     1      31.332 -22.726 -15.628  0.00  0.00    -0.089 HD
ENDBRANCH  18  19
BRANCH  18  23
ATOM     23  C   UNL     1      33.716 -24.127 -15.455  0.00  0.00    +0.010 C 
BRANCH  23  25
ATOM     24  N   UNL     1      37.173 -22.753 -15.093  0.00  0.00    -0.244 NA
ATOM     25  C   UNL     1      35.172 -23.981 -15.282  0.00  0.00    -0.004 C 
ATOM     26  C   UNL     1      36.186 -24.838 -15.115  0.00  0.00    +0.011 C 
ATOM     27  C   UNL     1      37.424 -24.095 -14.997  0.00  0.00    +0.080 C 
ATOM     28  C   UNL     1      35.886 -22.694 -15.255  0.00  0.00    +0.094 C 
ATOM     29  C   UNL     1      36.155 -26.277 -15.048  0.00  0.00    -0.020 C 
ATOM     30  C   UNL     1      38.591 -24.727 -14.822  0.00  0.00    +0.015 C 
ATOM     31  C   UNL     1      38.658 -26.239 -14.740  0.00  0.00    -0.020 C 
ATOM     32  C   UNL     1      37.315 -26.936 -14.872  0.00  0.00    +0.052 C 
ENDBRANCH  23  25
ENDBRANCH  18  23
ENDBRANCH  17  18
ENDBRANCH   1  17
TORSDOF 7
ENDMDL
MODEL 3
REMARK VINA RESULT:     -11.6      2.271      3.121
REMARK  Name = 46937052
REMARK  7 active torsions:
REMARK  status: ('A' for Active; 'I' for Inactive)
REMARK    1  A    between atoms: O_1  and  C_3
REMARK    2  A    between atoms: O_1  and  C_17
REMARK    3  A    between atoms: C_4  and  C_11
REMARK    4  A    between atoms: C_17  and  C_18
REMARK    5  A    between atoms: C_18  and  N_19
REMARK    6  A    between atoms: C_18  and  C_23
REMARK    7  A    between atoms: C_23  and  C_25
REMARK                            x       y       z     vdW  Elec       q    Type
REMARK                         _______ _______ _______ _____ _____    ______ ____
ROOT
ATOM      1  O   UNL     1      35.382 -20.908 -20.522  0.00  0.00    -0.476 OA
ENDROOT
BRANCH   1   3
ATOM      2  N   UNL     1      32.738 -22.618 -18.659  0.00  0.00    -0.239 NA
ATOM      3  C   UNL     1      34.760 -21.616 -19.527  0.00  0.00    +0.158 C 
ATOM      4  C   UNL     1      34.805 -22.767 -17.415  0.00  0.00    +0.039 C 
ATOM      5  C   UNL     1      35.462 -22.049 -18.408  0.00  0.00    +0.042 C 
ATOM      6  C   UNL     1      33.411 -21.924 -19.604  0.00  0.00    +0.136 C 
ATOM      7  C   UNL     1      33.454 -23.022 -17.587  0.00  0.00    +0.101 C 
BRANCH   4  11
ATOM      8  N   UNL     1      36.814 -23.310 -16.249  0.00  0.00    -0.264 NA
ATOM      9  N   UNL     1      37.178 -24.568 -12.782  0.00  0.00    -0.150 NA
ATOM     10  N   UNL     1      35.995 -24.802 -11.954  0.00  0.00    -0.147 NA
ATOM     11  C   UNL     1      35.528 -23.244 -16.206  0.00  0.00    +0.078 C 
ATOM     12  C   UNL     1      35.327 -24.037 -13.978  0.00  0.00    +0.040 C 
ATOM     13  C   UNL     1      36.766 -24.130 -13.941  0.00  0.00    +0.107 C 
ATOM     14  C   UNL     1      37.608 -23.765 -15.106  0.00  0.00    +0.173 C 
ATOM     15  C   UNL     1      34.669 -23.621 -15.048  0.00  0.00    +0.022 C 
ATOM     16  C   UNL     1      34.946 -24.494 -12.662  0.00  0.00    +0.123 C 
ENDBRANCH   4  11
ENDBRANCH   1   3
BRANCH   1  17
ATOM     17  C   UNL     1      34.551 -20.119 -21.363  0.00  0.00    +0.184 C 
BRANCH  17  18
ATOM     18  C   UNL     1      35.239 -18.792 -21.704  0.00  0.00    -0.017 C 
BRANCH  18  19
ATOM     19  N   UNL     1      36.403 -18.639 -20.827  0.00  0.00    +0.384 N 
ATOM     20  H   UNL     1      36.432 -17.685 -20.466  0.00  0.00    -0.089 HD
ATOM     21  H   UNL     1      37.254 -18.829 -21.356  0.00  0.00    -0.089 HD
ATOM     22  H   UNL     1      36.330 -19.295 -20.049  0.00  0.00    -0.089 HD
ENDBRANCH  18  19
BRANCH  18  23
ATOM     23  C   UNL     1      35.702 -18.709 -23.180  0.00  0.00    +0.010 C 
BRANCH  23  25
ATOM     24  N   UNL     1      33.720 -17.119 -25.921  0.00  0.00    -0.244 NA
ATOM     25  C   UNL     1      34.942 -17.759 -24.012  0.00  0.00    -0.004 C 
ATOM     26  C   UNL     1      34.578 -16.479 -23.878  0.00  0.00    +0.011 C 
ATOM     27  C   UNL     1      33.825 -16.072 -25.046  0.00  0.00    +0.080 C 
ATOM     28  C   UNL     1      34.359 -18.080 -25.325  0.00  0.00    +0.094 C 
ATOM     29  C   UNL     1      34.842 -15.571 -22.790  0.00  0.00    -0.020 C 
ATOM     30  C   UNL     1      33.345 -14.827 -25.155  0.00  0.00    +0.015 C 
ATOM     31  C   UNL     1      33.573 -13.801 -24.062  0.00  0.00    -0.020 C 
ATOM     32  C   UNL     1      34.370 -14.314 -22.876  0.00  0.00    +0.052 C 
ENDBRANCH  23  25
ENDBRANCH  18  23
ENDBRANCH  17  18
ENDBRANCH   1  17
TORSDOF 7
ENDMDL
MODEL 4
REMARK VINA RESULT:     -11.5      2.928     10.648
REMARK  Name = 46937052
REMARK  7 active torsions:
REMARK  status: ('A' for Active; 'I' for Inactive)
REMARK    1  A    between atoms: O_1  and  C_3
REMARK    2  A    between atoms: O_1  and  C_17
REMARK    3  A    between atoms: C_4  and  C_11
REMARK    4  A    between atoms: C_17  and  C_18
REMARK    5  A    between atoms: C_18  and  N_19
REMARK    6  A    between atoms: C_18  and  C_23
REMARK    7  A    between atoms: C_23  and  C_25
REMARK                            x       y       z     vdW  Elec       q    Type
REMARK                         _______ _______ _______ _____ _____    ______ ____
ROOT
ATOM      1  O   UNL     1      35.566 -17.748 -23.490  0.00  0.00    -0.476 OA
ENDROOT
BRANCH   1   3
ATOM      2  N   UNL     1      33.462 -16.393 -26.158  0.00  0.00    -0.239 NA
ATOM      3  C   UNL     1      34.782 -16.868 -24.189  0.00  0.00    +0.158 C 
ATOM      4  C   UNL     1      33.704 -14.730 -24.420  0.00  0.00    +0.039 C 
ATOM      5  C   UNL     1      34.504 -15.602 -23.689  0.00  0.00    +0.042 C 
ATOM      6  C   UNL     1      34.242 -17.213 -25.418  0.00  0.00    +0.136 C 
ATOM      7  C   UNL     1      33.212 -15.171 -25.639  0.00  0.00    +0.101 C 
BRANCH   4  11
ATOM      8  N   UNL     1      33.861 -12.354 -24.551  0.00  0.00    -0.264 NA
ATOM      9  N   UNL     1      32.354  -9.833 -22.289  0.00  0.00    -0.150 NA
ATOM     10  N   UNL     1      31.557 -10.258 -21.139  0.00  0.00    -0.147 NA
ATOM     11  C   UNL     1      33.388 -13.368 -23.912  0.00  0.00    +0.078 C 
ATOM     12  C   UNL     1      32.275 -12.099 -22.245  0.00  0.00    +0.040 C 
ATOM     13  C   UNL     1      32.756 -10.911 -22.907  0.00  0.00    +0.107 C 
ATOM     14  C   UNL     1      33.600 -10.977 -24.125  0.00  0.00    +0.173 C 
ATOM     15  C   UNL     1      32.552 -13.317 -22.680  0.00  0.00    +0.022 C 
ATOM     16  C   UNL     1      31.528 -11.560 -21.132  0.00  0.00    +0.123 C 
ENDBRANCH   4  11
ENDBRANCH   1   3
BRANCH   1  17
ATOM     17  C   UNL     1      34.989 -19.008 -23.172  0.00  0.00    +0.184 C 
BRANCH  17  18
ATOM     18  C   UNL     1      35.437 -19.466 -21.779  0.00  0.00    -0.017 C 
BRANCH  18  19
ATOM     19  N   UNL     1      35.551 -18.284 -20.921  0.00  0.00    +0.384 N 
ATOM     20  H   UNL     1      34.768 -18.261 -20.268  0.00  0.00    -0.089 HD
ATOM     21  H   UNL     1      35.538 -17.443 -21.497  0.00  0.00    -0.089 HD
ATOM     22  H   UNL     1      36.427 -18.326 -20.399  0.00  0.00    -0.089 HD
ENDBRANCH  18  19
BRANCH  18  23
ATOM     23  C   UNL     1      34.457 -20.472 -21.126  0.00  0.00    +0.010 C 
BRANCH  23  25
ATOM     24  N   UNL     1      36.720 -21.935 -18.535  0.00  0.00    -0.244 NA
ATOM     25  C   UNL     1      34.996 -21.187 -19.955  0.00  0.00    -0.004 C 
ATOM     26  C   UNL     1      34.453 -21.902 -18.963  0.00  0.00    +0.011 C 
ATOM     27  C   UNL     1      35.504 -22.369 -18.082  0.00  0.00    +0.080 C 
ATOM     28  C   UNL     1      36.423 -21.261 -19.605  0.00  0.00    +0.094 C 
ATOM     29  C   UNL     1      33.067 -22.213 -18.722  0.00  0.00    -0.020 C 
ATOM     30  C   UNL     1      35.219 -23.111 -17.005  0.00  0.00    +0.015 C 
ATOM     31  C   UNL     1      33.789 -23.489 -16.671  0.00  0.00    -0.020 C 
ATOM     32  C   UNL     1      32.754 -22.957 -17.646  0.00  0.00    +0.052 C 
ENDBRANCH  23  25
ENDBRANCH  18  23
ENDBRANCH  17  18
ENDBRANCH   1  17
TORSDOF 7
ENDMDL
MODEL 5
REMARK VINA RESULT:     -11.5      3.232      6.350
REMARK  Name = 46937052
REMARK  7 active torsions:
REMARK  status: ('A' for Active; 'I' for Inactive)
REMARK    1  A    between atoms: O_1  and  C_3
REMARK    2  A    between atoms: O_1  and  C_17
REMARK    3  A    between atoms: C_4  and  C_11
REMARK    4  A    between atoms: C_17  and  C_18
REMARK    5  A    between atoms: C_18  and  N_19
REMARK    6  A    between atoms: C_18  and  C_23
REMARK    7  A    between atoms: C_23  and  C_25
REMARK                            x       y       z     vdW  Elec       q    Type
REMARK                         _______ _______ _______ _____ _____    ______ ____
ROOT
ATOM      1  O   UNL     1      35.306 -15.402 -22.882  0.00  0.00    -0.476 OA
ENDROOT
BRANCH   1   3
ATOM      2  N   UNL     1      34.501 -18.573 -24.520  0.00  0.00    -0.239 NA
ATOM      3  C   UNL     1      35.106 -16.747 -23.056  0.00  0.00    +0.158 C 
ATOM      4  C   UNL     1      35.080 -18.999 -22.212  0.00  0.00    +0.039 C 
ATOM      5  C   UNL     1      35.289 -17.640 -22.006  0.00  0.00    +0.042 C 
ATOM      6  C   UNL     1      34.716 -17.259 -24.282  0.00  0.00    +0.136 C 
ATOM      7  C   UNL     1      34.690 -19.411 -23.477  0.00  0.00    +0.101 C 
BRANCH   4  11
ATOM      8  N   UNL     1      36.459 -20.181 -20.665  0.00  0.00    -0.264 NA
ATOM      9  N   UNL     1      35.431 -22.688 -18.136  0.00  0.00    -0.150 NA
ATOM     10  N   UNL     1      34.026 -23.073 -18.007  0.00  0.00    -0.147 NA
ATOM     11  C   UNL     1      35.266 -19.981 -21.110  0.00  0.00    +0.078 C 
ATOM     12  C   UNL     1      34.209 -21.526 -19.651  0.00  0.00    +0.040 C 
ATOM     13  C   UNL     1      35.509 -21.799 -19.089  0.00  0.00    +0.107 C 
ATOM     14  C   UNL     1      36.736 -21.126 -19.581  0.00  0.00    +0.173 C 
ATOM     15  C   UNL     1      34.028 -20.660 -20.635  0.00  0.00    +0.022 C 
ATOM     16  C   UNL     1      33.345 -22.396 -18.888  0.00  0.00    +0.123 C 
ENDBRANCH   4  11
ENDBRANCH   1   3
BRANCH   1  17
ATOM     17  C   UNL     1      34.170 -14.626 -22.524  0.00  0.00    +0.184 C 
BRANCH  17  18
ATOM     18  C   UNL     1      33.785 -13.680 -23.668  0.00  0.00    -0.017 C 
BRANCH  18  19
ATOM     19  N   UNL     1      33.008 -14.440 -24.650  0.00  0.00    +0.384 N 
ATOM     20  H   UNL     1      32.030 -14.468 -24.361  0.00  0.00    -0.089 HD
ATOM     21  H   UNL     1      33.372 -15.391 -24.710  0.00  0.00    -0.089 HD
ATOM     22  H   UNL     1      33.080 -13.990 -25.563  0.00  0.00    -0.089 HD
ENDBRANCH  18  19
BRANCH  18  23
ATOM     23  C   UNL     1      32.952 -12.463 -23.195  0.00  0.00    +0.010 C 
BRANCH  23  25
ATOM     24  N   UNL     1      35.022  -9.712 -24.650  0.00  0.00    -0.244 NA
ATOM     25  C   UNL     1      33.540 -11.151 -23.519  0.00  0.00    -0.004 C 
ATOM     26  C   UNL     1      33.319  -9.897 -23.106  0.00  0.00    +0.011 C 
ATOM     27  C   UNL     1      34.225  -9.001 -23.794  0.00  0.00    +0.080 C 
ATOM     28  C   UNL     1      34.627 -10.938 -24.489  0.00  0.00    +0.094 C 
ATOM     29  C   UNL     1      32.362  -9.417 -22.142  0.00  0.00    -0.020 C 
ATOM     30  C   UNL     1      34.204  -7.685 -23.554  0.00  0.00    +0.015 C 
ATOM     31  C   UNL     1      33.232  -7.086 -22.556  0.00  0.00    -0.020 C 
ATOM     32  C   UNL     1      32.321  -8.097 -21.883  0.00  0.00    +0.052 C 
ENDBRANCH  23  25
ENDBRANCH  18  23
ENDBRANCH  17  18
ENDBRANCH   1  17
TORSDOF 7
ENDMDL
MODEL 6
REMARK VINA RESULT:     -11.3      2.140     10.325
REMARK  Name = 46937052
REMARK  7 active torsions:
REMARK  status: ('A' for Active; 'I' for Inactive)
REMARK    1  A    between atoms: O_1  and  C_3
REMARK    2  A    between atoms: O_1  and  C_17
REMARK    3  A    between atoms: C_4  and  C_11
REMARK    4  A    between atoms: C_17  and  C_18
REMARK    5  A    between atoms: C_18  and  N_19
REMARK    6  A    between atoms: C_18  and  C_23
REMARK    7  A    between atoms: C_23  and  C_25
REMARK                            x       y       z     vdW  Elec       q    Type
REMARK                         _______ _______ _______ _____ _____    ______ ____
ROOT
ATOM      1  O   UNL     1      36.014 -22.771 -18.376  0.00  0.00    -0.476 OA
ENDROOT
BRANCH   1   3
ATOM      2  N   UNL     1      32.661 -21.815 -19.482  0.00  0.00    -0.239 NA
ATOM      3  C   UNL     1      35.022 -22.119 -19.061  0.00  0.00    +0.158 C 
ATOM      4  C   UNL     1      34.295 -20.493 -20.678  0.00  0.00    +0.039 C 
ATOM      5  C   UNL     1      35.323 -21.138 -19.999  0.00  0.00    +0.042 C 
ATOM      6  C   UNL     1      33.687 -22.418 -18.841  0.00  0.00    +0.136 C 
ATOM      7  C   UNL     1      32.992 -20.866 -20.386  0.00  0.00    +0.101 C 
BRANCH   4  11
ATOM      8  N   UNL     1      35.263 -18.409 -21.317  0.00  0.00    -0.264 NA
ATOM      9  N   UNL     1      35.192 -16.779 -24.646  0.00  0.00    -0.150 NA
ATOM     10  N   UNL     1      34.495 -17.415 -25.763  0.00  0.00    -0.147 NA
ATOM     11  C   UNL     1      34.583 -19.439 -21.687  0.00  0.00    +0.078 C 
ATOM     12  C   UNL     1      34.299 -18.738 -23.937  0.00  0.00    +0.040 C 
ATOM     13  C   UNL     1      35.063 -17.560 -23.607  0.00  0.00    +0.107 C 
ATOM     14  C   UNL     1      35.596 -17.324 -22.243  0.00  0.00    +0.173 C 
ATOM     15  C   UNL     1      34.029 -19.681 -23.049  0.00  0.00    +0.022 C 
ATOM     16  C   UNL     1      33.989 -18.534 -25.333  0.00  0.00    +0.123 C 
ENDBRANCH   4  11
ENDBRANCH   1   3
BRANCH   1  17
ATOM     17  C   UNL     1      36.189 -22.418 -17.011  0.00  0.00    +0.184 C 
BRANCH  17  18
ATOM     18  C   UNL     1      35.481 -23.430 -16.101  0.00  0.00    -0.017 C 
BRANCH  18  19
ATOM     19  N   UNL     1      36.503 -24.190 -15.377  0.00  0.00    +0.384 N 
ATOM     20  H   UNL     1      37.200 -24.537 -16.037  0.00  0.00    -0.089 HD
ATOM     21  H   UNL     1      36.066 -24.978 -14.898  0.00  0.00    -0.089 HD
ATOM     22  H   UNL     1      36.956 -23.584 -14.693  0.00  0.00    -0.089 HD
ENDBRANCH  18  19
BRANCH  18  23
ATOM     23  C   UNL     1      34.526 -22.765 -15.079  0.00  0.00    +0.010 C 
BRANCH  23  25
ATOM     24  N   UNL     1      32.421 -25.244 -13.236  0.00  0.00    -0.244 NA
ATOM     25  C   UNL     1      33.417 -23.622 -14.624  0.00  0.00    -0.004 C 
ATOM     26  C   UNL     1      32.151 -23.803 -15.017  0.00  0.00    +0.011 C 
ATOM     27  C   UNL     1      31.526 -24.799 -14.171  0.00  0.00    +0.080 C 
ATOM     28  C   UNL     1      33.499 -24.568 -13.500  0.00  0.00    +0.094 C 
ATOM     29  C   UNL     1      31.435 -23.161 -16.091  0.00  0.00    -0.020 C 
ATOM     30  C   UNL     1      30.251 -25.160 -14.362  0.00  0.00    +0.015 C 
ATOM     31  C   UNL     1      29.419 -24.541 -15.467  0.00  0.00    -0.020 C 
ATOM     32  C   UNL     1      30.152 -23.507 -16.302  0.00  0.00    +0.052 C 
ENDBRANCH  23  25
ENDBRANCH  18  23
ENDBRANCH  17  18
ENDBRANCH   1  17
TORSDOF 7
ENDMDL
MODEL 7
REMARK VINA RESULT:     -11.3      2.233      3.263
REMARK  Name = 46937052
REMARK  7 active torsions:
REMARK  status: ('A' for Active; 'I' for Inactive)
REMARK    1  A    between atoms: O_1  and  C_3
REMARK    2  A    between atoms: O_1  and  C_17
REMARK    3  A    between atoms: C_4  and  C_11
REMARK    4  A    between atoms: C_17  and  C_18
REMARK    5  A    between atoms: C_18  and  N_19
REMARK    6  A    between atoms: C_18  and  C_23
REMARK    7  A    between atoms: C_23  and  C_25
REMARK                            x       y       z     vdW  Elec       q    Type
REMARK                         _______ _______ _______ _____ _____    ______ ____
ROOT
ATOM      1  O   UNL     1      35.599 -21.158 -20.479  0.00  0.00    -0.476 OA
ENDROOT
BRANCH   1   3
ATOM      2  N   UNL     1      32.629 -22.454 -18.779  0.00  0.00    -0.239 NA
ATOM      3  C   UNL     1      34.822 -21.759 -19.522  0.00  0.00    +0.158 C 
ATOM      4  C   UNL     1      34.575 -22.878 -17.407  0.00  0.00    +0.039 C 
ATOM      5  C   UNL     1      35.387 -22.272 -18.360  0.00  0.00    +0.042 C 
ATOM      6  C   UNL     1      33.451 -21.874 -19.683  0.00  0.00    +0.136 C 
ATOM      7  C   UNL     1      33.214 -22.942 -17.663  0.00  0.00    +0.101 C 
BRANCH   4  11
ATOM      8  N   UNL     1      36.401 -23.729 -16.131  0.00  0.00    -0.264 NA
ATOM      9  N   UNL     1      36.382 -24.922 -12.622  0.00  0.00    -0.150 NA
ATOM     10  N   UNL     1      35.140 -24.919 -11.849  0.00  0.00    -0.147 NA
ATOM     11  C   UNL     1      35.147 -23.436 -16.153  0.00  0.00    +0.078 C 
ATOM     12  C   UNL     1      34.709 -24.112 -13.920  0.00  0.00    +0.040 C 
ATOM     13  C   UNL     1      36.106 -24.455 -13.810  0.00  0.00    +0.107 C 
ATOM     14  C   UNL     1      37.051 -24.280 -14.940  0.00  0.00    +0.173 C 
ATOM     15  C   UNL     1      34.184 -23.620 -15.030  0.00  0.00    +0.022 C 
ATOM     16  C   UNL     1      34.195 -24.454 -12.615  0.00  0.00    +0.123 C 
ENDBRANCH   4  11
ENDBRANCH   1   3
BRANCH   1  17
ATOM     17  C   UNL     1      34.952 -20.229 -21.338  0.00  0.00    +0.184 C 
BRANCH  17  18
ATOM     18  C   UNL     1      35.673 -18.876 -21.305  0.00  0.00    -0.017 C 
BRANCH  18  19
ATOM     19  N   UNL     1      37.000 -19.077 -20.717  0.00  0.00    +0.384 N 
ATOM     20  H   UNL     1      37.685 -19.210 -21.461  0.00  0.00    -0.089 HD
ATOM     21  H   UNL     1      36.986 -19.902 -20.117  0.00  0.00    -0.089 HD
ATOM     22  H   UNL     1      37.255 -18.258 -20.164  0.00  0.00    -0.089 HD
ENDBRANCH  18  19
BRANCH  18  23
ATOM     23  C   UNL     1      35.832 -18.237 -22.707  0.00  0.00    +0.010 C 
BRANCH  23  25
ATOM     24  N   UNL     1      34.559 -14.774 -22.108  0.00  0.00    -0.244 NA
ATOM     25  C   UNL     1      35.202 -16.913 -22.855  0.00  0.00    -0.004 C 
ATOM     26  C   UNL     1      34.558 -16.288 -23.848  0.00  0.00    +0.011 C 
ATOM     27  C   UNL     1      34.156 -14.970 -23.401  0.00  0.00    +0.080 C 
ATOM     28  C   UNL     1      35.156 -15.886 -21.802  0.00  0.00    +0.094 C 
ATOM     29  C   UNL     1      34.263 -16.762 -25.176  0.00  0.00    -0.020 C 
ATOM     30  C   UNL     1      33.491 -14.142 -24.215  0.00  0.00    +0.015 C 
ATOM     31  C   UNL     1      33.135 -14.552 -25.630  0.00  0.00    -0.020 C 
ATOM     32  C   UNL     1      33.595 -15.947 -26.014  0.00  0.00    +0.052 C 
ENDBRANCH  23  25
ENDBRANCH  18  23
ENDBRANCH  17  18
ENDBRANCH   1  17
TORSDOF 7
ENDMDL
MODEL 8
REMARK VINA RESULT:     -11.1      6.903     11.087
REMARK  Name = 46937052
REMARK  7 active torsions:
REMARK  status: ('A' for Active; 'I' for Inactive)
REMARK    1  A    between atoms: O_1  and  C_3
REMARK    2  A    between atoms: O_1  and  C_17
REMARK    3  A    between atoms: C_4  and  C_11
REMARK    4  A    between atoms: C_17  and  C_18
REMARK    5  A    between atoms: C_18  and  N_19
REMARK    6  A    between atoms: C_18  and  C_23
REMARK    7  A    between atoms: C_23  and  C_25
REMARK                            x       y       z     vdW  Elec       q    Type
REMARK                         _______ _______ _______ _____ _____    ______ ____
ROOT
ATOM      1  O   UNL     1      31.929 -10.965 -21.283  0.00  0.00    -0.476 OA
ENDROOT
BRANCH   1   3
ATOM      2  N   UNL     1      33.649 -10.808 -24.508  0.00  0.00    -0.239 NA
ATOM      3  C   UNL     1      32.587 -11.378 -22.412  0.00  0.00    +0.158 C 
ATOM      4  C   UNL     1      33.536 -13.112 -23.782  0.00  0.00    +0.039 C 
ATOM      5  C   UNL     1      32.865 -12.722 -22.628  0.00  0.00    +0.042 C 
ATOM      6  C   UNL     1      32.997 -10.468 -23.373  0.00  0.00    +0.136 C 
ATOM      7  C   UNL     1      33.902 -12.124 -24.683  0.00  0.00    +0.101 C 
BRANCH   4  11
ATOM      8  N   UNL     1      33.395 -15.079 -25.125  0.00  0.00    -0.264 NA
ATOM      9  N   UNL     1      34.865 -18.415 -24.456  0.00  0.00    -0.150 NA
ATOM     10  N   UNL     1      35.633 -18.651 -23.234  0.00  0.00    -0.147 NA
ATOM     11  C   UNL     1      33.848 -14.543 -24.044  0.00  0.00    +0.078 C 
ATOM     12  C   UNL     1      34.929 -16.499 -23.246  0.00  0.00    +0.040 C 
ATOM     13  C   UNL     1      34.471 -17.170 -24.438  0.00  0.00    +0.107 C 
ATOM     14  C   UNL     1      33.654 -16.479 -25.466  0.00  0.00    +0.173 C 
ATOM     15  C   UNL     1      34.656 -15.229 -22.997  0.00  0.00    +0.022 C 
ATOM     16  C   UNL     1      35.653 -17.540 -22.555  0.00  0.00    +0.123 C 
ENDBRANCH   4  11
ENDBRANCH   1   3
BRANCH   1  17
ATOM     17  C   UNL     1      31.351  -9.667 -21.316  0.00  0.00    +0.184 C 
BRANCH  17  18
ATOM     18  C   UNL     1      31.926  -8.795 -20.193  0.00  0.00    -0.017 C 
BRANCH  18  19
ATOM     19  N   UNL     1      32.451  -9.678 -19.148  0.00  0.00    +0.384 N 
ATOM     20  H   UNL     1      32.914 -10.477 -19.580  0.00  0.00    -0.089 HD
ATOM     21  H   UNL     1      31.683 -10.006 -18.563  0.00  0.00    -0.089 HD
ATOM     22  H   UNL     1      33.122  -9.165 -18.576  0.00  0.00    -0.089 HD
ENDBRANCH  18  19
BRANCH  18  23
ATOM     23  C   UNL     1      33.057  -7.852 -20.675  0.00  0.00    +0.010 C 
BRANCH  23  25
ATOM     24  N   UNL     1      31.234  -5.082 -22.400  0.00  0.00    -0.244 NA
ATOM     25  C   UNL     1      32.631  -6.817 -21.633  0.00  0.00    -0.004 C 
ATOM     26  C   UNL     1      33.091  -6.387 -22.814  0.00  0.00    +0.011 C 
ATOM     27  C   UNL     1      32.240  -5.319 -23.297  0.00  0.00    +0.080 C 
ATOM     28  C   UNL     1      31.462  -5.941 -21.452  0.00  0.00    +0.094 C 
ATOM     29  C   UNL     1      34.234  -6.844 -23.562  0.00  0.00    -0.020 C 
ATOM     30  C   UNL     1      32.490  -4.716 -24.466  0.00  0.00    +0.015 C 
ATOM     31  C   UNL     1      33.670  -5.130 -25.323  0.00  0.00    -0.020 C 
ATOM     32  C   UNL     1      34.507  -6.254 -24.740  0.00  0.00    +0.052 C 
ENDBRANCH  23  25
ENDBRANCH  18  23
ENDBRANCH  17  18
ENDBRANCH   1  17
TORSDOF 7
ENDMDL
MODEL 9
REMARK VINA RESULT:     -11.1      3.560      6.825
REMARK  Name = 46937052
REMARK  7 active torsions:
REMARK  status: ('A' for Active; 'I' for Inactive)
REMARK    1  A    between atoms: O_1  and  C_3
REMARK    2  A    between atoms: O_1  and  C_17
REMARK    3  A    between atoms: C_4  and  C_11
REMARK    4  A    between atoms: C_17  and  C_18
REMARK    5  A    between atoms: C_18  and  N_19
REMARK    6  A    between atoms: C_18  and  C_23
REMARK    7  A    between atoms: C_23  and  C_25
REMARK                            x       y       z     vdW  Elec       q    Type
REMARK                         _______ _______ _______ _____ _____    ______ ____
ROOT
ATOM      1  O   UNL     1      35.072 -15.038 -22.974  0.00  0.00    -0.476 OA
ENDROOT
BRANCH   1   3
ATOM      2  N   UNL     1      34.547 -18.209 -24.721  0.00  0.00    -0.239 NA
ATOM      3  C   UNL     1      34.978 -16.388 -23.191  0.00  0.00    +0.158 C 
ATOM      4  C   UNL     1      35.100 -18.660 -22.411  0.00  0.00    +0.039 C 
ATOM      5  C   UNL     1      35.202 -17.296 -22.162  0.00  0.00    +0.042 C 
ATOM      6  C   UNL     1      34.657 -16.890 -24.441  0.00  0.00    +0.136 C 
ATOM      7  C   UNL     1      34.773 -19.061 -23.697  0.00  0.00    +0.101 C 
BRANCH   4  11
ATOM      8  N   UNL     1      36.530 -19.792 -20.874  0.00  0.00    -0.264 NA
ATOM      9  N   UNL     1      35.629 -22.429 -18.429  0.00  0.00    -0.150 NA
ATOM     10  N   UNL     1      34.250 -22.906 -18.334  0.00  0.00    -0.147 NA
ATOM     11  C   UNL     1      35.333 -19.658 -21.333  0.00  0.00    +0.078 C 
ATOM     12  C   UNL     1      34.357 -21.307 -19.933  0.00  0.00    +0.040 C 
ATOM     13  C   UNL     1      35.663 -21.511 -19.357  0.00  0.00    +0.107 C 
ATOM     14  C   UNL     1      36.852 -20.747 -19.811  0.00  0.00    +0.173 C 
ATOM     15  C   UNL     1      34.135 -20.428 -20.896  0.00  0.00    +0.022 C 
ATOM     16  C   UNL     1      33.540 -22.251 -19.207  0.00  0.00    +0.123 C 
ENDBRANCH   4  11
ENDBRANCH   1   3
BRANCH   1  17
ATOM     17  C   UNL     1      34.089 -14.454 -22.130  0.00  0.00    +0.184 C 
BRANCH  17  18
ATOM     18  C   UNL     1      33.520 -13.182 -22.770  0.00  0.00    -0.017 C 
BRANCH  18  19
ATOM     19  N   UNL     1      33.429 -13.396 -24.217  0.00  0.00    +0.384 N 
ATOM     20  H   UNL     1      32.794 -12.709 -24.623  0.00  0.00    -0.089 HD
ATOM     21  H   UNL     1      33.077 -14.336 -24.400  0.00  0.00    -0.089 HD
ATOM     22  H   UNL     1      34.354 -13.292 -24.634  0.00  0.00    -0.089 HD
ENDBRANCH  18  19
BRANCH  18  23
ATOM     23  C   UNL     1      32.120 -12.802 -22.226  0.00  0.00    +0.010 C 
BRANCH  23  25
ATOM     24  N   UNL     1      31.904 -10.181 -19.570  0.00  0.00    -0.244 NA
ATOM     25  C   UNL     1      32.068 -11.520 -21.500  0.00  0.00    -0.004 C 
ATOM     26  C   UNL     1      32.118 -10.234 -21.866  0.00  0.00    +0.011 C 
ATOM     27  C   UNL     1      32.018  -9.399 -20.687  0.00  0.00    +0.080 C 
ATOM     28  C   UNL     1      31.933 -11.392 -20.040  0.00  0.00    +0.094 C 
ATOM     29  C   UNL     1      32.249  -9.671 -23.186  0.00  0.00    -0.020 C 
ATOM     30  C   UNL     1      32.044  -8.064 -20.786  0.00  0.00    +0.015 C 
ATOM     31  C   UNL     1      32.179  -7.381 -22.132  0.00  0.00    -0.020 C 
ATOM     32  C   UNL     1      32.278  -8.332 -23.312  0.00  0.00    +0.052 C 
ENDBRANCH  23  25
ENDBRANCH  18  23
ENDBRANCH  17  18
ENDBRANCH   1  17
TORSDOF 7
ENDMDL
