MODEL 1
REMARK VINA RESULT:     -12.4      0.000      0.000
REMARK  Name = 10138993
REMARK  4 active torsions:
REMARK  status: ('A' for Active; 'I' for Inactive)
REMARK    1  A    between atoms: C_5  and  N_18
REMARK    2  A    between atoms: C_12  and  C_22
REMARK    3  A    between atoms: C_22  and  C_26
REMARK    4  A    between atoms: C_23  and  N_29
REMARK                            x       y       z     vdW  Elec       q    Type
REMARK                         _______ _______ _______ _____ _____    ______ ____
ROOT
ATOM      1  O   UNL     1      33.371 -21.377 -20.450  0.00  0.00    -0.274 OA
ATOM      2  N   UNL     1      32.343 -23.502 -16.972  0.00  0.00    -0.275 N 
ATOM      3  N   UNL     1      34.858 -21.943 -18.723  0.00  0.00    -0.268 N 
ATOM      4  N   UNL     1      32.743 -22.819 -18.057  0.00  0.00    -0.157 NA
ATOM      5  C   UNL     1      35.710 -23.913 -14.672  0.00  0.00    +0.069 C 
ATOM      6  C   UNL     1      35.694 -23.252 -15.907  0.00  0.00    +0.020 C 
ATOM      7  C   UNL     1      34.547 -24.480 -14.146  0.00  0.00    +0.018 C 
ATOM      8  C   UNL     1      34.480 -23.172 -16.610  0.00  0.00    +0.052 A 
ATOM      9  C   UNL     1      33.338 -23.746 -16.064  0.00  0.00    +0.077 A 
ATOM     10  C   UNL     1      33.331 -24.409 -14.835  0.00  0.00    +0.020 C 
ATOM     11  C   UNL     1      34.034 -22.629 -17.822  0.00  0.00    +0.155 A 
ATOM     12  C   UNL     1      34.486 -21.379 -19.940  0.00  0.00    +0.232 C 
ATOM     13  H   UNL     1      31.414 -23.802 -16.841  0.00  0.00    +0.189 HD
ATOM     14  H   UNL     1      35.804 -21.849 -18.468  0.00  0.00    +0.156 HD
ENDROOT
BRANCH   5  18
ATOM     15  S   UNL     1      38.221 -25.016 -14.564  0.00  0.00    +0.057 S 
ATOM     16  O   UNL     1      37.671 -26.245 -15.101  0.00  0.00    -0.154 OA
ATOM     17  O   UNL     1      39.154 -24.199 -15.311  0.00  0.00    -0.154 OA
ATOM     18  N   UNL     1      36.953 -24.008 -13.928  0.00  0.00    -0.194 N 
ATOM     19  C   UNL     1      38.917 -25.380 -12.960  0.00  0.00    +0.174 C 
ATOM     20  C   UNL     1      38.402 -24.282 -12.044  0.00  0.00    +0.051 C 
ATOM     21  C   UNL     1      36.944 -24.053 -12.438  0.00  0.00    +0.117 C 
ENDBRANCH   5  18
BRANCH  12  22
ATOM     22  C   UNL     1      35.682 -20.718 -20.621  0.00  0.00    +0.112 C 
BRANCH  22  26
ATOM     23  C   UNL     1      34.638 -17.385 -23.142  0.00  0.00    +0.048 C 
ATOM     24  C   UNL     1      34.505 -18.710 -23.601  0.00  0.00    +0.014 C 
ATOM     25  C   UNL     1      35.122 -17.181 -21.836  0.00  0.00    +0.014 C 
ATOM     26  C   UNL     1      35.321 -19.564 -21.493  0.00  0.00    -0.013 C 
ATOM     27  C   UNL     1      34.843 -19.789 -22.785  0.00  0.00    -0.003 C 
ATOM     28  C   UNL     1      35.460 -18.260 -21.020  0.00  0.00    -0.003 C 
BRANCH  23  29
ATOM     29  N   UNL     1      34.298 -16.302 -23.962  0.00  0.00    -0.307 N 
ATOM     30  C   UNL     1      33.726 -14.086 -25.721  0.00  0.00    +0.004 C 
ATOM     31  C   UNL     1      33.626 -13.945 -24.208  0.00  0.00    +0.021 C 
ATOM     32  C   UNL     1      33.436 -15.524 -26.136  0.00  0.00    +0.021 C 
ATOM     33  C   UNL     1      34.541 -14.934 -23.487  0.00  0.00    +0.091 C 
ATOM     34  C   UNL     1      34.356 -16.508 -25.416  0.00  0.00    +0.091 C 
ENDBRANCH  23  29
ENDBRANCH  22  26
ENDBRANCH  12  22
TORSDOF 4
ENDMDL
MODEL 2
REMARK VINA RESULT:     -12.1      0.451      1.308
REMARK  Name = 10138993
REMARK  4 active torsions:
REMARK  status: ('A' for Active; 'I' for Inactive)
REMARK    1  A    between atoms: C_5  and  N_18
REMARK    2  A    between atoms: C_12  and  C_22
REMARK    3  A    between atoms: C_22  and  C_26
REMARK    4  A    between atoms: C_23  and  N_29
REMARK                            x       y       z     vdW  Elec       q    Type
REMARK                         _______ _______ _______ _____ _____    ______ ____
ROOT
ATOM      1  O   UNL     1      33.479 -21.112 -20.748  0.00  0.00    -0.274 OA
ATOM      2  N   UNL     1      32.412 -23.394 -17.383  0.00  0.00    -0.275 N 
ATOM      3  N   UNL     1      34.918 -21.659 -18.974  0.00  0.00    -0.268 N 
ATOM      4  N   UNL     1      32.824 -22.659 -18.429  0.00  0.00    -0.157 NA
ATOM      5  C   UNL     1      35.694 -23.712 -14.949  0.00  0.00    +0.069 C 
ATOM      6  C   UNL     1      35.697 -23.014 -16.163  0.00  0.00    +0.020 C 
ATOM      7  C   UNL     1      34.539 -24.352 -14.492  0.00  0.00    +0.018 C 
ATOM      8  C   UNL     1      34.513 -22.971 -16.917  0.00  0.00    +0.052 A 
ATOM      9  C   UNL     1      33.378 -23.618 -16.440  0.00  0.00    +0.077 A 
ATOM     10  C   UNL     1      33.352 -24.319 -15.232  0.00  0.00    +0.020 C 
ATOM     11  C   UNL     1      34.091 -22.413 -18.131  0.00  0.00    +0.155 A 
ATOM     12  C   UNL     1      34.570 -21.076 -20.189  0.00  0.00    +0.232 C 
ATOM     13  H   UNL     1      31.495 -23.743 -17.303  0.00  0.00    +0.189 HD
ATOM     14  H   UNL     1      35.846 -21.527 -18.674  0.00  0.00    +0.156 HD
ENDROOT
BRANCH   5  18
ATOM     15  S   UNL     1      38.176 -24.848 -14.660  0.00  0.00    +0.057 S 
ATOM     16  O   UNL     1      37.620 -26.106 -15.118  0.00  0.00    -0.154 OA
ATOM     17  O   UNL     1      39.152 -24.110 -15.433  0.00  0.00    -0.154 OA
ATOM     18  N   UNL     1      36.908 -23.769 -14.154  0.00  0.00    -0.194 N 
ATOM     19  C   UNL     1      38.806 -25.094 -13.007  0.00  0.00    +0.174 C 
ATOM     20  C   UNL     1      38.281 -23.918 -12.201  0.00  0.00    +0.051 C 
ATOM     21  C   UNL     1      36.844 -23.695 -12.666  0.00  0.00    +0.117 C 
ENDBRANCH   5  18
BRANCH  12  22
ATOM     22  C   UNL     1      35.759 -20.336 -20.796  0.00  0.00    +0.112 C 
BRANCH  22  26
ATOM     23  C   UNL     1      34.658 -16.973 -23.253  0.00  0.00    +0.048 C 
ATOM     24  C   UNL     1      35.090 -16.789 -21.926  0.00  0.00    +0.014 C 
ATOM     25  C   UNL     1      34.595 -18.287 -23.755  0.00  0.00    +0.014 C 
ATOM     26  C   UNL     1      35.378 -19.172 -21.648  0.00  0.00    -0.013 C 
ATOM     27  C   UNL     1      35.447 -17.878 -21.130  0.00  0.00    -0.003 C 
ATOM     28  C   UNL     1      34.952 -19.376 -22.959  0.00  0.00    -0.003 C 
BRANCH  23  29
ATOM     29  N   UNL     1      34.300 -15.880 -24.052  0.00  0.00    -0.307 N 
ATOM     30  C   UNL     1      33.438 -13.614 -25.619  0.00  0.00    +0.004 C 
ATOM     31  C   UNL     1      33.874 -14.917 -26.279  0.00  0.00    +0.021 C 
ATOM     32  C   UNL     1      34.160 -13.431 -24.289  0.00  0.00    +0.021 C 
ATOM     33  C   UNL     1      33.664 -16.115 -25.354  0.00  0.00    +0.091 C 
ATOM     34  C   UNL     1      33.943 -14.629 -23.368  0.00  0.00    +0.091 C 
ENDBRANCH  23  29
ENDBRANCH  22  26
ENDBRANCH  12  22
TORSDOF 4
ENDMDL
MODEL 3
REMARK VINA RESULT:     -11.1      1.758      2.263
REMARK  Name = 10138993
REMARK  4 active torsions:
REMARK  status: ('A' for Active; 'I' for Inactive)
REMARK    1  A    between atoms: C_5  and  N_18
REMARK    2  A    between atoms: C_12  and  C_22
REMARK    3  A    between atoms: C_22  and  C_26
REMARK    4  A    between atoms: C_23  and  N_29
REMARK                            x       y       z     vdW  Elec       q    Type
REMARK                         _______ _______ _______ _____ _____    ______ ____
ROOT
ATOM      1  O   UNL     1      32.873 -22.140 -19.217  0.00  0.00    -0.274 OA
ATOM      2  N   UNL     1      31.699 -23.716 -15.502  0.00  0.00    -0.275 N 
ATOM      3  N   UNL     1      34.338 -22.933 -17.562  0.00  0.00    -0.268 N 
ATOM      4  N   UNL     1      32.147 -23.224 -16.669  0.00  0.00    -0.157 NA
ATOM      5  C   UNL     1      35.071 -24.776 -13.429  0.00  0.00    +0.069 C 
ATOM      6  C   UNL     1      35.098 -24.215 -14.711  0.00  0.00    +0.020 C 
ATOM      7  C   UNL     1      33.861 -25.008 -12.771  0.00  0.00    +0.018 C 
ATOM      8  C   UNL     1      33.878 -23.890 -15.328  0.00  0.00    +0.052 A 
ATOM      9  C   UNL     1      32.687 -24.133 -14.652  0.00  0.00    +0.077 A 
ATOM     10  C   UNL     1      32.638 -24.691 -13.372  0.00  0.00    +0.020 C 
ATOM     11  C   UNL     1      33.462 -23.337 -16.547  0.00  0.00    +0.155 A 
ATOM     12  C   UNL     1      33.998 -22.378 -18.792  0.00  0.00    +0.232 C 
ATOM     13  H   UNL     1      30.742 -23.773 -15.278  0.00  0.00    +0.189 HD
ATOM     14  H   UNL     1      35.299 -23.054 -17.386  0.00  0.00    +0.156 HD
ENDROOT
BRANCH   5  18
ATOM     15  S   UNL     1      36.936 -24.039 -11.555  0.00  0.00    +0.057 S 
ATOM     16  O   UNL     1      36.753 -22.659 -11.960  0.00  0.00    -0.154 OA
ATOM     17  O   UNL     1      36.540 -24.517 -10.247  0.00  0.00    -0.154 OA
ATOM     18  N   UNL     1      36.321 -25.119 -12.773  0.00  0.00    -0.194 N 
ATOM     19  C   UNL     1      38.644 -24.475 -11.844  0.00  0.00    +0.174 C 
ATOM     20  C   UNL     1      38.598 -25.818 -12.553  0.00  0.00    +0.051 C 
ATOM     21  C   UNL     1      37.439 -25.732 -13.544  0.00  0.00    +0.117 C 
ENDBRANCH   5  18
BRANCH  12  22
ATOM     22  C   UNL     1      35.249 -22.073 -19.614  0.00  0.00    +0.112 C 
BRANCH  22  26
ATOM     23  C   UNL     1      34.889 -18.588 -22.120  0.00  0.00    +0.048 C 
ATOM     24  C   UNL     1      36.115 -18.917 -21.510  0.00  0.00    +0.014 C 
ATOM     25  C   UNL     1      33.785 -19.430 -21.889  0.00  0.00    +0.014 C 
ATOM     26  C   UNL     1      35.124 -20.867 -20.482  0.00  0.00    -0.013 C 
ATOM     27  C   UNL     1      36.232 -20.046 -20.698  0.00  0.00    -0.003 C 
ATOM     28  C   UNL     1      33.901 -20.558 -21.077  0.00  0.00    -0.003 C 
BRANCH  23  29
ATOM     29  N   UNL     1      34.773 -17.455 -22.936  0.00  0.00    -0.307 N 
ATOM     30  C   UNL     1      34.662 -15.158 -24.679  0.00  0.00    +0.004 C 
ATOM     31  C   UNL     1      34.493 -15.020 -23.172  0.00  0.00    +0.021 C 
ATOM     32  C   UNL     1      34.177 -16.528 -25.139  0.00  0.00    +0.021 C 
ATOM     33  C   UNL     1      35.196 -16.148 -22.419  0.00  0.00    +0.091 C 
ATOM     34  C   UNL     1      34.887 -17.652 -24.388  0.00  0.00    +0.091 C 
ENDBRANCH  23  29
ENDBRANCH  22  26
ENDBRANCH  12  22
TORSDOF 4
ENDMDL
MODEL 4
REMARK VINA RESULT:     -10.1      3.387      5.101
REMARK  Name = 10138993
REMARK  4 active torsions:
REMARK  status: ('A' for Active; 'I' for Inactive)
REMARK    1  A    between atoms: C_5  and  N_18
REMARK    2  A    between atoms: C_12  and  C_22
REMARK    3  A    between atoms: C_22  and  C_26
REMARK    4  A    between atoms: C_23  and  N_29
REMARK                            x       y       z     vdW  Elec       q    Type
REMARK                         _______ _______ _______ _____ _____    ______ ____
ROOT
ATOM      1  O   UNL     1      37.308 -22.313 -18.133  0.00  0.00    -0.274 OA
ATOM      2  N   UNL     1      35.377 -23.047 -14.472  0.00  0.00    -0.275 N 
ATOM      3  N   UNL     1      35.001 -22.662 -17.868  0.00  0.00    -0.268 N 
ATOM      4  N   UNL     1      35.926 -22.817 -15.677  0.00  0.00    -0.157 NA
ATOM      5  C   UNL     1      31.370 -23.503 -15.199  0.00  0.00    +0.069 C 
ATOM      6  C   UNL     1      32.312 -23.246 -16.203  0.00  0.00    +0.020 C 
ATOM      7  C   UNL     1      31.758 -23.623 -13.863  0.00  0.00    +0.018 C 
ATOM      8  C   UNL     1      33.662 -23.107 -15.837  0.00  0.00    +0.052 A 
ATOM      9  C   UNL     1      34.020 -23.230 -14.500  0.00  0.00    +0.077 A 
ATOM     10  C   UNL     1      33.097 -23.487 -13.483  0.00  0.00    +0.020 C 
ATOM     11  C   UNL     1      34.878 -22.857 -16.487  0.00  0.00    +0.155 A 
ATOM     12  C   UNL     1      36.170 -22.410 -18.580  0.00  0.00    +0.232 C 
ATOM     13  H   UNL     1      35.904 -23.080 -13.642  0.00  0.00    +0.189 HD
ATOM     14  H   UNL     1      34.170 -22.707 -18.393  0.00  0.00    +0.156 HD
ENDROOT
BRANCH   5  18
ATOM     15  S   UNL     1      29.280 -25.248 -15.547  0.00  0.00    +0.057 S 
ATOM     16  O   UNL     1      30.213 -26.208 -16.104  0.00  0.00    -0.154 OA
ATOM     17  O   UNL     1      28.606 -25.473 -14.285  0.00  0.00    -0.154 OA
ATOM     18  N   UNL     1      29.969 -23.651 -15.555  0.00  0.00    -0.194 N 
ATOM     19  C   UNL     1      28.063 -24.873 -16.800  0.00  0.00    +0.174 C 
ATOM     20  C   UNL     1      27.949 -23.358 -16.803  0.00  0.00    +0.051 C 
ATOM     21  C   UNL     1      29.373 -22.827 -16.645  0.00  0.00    +0.117 C 
ENDBRANCH   5  18
BRANCH  12  22
ATOM     22  C   UNL     1      35.877 -22.259 -20.071  0.00  0.00    +0.112 C 
BRANCH  22  26
ATOM     23  C   UNL     1      35.135 -18.200 -21.306  0.00  0.00    +0.048 C 
ATOM     24  C   UNL     1      34.085 -19.136 -21.227  0.00  0.00    +0.014 C 
ATOM     25  C   UNL     1      36.433 -18.628 -20.970  0.00  0.00    +0.014 C 
ATOM     26  C   UNL     1      35.621 -20.854 -20.498  0.00  0.00    -0.013 C 
ATOM     27  C   UNL     1      34.326 -20.451 -20.827  0.00  0.00    -0.003 C 
ATOM     28  C   UNL     1      36.674 -19.943 -20.570  0.00  0.00    -0.003 C 
BRANCH  23  29
ATOM     29  N   UNL     1      34.893 -16.880 -21.707  0.00  0.00    -0.307 N 
ATOM     30  C   UNL     1      34.537 -14.150 -22.575  0.00  0.00    +0.004 C 
ATOM     31  C   UNL     1      34.116 -14.602 -21.182  0.00  0.00    +0.021 C 
ATOM     32  C   UNL     1      34.444 -15.314 -23.556  0.00  0.00    +0.021 C 
ATOM     33  C   UNL     1      34.932 -15.805 -20.709  0.00  0.00    +0.091 C 
ATOM     34  C   UNL     1      35.265 -16.510 -23.080  0.00  0.00    +0.091 C 
ENDBRANCH  23  29
ENDBRANCH  22  26
ENDBRANCH  12  22
TORSDOF 4
ENDMDL
MODEL 5
REMARK VINA RESULT:     -10.0      9.058     15.856
REMARK  Name = 10138993
REMARK  4 active torsions:
REMARK  status: ('A' for Active; 'I' for Inactive)
REMARK    1  A    between atoms: C_5  and  N_18
REMARK    2  A    between atoms: C_12  and  C_22
REMARK    3  A    between atoms: C_22  and  C_26
REMARK    4  A    between atoms: C_23  and  N_29
REMARK                            x       y       z     vdW  Elec       q    Type
REMARK                         _______ _______ _______ _____ _____    ______ ____
ROOT
ATOM      1  O   UNL     1      32.683 -11.891 -22.288  0.00  0.00    -0.274 OA
ATOM      2  N   UNL     1      31.734  -8.190 -20.535  0.00  0.00    -0.275 N 
ATOM      3  N   UNL     1      32.832  -9.808 -23.363  0.00  0.00    -0.268 N 
ATOM      4  N   UNL     1      32.055  -9.335 -21.160  0.00  0.00    -0.157 NA
ATOM      5  C   UNL     1      32.360  -5.248 -23.319  0.00  0.00    +0.069 C 
ATOM      6  C   UNL     1      32.578  -6.608 -23.570  0.00  0.00    +0.020 C 
ATOM      7  C   UNL     1      31.903  -4.813 -22.073  0.00  0.00    +0.018 C 
ATOM      8  C   UNL     1      32.330  -7.530 -22.540  0.00  0.00    +0.052 A 
ATOM      9  C   UNL     1      31.878  -7.069 -21.308  0.00  0.00    +0.077 A 
ATOM     10  C   UNL     1      31.652  -5.718 -21.036  0.00  0.00    +0.020 C 
ATOM     11  C   UNL     1      32.412  -8.918 -22.366  0.00  0.00    +0.155 A 
ATOM     12  C   UNL     1      32.937 -11.192 -23.264  0.00  0.00    +0.232 C 
ATOM     13  H   UNL     1      31.424  -8.159 -19.601  0.00  0.00    +0.189 HD
ATOM     14  H   UNL     1      33.079  -9.411 -24.229  0.00  0.00    +0.156 HD
ENDROOT
BRANCH   5  18
ATOM     15  S   UNL     1      31.513  -2.936 -24.531  0.00  0.00    +0.057 S 
ATOM     16  O   UNL     1      30.144  -3.371 -24.337  0.00  0.00    -0.154 OA
ATOM     17  O   UNL     1      32.060  -1.786 -23.842  0.00  0.00    -0.154 OA
ATOM     18  N   UNL     1      32.609  -4.278 -24.370  0.00  0.00    -0.194 N 
ATOM     19  C   UNL     1      31.789  -2.750 -26.286  0.00  0.00    +0.174 C 
ATOM     20  C   UNL     1      33.110  -3.449 -26.558  0.00  0.00    +0.051 C 
ATOM     21  C   UNL     1      33.100  -4.717 -25.708  0.00  0.00    +0.117 C 
ENDBRANCH   5  18
BRANCH  12  22
ATOM     22  C   UNL     1      33.431 -11.795 -24.577  0.00  0.00    +0.112 C 
BRANCH  22  26
ATOM     23  C   UNL     1      34.131 -16.042 -24.398  0.00  0.00    +0.048 C 
ATOM     24  C   UNL     1      33.453 -15.465 -25.490  0.00  0.00    +0.014 C 
ATOM     25  C   UNL     1      34.574 -15.191 -23.366  0.00  0.00    +0.014 C 
ATOM     26  C   UNL     1      33.674 -13.266 -24.514  0.00  0.00    -0.013 C 
ATOM     27  C   UNL     1      33.226 -14.090 -25.548  0.00  0.00    -0.003 C 
ATOM     28  C   UNL     1      34.346 -13.816 -23.424  0.00  0.00    -0.003 C 
BRANCH  23  29
ATOM     29  N   UNL     1      34.359 -17.423 -24.340  0.00  0.00    -0.307 N 
ATOM     30  C   UNL     1      34.975 -20.240 -24.227  0.00  0.00    +0.004 C 
ATOM     31  C   UNL     1      33.985 -19.684 -25.242  0.00  0.00    +0.021 C 
ATOM     32  C   UNL     1      34.985 -19.375 -22.973  0.00  0.00    +0.021 C 
ATOM     33  C   UNL     1      34.275 -18.219 -25.570  0.00  0.00    +0.091 C 
ATOM     34  C   UNL     1      35.281 -17.914 -23.305  0.00  0.00    +0.091 C 
ENDBRANCH  23  29
ENDBRANCH  22  26
ENDBRANCH  12  22
TORSDOF 4
ENDMDL
MODEL 6
REMARK VINA RESULT:      -9.8      5.695     10.337
REMARK  Name = 10138993
REMARK  4 active torsions:
REMARK  status: ('A' for Active; 'I' for Inactive)
REMARK    1  A    between atoms: C_5  and  N_18
REMARK    2  A    between atoms: C_12  and  C_22
REMARK    3  A    between atoms: C_22  and  C_26
REMARK    4  A    between atoms: C_23  and  N_29
REMARK                            x       y       z     vdW  Elec       q    Type
REMARK                         _______ _______ _______ _____ _____    ______ ____
ROOT
ATOM      1  O   UNL     1      33.422 -12.103 -25.393  0.00  0.00    -0.274 OA
ATOM      2  N   UNL     1      33.554 -16.159 -26.490  0.00  0.00    -0.275 N 
ATOM      3  N   UNL     1      33.937 -13.880 -23.944  0.00  0.00    -0.268 N 
ATOM      4  N   UNL     1      33.531 -14.884 -26.068  0.00  0.00    -0.157 NA
ATOM      5  C   UNL     1      34.549 -18.358 -23.177  0.00  0.00    +0.069 C 
ATOM      6  C   UNL     1      34.417 -16.963 -23.168  0.00  0.00    +0.020 C 
ATOM      7  C   UNL     1      34.341 -19.090 -24.348  0.00  0.00    +0.018 C 
ATOM      8  C   UNL     1      34.071 -16.313 -24.364  0.00  0.00    +0.052 A 
ATOM      9  C   UNL     1      33.872 -17.067 -25.515  0.00  0.00    +0.077 A 
ATOM     10  C   UNL     1      33.998 -18.458 -25.547  0.00  0.00    +0.020 C 
ATOM     11  C   UNL     1      33.845 -14.996 -24.785  0.00  0.00    +0.155 A 
ATOM     12  C   UNL     1      33.727 -12.548 -24.291  0.00  0.00    +0.232 C 
ATOM     13  H   UNL     1      33.360 -16.418 -27.419  0.00  0.00    +0.189 HD
ATOM     14  H   UNL     1      34.177 -14.056 -23.006  0.00  0.00    +0.156 HD
ENDROOT
BRANCH   5  18
ATOM     15  S   UNL     1      36.462 -18.729 -21.245  0.00  0.00    +0.057 S 
ATOM     16  O   UNL     1      37.478 -18.634 -22.276  0.00  0.00    -0.154 OA
ATOM     17  O   UNL     1      36.321 -17.729 -20.208  0.00  0.00    -0.154 OA
ATOM     18  N   UNL     1      34.905 -19.050 -21.951  0.00  0.00    -0.194 N 
ATOM     19  C   UNL     1      36.597 -20.341 -20.487  0.00  0.00    +0.174 C 
ATOM     20  C   UNL     1      35.175 -20.873 -20.426  0.00  0.00    +0.051 C 
ATOM     21  C   UNL     1      34.519 -20.475 -21.746  0.00  0.00    +0.117 C 
ENDBRANCH   5  18
BRANCH  12  22
ATOM     22  C   UNL     1      33.924 -11.635 -23.083  0.00  0.00    +0.112 C 
BRANCH  22  26
ATOM     23  C   UNL     1      32.940  -7.508 -23.830  0.00  0.00    +0.048 C 
ATOM     24  C   UNL     1      34.247  -7.990 -24.037  0.00  0.00    +0.014 C 
ATOM     25  C   UNL     1      31.963  -8.414 -23.373  0.00  0.00    +0.014 C 
ATOM     26  C   UNL     1      33.582 -10.206 -23.342  0.00  0.00    -0.013 C 
ATOM     27  C   UNL     1      34.566  -9.326 -23.795  0.00  0.00    -0.003 C 
ATOM     28  C   UNL     1      32.282  -9.750 -23.131  0.00  0.00    -0.003 C 
BRANCH  23  29
ATOM     29  N   UNL     1      32.620  -6.166 -24.074  0.00  0.00    -0.307 N 
ATOM     30  C   UNL     1      32.094  -3.364 -24.524  0.00  0.00    +0.004 C 
ATOM     31  C   UNL     1      31.119  -4.241 -23.749  0.00  0.00    +0.021 C 
ATOM     32  C   UNL     1      32.860  -4.202 -25.542  0.00  0.00    +0.021 C 
ATOM     33  C   UNL     1      31.826  -5.424 -23.089  0.00  0.00    +0.091 C 
ATOM     34  C   UNL     1      33.568  -5.379 -24.876  0.00  0.00    +0.091 C 
ENDBRANCH  23  29
ENDBRANCH  22  26
ENDBRANCH  12  22
TORSDOF 4
ENDMDL
MODEL 7
REMARK VINA RESULT:      -9.6     12.444     18.291
REMARK  Name = 10138993
REMARK  4 active torsions:
REMARK  status: ('A' for Active; 'I' for Inactive)
REMARK    1  A    between atoms: C_5  and  N_18
REMARK    2  A    between atoms: C_12  and  C_22
REMARK    3  A    between atoms: C_22  and  C_26
REMARK    4  A    between atoms: C_23  and  N_29
REMARK                            x       y       z     vdW  Elec       q    Type
REMARK                         _______ _______ _______ _____ _____    ______ ____
ROOT
ATOM      1  O   UNL     1      30.977  -5.914 -21.188  0.00  0.00    -0.274 OA
ATOM      2  N   UNL     1      30.543  -3.156 -24.330  0.00  0.00    -0.275 N 
ATOM      3  N   UNL     1      32.537  -5.569 -22.909  0.00  0.00    -0.268 N 
ATOM      4  N   UNL     1      30.749  -4.057 -23.356  0.00  0.00    -0.157 NA
ATOM      5  C   UNL     1      33.852  -3.412 -26.735  0.00  0.00    +0.069 C 
ATOM      6  C   UNL     1      33.667  -4.195 -25.588  0.00  0.00    +0.020 C 
ATOM      7  C   UNL     1      32.890  -2.479 -27.129  0.00  0.00    +0.018 C 
ATOM      8  C   UNL     1      32.492  -4.023 -24.838  0.00  0.00    +0.052 A 
ATOM      9  C   UNL     1      31.552  -3.085 -25.252  0.00  0.00    +0.077 A 
ATOM     10  C   UNL     1      31.715  -2.294 -26.392  0.00  0.00    +0.020 C 
ATOM     11  C   UNL     1      31.928  -4.569 -23.678  0.00  0.00    +0.155 A 
ATOM     12  C   UNL     1      32.039  -6.158 -21.751  0.00  0.00    +0.232 C 
ATOM     13  H   UNL     1      29.736  -2.594 -24.376  0.00  0.00    +0.189 HD
ATOM     14  H   UNL     1      33.413  -5.891 -23.222  0.00  0.00    +0.156 HD
ENDROOT
BRANCH   5  18
ATOM     15  S   UNL     1      34.916  -3.568 -29.259  0.00  0.00    +0.057 S 
ATOM     16  O   UNL     1      33.742  -4.310 -29.676  0.00  0.00    -0.154 OA
ATOM     17  O   UNL     1      35.206  -2.241 -29.759  0.00  0.00    -0.154 OA
ATOM     18  N   UNL     1      35.059  -3.575 -27.525  0.00  0.00    -0.194 N 
ATOM     19  C   UNL     1      36.344  -4.611 -29.513  0.00  0.00    +0.174 C 
ATOM     20  C   UNL     1      37.148  -4.505 -28.228  0.00  0.00    +0.051 C 
ATOM     21  C   UNL     1      36.129  -4.517 -27.090  0.00  0.00    +0.117 C 
ENDBRANCH   5  18
BRANCH  12  22
ATOM     22  C   UNL     1      33.008  -7.210 -21.216  0.00  0.00    +0.112 C 
BRANCH  22  26
ATOM     23  C   UNL     1      33.239 -10.767 -23.634  0.00  0.00    +0.048 C 
ATOM     24  C   UNL     1      32.315 -10.670 -22.575  0.00  0.00    +0.014 C 
ATOM     25  C   UNL     1      34.085  -9.668 -23.880  0.00  0.00    +0.014 C 
ATOM     26  C   UNL     1      33.088  -8.441 -22.053  0.00  0.00    -0.013 C 
ATOM     27  C   UNL     1      32.240  -9.519 -21.792  0.00  0.00    -0.003 C 
ATOM     28  C   UNL     1      34.010  -8.517 -23.097  0.00  0.00    -0.003 C 
BRANCH  23  29
ATOM     29  N   UNL     1      33.314 -11.924 -24.421  0.00  0.00    -0.307 N 
ATOM     30  C   UNL     1      33.601 -14.333 -25.984  0.00  0.00    +0.004 C 
ATOM     31  C   UNL     1      33.233 -13.004 -26.633  0.00  0.00    +0.021 C 
ATOM     32  C   UNL     1      33.094 -14.375 -24.547  0.00  0.00    +0.021 C 
ATOM     33  C   UNL     1      33.748 -11.817 -25.819  0.00  0.00    +0.091 C 
ATOM     34  C   UNL     1      33.616 -13.189 -23.738  0.00  0.00    +0.091 C 
ENDBRANCH  23  29
ENDBRANCH  22  26
ENDBRANCH  12  22
TORSDOF 4
ENDMDL
MODEL 8
REMARK VINA RESULT:      -9.4      2.851      4.464
REMARK  Name = 10138993
REMARK  4 active torsions:
REMARK  status: ('A' for Active; 'I' for Inactive)
REMARK    1  A    between atoms: C_5  and  N_18
REMARK    2  A    between atoms: C_12  and  C_22
REMARK    3  A    between atoms: C_22  and  C_26
REMARK    4  A    between atoms: C_23  and  N_29
REMARK                            x       y       z     vdW  Elec       q    Type
REMARK                         _______ _______ _______ _____ _____    ______ ____
ROOT
ATOM      1  O   UNL     1      37.425 -21.235 -19.726  0.00  0.00    -0.274 OA
ATOM      2  N   UNL     1      36.533 -22.582 -15.845  0.00  0.00    -0.275 N 
ATOM      3  N   UNL     1      35.358 -22.120 -19.044  0.00  0.00    -0.268 N 
ATOM      4  N   UNL     1      36.746 -22.171 -17.106  0.00  0.00    -0.157 NA
ATOM      5  C   UNL     1      32.657 -23.912 -15.802  0.00  0.00    +0.069 C 
ATOM      6  C   UNL     1      33.283 -23.393 -16.943  0.00  0.00    +0.020 C 
ATOM      7  C   UNL     1      33.341 -24.008 -14.589  0.00  0.00    +0.018 C 
ATOM      8  C   UNL     1      34.617 -22.966 -16.841  0.00  0.00    +0.052 A 
ATOM      9  C   UNL     1      35.274 -23.071 -15.620  0.00  0.00    +0.077 A 
ATOM     10  C   UNL     1      34.670 -23.586 -14.471  0.00  0.00    +0.020 C 
ATOM     11  C   UNL     1      35.582 -22.409 -17.691  0.00  0.00    +0.155 A 
ATOM     12  C   UNL     1      36.265 -21.569 -19.945  0.00  0.00    +0.232 C 
ATOM     13  H   UNL     1      37.222 -22.535 -15.144  0.00  0.00    +0.189 HD
ATOM     14  H   UNL     1      34.463 -22.329 -19.395  0.00  0.00    +0.156 HD
ENDROOT
BRANCH   5  18
ATOM     15  S   UNL     1      30.020 -23.157 -15.902  0.00  0.00    +0.057 S 
ATOM     16  O   UNL     1      30.320 -22.095 -14.963  0.00  0.00    -0.154 OA
ATOM     17  O   UNL     1      29.632 -22.889 -17.271  0.00  0.00    -0.154 OA
ATOM     18  N   UNL     1      31.278 -24.360 -15.885  0.00  0.00    -0.194 N 
ATOM     19  C   UNL     1      28.804 -24.229 -15.150  0.00  0.00    +0.174 C 
ATOM     20  C   UNL     1      29.321 -25.639 -15.378  0.00  0.00    +0.051 C 
ATOM     21  C   UNL     1      30.830 -25.577 -15.151  0.00  0.00    +0.117 C 
ENDBRANCH   5  18
BRANCH  12  22
ATOM     22  C   UNL     1      35.631 -21.414 -21.326  0.00  0.00    +0.112 C 
BRANCH  22  26
ATOM     23  C   UNL     1      34.773 -17.334 -22.408  0.00  0.00    +0.048 C 
ATOM     24  C   UNL     1      34.547 -18.386 -23.316  0.00  0.00    +0.014 C 
ATOM     25  C   UNL     1      35.286 -17.653 -21.136  0.00  0.00    +0.014 C 
ATOM     26  C   UNL     1      35.334 -20.001 -21.700  0.00  0.00    -0.013 C 
ATOM     27  C   UNL     1      34.826 -19.708 -22.966  0.00  0.00    -0.003 C 
ATOM     28  C   UNL     1      35.565 -18.974 -20.786  0.00  0.00    -0.003 C 
BRANCH  23  29
ATOM     29  N   UNL     1      34.493 -16.007 -22.760  0.00  0.00    -0.307 N 
ATOM     30  C   UNL     1      34.040 -13.273 -23.565  0.00  0.00    +0.004 C 
ATOM     31  C   UNL     1      34.007 -13.685 -22.099  0.00  0.00    +0.021 C 
ATOM     32  C   UNL     1      33.619 -14.440 -24.449  0.00  0.00    +0.021 C 
ATOM     33  C   UNL     1      34.864 -14.924 -21.841  0.00  0.00    +0.091 C 
ATOM     34  C   UNL     1      34.481 -15.674 -24.192  0.00  0.00    +0.091 C 
ENDBRANCH  23  29
ENDBRANCH  22  26
ENDBRANCH  12  22
TORSDOF 4
ENDMDL
