MODEL 1
REMARK VINA RESULT:     -11.6      0.000      0.000
REMARK  Name = 66000
REMARK  8 active torsions:
REMARK  status: ('A' for Active; 'I' for Inactive)
REMARK    1  A    between atoms: C_1  and  O_19
REMARK    2  A    between atoms: C_4  and  C_7
REMARK    3  A    between atoms: C_10  and  C_15
REMARK    4  A    between atoms: O_19  and  C_20
REMARK    5  A    between atoms: C_20  and  C_24
REMARK    6  A    between atoms: C_23  and  C_28
REMARK    7  A    between atoms: C_28  and  C_30
REMARK    8  A    between atoms: C_30  and  O_31
REMARK                            x       y       z     vdW  Elec       q    Type
REMARK                         _______ _______ _______ _____ _____    ______ ____
ROOT
ATOM      1  C   UNL     1      34.844 -23.177 -17.428  0.00  0.00    +0.139 C 
ATOM      2  C   UNL     1      33.694 -22.903 -18.157  0.00  0.00    +0.037 C 
ATOM      3  C   UNL     1      36.046 -22.549 -17.731  0.00  0.00    +0.037 C 
ATOM      4  C   UNL     1      34.949 -21.352 -19.519  0.00  0.00    +0.000 C 
ATOM      5  C   UNL     1      33.747 -21.987 -19.207  0.00  0.00    +0.003 C 
ATOM      6  C   UNL     1      36.099 -21.634 -18.782  0.00  0.00    +0.003 C 
ENDROOT
BRANCH   4   7
ATOM      7  C   UNL     1      35.004 -20.402 -20.609  0.00  0.00    +0.000 C 
ATOM      8  C   UNL     1      36.177 -19.686 -20.852  0.00  0.00    +0.000 C 
ATOM      9  C   UNL     1      33.885 -20.202 -21.419  0.00  0.00    +0.000 C 
ATOM     10  C   UNL     1      35.112 -18.572 -22.712  0.00  0.00    +0.031 C 
ATOM     11  C   UNL     1      36.231 -18.771 -21.903  0.00  0.00    +0.003 C 
ATOM     12  C   UNL     1      33.939 -19.287 -22.470  0.00  0.00    +0.003 C 
BRANCH  10  15
ATOM     13  N   UNL     1      34.644 -17.921 -25.063  0.00  0.00    -0.343 N 
ATOM     14  N   UNL     1      35.731 -16.436 -23.623  0.00  0.00    -0.285 NA
ATOM     15  C   UNL     1      35.168 -17.617 -23.808  0.00  0.00    +0.117 C 
ATOM     16  H   UNL     1      34.694 -17.259 -25.790  0.00  0.00    +0.144 HD
ATOM     17  H   UNL     1      34.224 -18.796 -25.221  0.00  0.00    +0.144 HD
ATOM     18  H   UNL     1      35.771 -15.788 -24.363  0.00  0.00    +0.188 HD
ENDBRANCH  10  15
ENDBRANCH   4   7
BRANCH   1  19
ATOM     19  O   UNL     1      34.792 -24.080 -16.394  0.00  0.00    -0.474 OA
BRANCH  19  20
ATOM     20  C   UNL     1      35.296 -23.652 -15.141  0.00  0.00    +0.225 C 
BRANCH  20  24
ATOM     21  O   UNL     1      36.871 -27.633 -16.109  0.00  0.00    -0.275 OA
ATOM     22  N   UNL     1      35.457 -26.094 -15.057  0.00  0.00    -0.302 N 
ATOM     23  C   UNL     1      37.758 -25.688 -14.925  0.00  0.00    +0.089 C 
ATOM     24  C   UNL     1      35.584 -24.879 -14.287  0.00  0.00    +0.116 C 
ATOM     25  C   UNL     1      37.029 -24.941 -13.803  0.00  0.00    +0.033 C 
ATOM     26  C   UNL     1      36.685 -26.625 -15.445  0.00  0.00    +0.223 C 
ATOM     27  H   UNL     1      34.592 -26.504 -15.284  0.00  0.00    +0.149 HD
BRANCH  23  28
ATOM     28  C   UNL     1      38.999 -26.420 -14.447  0.00  0.00    +0.118 C 
BRANCH  28  30
ATOM     29  O   UNL     1      40.963 -24.985 -14.299  0.00  0.00    -0.250 OA
ATOM     30  C   UNL     1      40.266 -25.762 -14.932  0.00  0.00    +0.314 C 
BRANCH  30  31
ATOM     31  O   UNL     1      40.541 -26.160 -16.201  0.00  0.00    -0.480 OA
ATOM     32  H   UNL     1      41.261 -25.781 -16.666  0.00  0.00    +0.295 HD
ENDBRANCH  30  31
ENDBRANCH  28  30
ENDBRANCH  23  28
ENDBRANCH  20  24
ENDBRANCH  19  20
ENDBRANCH   1  19
TORSDOF 8
ENDMDL
MODEL 2
REMARK VINA RESULT:     -11.0      1.573      2.495
REMARK  Name = 66000
REMARK  8 active torsions:
REMARK  status: ('A' for Active; 'I' for Inactive)
REMARK    1  A    between atoms: C_1  and  O_19
REMARK    2  A    between atoms: C_4  and  C_7
REMARK    3  A    between atoms: C_10  and  C_15
REMARK    4  A    between atoms: O_19  and  C_20
REMARK    5  A    between atoms: C_20  and  C_24
REMARK    6  A    between atoms: C_23  and  C_28
REMARK    7  A    between atoms: C_28  and  C_30
REMARK    8  A    between atoms: C_30  and  O_31
REMARK                            x       y       z     vdW  Elec       q    Type
REMARK                         _______ _______ _______ _____ _____    ______ ____
ROOT
ATOM      1  C   UNL     1      34.835 -22.503 -18.635  0.00  0.00    +0.139 C 
ATOM      2  C   UNL     1      33.625 -22.081 -19.175  0.00  0.00    +0.037 C 
ATOM      3  C   UNL     1      36.035 -21.947 -19.059  0.00  0.00    +0.037 C 
ATOM      4  C   UNL     1      34.817 -20.527 -20.588  0.00  0.00    +0.000 C 
ATOM      5  C   UNL     1      33.617 -21.090 -20.155  0.00  0.00    +0.003 C 
ATOM      6  C   UNL     1      36.027 -20.956 -20.041  0.00  0.00    +0.003 C 
ENDROOT
BRANCH   4   7
ATOM      7  C   UNL     1      34.809 -19.498 -21.605  0.00  0.00    +0.000 C 
ATOM      8  C   UNL     1      34.252 -19.760 -22.857  0.00  0.00    +0.000 C 
ATOM      9  C   UNL     1      35.358 -18.245 -21.335  0.00  0.00    +0.000 C 
ATOM     10  C   UNL     1      34.791 -17.515 -23.567  0.00  0.00    +0.031 C 
ATOM     11  C   UNL     1      34.243 -18.768 -23.838  0.00  0.00    +0.003 C 
ATOM     12  C   UNL     1      35.349 -17.253 -22.316  0.00  0.00    +0.003 C 
BRANCH  10  15
ATOM     13  N   UNL     1      34.604 -15.138 -24.264  0.00  0.00    -0.343 N 
ATOM     14  N   UNL     1      34.940 -16.811 -25.861  0.00  0.00    -0.285 NA
ATOM     15  C   UNL     1      34.782 -16.481 -24.591  0.00  0.00    +0.117 C 
ATOM     16  H   UNL     1      34.601 -14.456 -24.973  0.00  0.00    +0.144 HD
ATOM     17  H   UNL     1      34.481 -14.873 -23.325  0.00  0.00    +0.144 HD
ATOM     18  H   UNL     1      34.934 -16.114 -26.555  0.00  0.00    +0.188 HD
ENDBRANCH  10  15
ENDBRANCH   4   7
BRANCH   1  19
ATOM     19  O   UNL     1      34.843 -23.479 -17.670  0.00  0.00    -0.474 OA
BRANCH  19  20
ATOM     20  C   UNL     1      34.161 -23.194 -16.461  0.00  0.00    +0.225 C 
BRANCH  20  24
ATOM     21  O   UNL     1      34.572 -24.830 -12.408  0.00  0.00    -0.275 OA
ATOM     22  N   UNL     1      34.612 -23.167 -14.055  0.00  0.00    -0.302 N 
ATOM     23  C   UNL     1      35.789 -25.139 -14.505  0.00  0.00    +0.089 C 
ATOM     24  C   UNL     1      35.192 -22.972 -15.362  0.00  0.00    +0.116 C 
ATOM     25  C   UNL     1      36.317 -24.000 -15.385  0.00  0.00    +0.033 C 
ATOM     26  C   UNL     1      34.935 -24.400 -13.493  0.00  0.00    +0.223 C 
ATOM     27  H   UNL     1      34.047 -22.498 -13.606  0.00  0.00    +0.149 HD
BRANCH  23  28
ATOM     28  C   UNL     1      36.893 -25.956 -13.860  0.00  0.00    +0.118 C 
BRANCH  28  30
ATOM     29  O   UNL     1      38.661 -27.358 -14.780  0.00  0.00    -0.250 OA
ATOM     30  C   UNL     1      37.520 -26.926 -14.829  0.00  0.00    +0.314 C 
BRANCH  30  31
ATOM     31  O   UNL     1      36.625 -27.267 -15.792  0.00  0.00    -0.480 OA
ATOM     32  H   UNL     1      36.709 -28.084 -16.242  0.00  0.00    +0.295 HD
ENDBRANCH  30  31
ENDBRANCH  28  30
ENDBRANCH  23  28
ENDBRANCH  20  24
ENDBRANCH  19  20
ENDBRANCH   1  19
TORSDOF 8
ENDMDL
MODEL 3
REMARK VINA RESULT:     -11.0      1.916      2.929
REMARK  Name = 66000
REMARK  8 active torsions:
REMARK  status: ('A' for Active; 'I' for Inactive)
REMARK    1  A    between atoms: C_1  and  O_19
REMARK    2  A    between atoms: C_4  and  C_7
REMARK    3  A    between atoms: C_10  and  C_15
REMARK    4  A    between atoms: O_19  and  C_20
REMARK    5  A    between atoms: C_20  and  C_24
REMARK    6  A    between atoms: C_23  and  C_28
REMARK    7  A    between atoms: C_28  and  C_30
REMARK    8  A    between atoms: C_30  and  O_31
REMARK                            x       y       z     vdW  Elec       q    Type
REMARK                         _______ _______ _______ _____ _____    ______ ____
ROOT
ATOM      1  C   UNL     1      34.844 -22.532 -18.461  0.00  0.00    +0.139 C 
ATOM      2  C   UNL     1      36.042 -21.966 -18.881  0.00  0.00    +0.037 C 
ATOM      3  C   UNL     1      33.638 -22.155 -19.038  0.00  0.00    +0.037 C 
ATOM      4  C   UNL     1      34.826 -20.621 -20.478  0.00  0.00    +0.000 C 
ATOM      5  C   UNL     1      36.033 -21.007 -19.893  0.00  0.00    +0.003 C 
ATOM      6  C   UNL     1      33.629 -21.194 -20.050  0.00  0.00    +0.003 C 
ENDROOT
BRANCH   4   7
ATOM      7  C   UNL     1      34.816 -19.625 -21.527  0.00  0.00    +0.000 C 
ATOM      8  C   UNL     1      35.428 -18.389 -21.321  0.00  0.00    +0.000 C 
ATOM      9  C   UNL     1      34.196 -19.901 -22.746  0.00  0.00    +0.000 C 
ATOM     10  C   UNL     1      34.799 -17.706 -23.552  0.00  0.00    +0.031 C 
ATOM     11  C   UNL     1      35.420 -17.428 -22.334  0.00  0.00    +0.003 C 
ATOM     12  C   UNL     1      34.187 -18.941 -23.758  0.00  0.00    +0.003 C 
BRANCH  10  15
ATOM     13  N   UNL     1      34.702 -15.344 -24.316  0.00  0.00    -0.343 N 
ATOM     14  N   UNL     1      34.862 -17.081 -25.872  0.00  0.00    -0.285 NA
ATOM     15  C   UNL     1      34.790 -16.704 -24.607  0.00  0.00    +0.117 C 
ATOM     16  H   UNL     1      34.697 -14.684 -25.046  0.00  0.00    +0.144 HD
ATOM     17  H   UNL     1      34.644 -15.045 -23.381  0.00  0.00    +0.144 HD
ATOM     18  H   UNL     1      34.855 -16.405 -26.588  0.00  0.00    +0.188 HD
ENDBRANCH  10  15
ENDBRANCH   4   7
BRANCH   1  19
ATOM     19  O   UNL     1      34.853 -23.476 -17.465  0.00  0.00    -0.474 OA
BRANCH  19  20
ATOM     20  C   UNL     1      35.306 -23.059 -16.189  0.00  0.00    +0.225 C 
BRANCH  20  24
ATOM     21  O   UNL     1      38.842 -24.481 -14.009  0.00  0.00    -0.275 OA
ATOM     22  N   UNL     1      36.950 -24.680 -15.373  0.00  0.00    -0.302 N 
ATOM     23  C   UNL     1      36.682 -23.554 -13.339  0.00  0.00    +0.089 C 
ATOM     24  C   UNL     1      35.560 -24.294 -15.334  0.00  0.00    +0.116 C 
ATOM     25  C   UNL     1      35.323 -24.048 -13.848  0.00  0.00    +0.033 C 
ATOM     26  C   UNL     1      37.656 -24.296 -14.235  0.00  0.00    +0.223 C 
ATOM     27  H   UNL     1      37.357 -25.166 -16.125  0.00  0.00    +0.149 HD
BRANCH  23  28
ATOM     28  C   UNL     1      36.906 -23.836 -11.865  0.00  0.00    +0.118 C 
BRANCH  28  30
ATOM     29  O   UNL     1      36.977 -26.272 -11.879  0.00  0.00    -0.250 OA
ATOM     30  C   UNL     1      36.478 -25.230 -11.483  0.00  0.00    +0.314 C 
BRANCH  30  31
ATOM     31  O   UNL     1      35.434 -25.176 -10.615  0.00  0.00    -0.480 OA
ATOM     32  H   UNL     1      35.331 -25.842  -9.964  0.00  0.00    +0.295 HD
ENDBRANCH  30  31
ENDBRANCH  28  30
ENDBRANCH  23  28
ENDBRANCH  20  24
ENDBRANCH  19  20
ENDBRANCH   1  19
TORSDOF 8
ENDMDL
MODEL 4
REMARK VINA RESULT:     -10.7      1.623      2.181
REMARK  Name = 66000
REMARK  8 active torsions:
REMARK  status: ('A' for Active; 'I' for Inactive)
REMARK    1  A    between atoms: C_1  and  O_19
REMARK    2  A    between atoms: C_4  and  C_7
REMARK    3  A    between atoms: C_10  and  C_15
REMARK    4  A    between atoms: O_19  and  C_20
REMARK    5  A    between atoms: C_20  and  C_24
REMARK    6  A    between atoms: C_23  and  C_28
REMARK    7  A    between atoms: C_28  and  C_30
REMARK    8  A    between atoms: C_30  and  O_31
REMARK                            x       y       z     vdW  Elec       q    Type
REMARK                         _______ _______ _______ _____ _____    ______ ____
ROOT
ATOM      1  C   UNL     1      34.887 -22.663 -18.231  0.00  0.00    +0.139 C 
ATOM      2  C   UNL     1      33.699 -22.310 -18.861  0.00  0.00    +0.037 C 
ATOM      3  C   UNL     1      36.090 -22.073 -18.598  0.00  0.00    +0.037 C 
ATOM      4  C   UNL     1      34.919 -20.755 -20.250  0.00  0.00    +0.000 C 
ATOM      5  C   UNL     1      33.716 -21.352 -19.874  0.00  0.00    +0.003 C 
ATOM      6  C   UNL     1      36.106 -21.116 -19.612  0.00  0.00    +0.003 C 
ENDROOT
BRANCH   4   7
ATOM      7  C   UNL     1      34.937 -19.761 -21.301  0.00  0.00    +0.000 C 
ATOM      8  C   UNL     1      34.252 -19.996 -22.494  0.00  0.00    +0.000 C 
ATOM      9  C   UNL     1      35.638 -18.568 -21.123  0.00  0.00    +0.000 C 
ATOM     10  C   UNL     1      34.968 -17.845 -23.329  0.00  0.00    +0.031 C 
ATOM     11  C   UNL     1      34.268 -19.037 -23.508  0.00  0.00    +0.003 C 
ATOM     12  C   UNL     1      35.653 -17.610 -22.137  0.00  0.00    +0.003 C 
BRANCH  10  15
ATOM     13  N   UNL     1      34.605 -17.162 -25.689  0.00  0.00    -0.343 N 
ATOM     14  N   UNL     1      35.372 -15.611 -24.119  0.00  0.00    -0.285 NA
ATOM     15  C   UNL     1      34.985 -16.846 -24.386  0.00  0.00    +0.117 C 
ATOM     16  H   UNL     1      34.625 -16.471 -26.389  0.00  0.00    +0.144 HD
ATOM     17  H   UNL     1      34.317 -18.077 -25.909  0.00  0.00    +0.144 HD
ATOM     18  H   UNL     1      35.384 -14.934 -24.832  0.00  0.00    +0.188 HD
ENDBRANCH  10  15
ENDBRANCH   4   7
BRANCH   1  19
ATOM     19  O   UNL     1      34.870 -23.607 -17.234  0.00  0.00    -0.474 OA
BRANCH  19  20
ATOM     20  C   UNL     1      35.493 -23.260 -16.010  0.00  0.00    +0.225 C 
BRANCH  20  24
ATOM     21  O   UNL     1      37.768 -26.914 -15.147  0.00  0.00    -0.275 OA
ATOM     22  N   UNL     1      35.844 -25.629 -15.502  0.00  0.00    -0.302 N 
ATOM     23  C   UNL     1      37.399 -24.812 -13.956  0.00  0.00    +0.089 C 
ATOM     24  C   UNL     1      35.280 -24.393 -15.016  0.00  0.00    +0.116 C 
ATOM     25  C   UNL     1      36.025 -24.180 -13.703  0.00  0.00    +0.033 C 
ATOM     26  C   UNL     1      37.068 -25.940 -14.914  0.00  0.00    +0.223 C 
ATOM     27  H   UNL     1      35.409 -26.194 -16.180  0.00  0.00    +0.149 HD
BRANCH  23  28
ATOM     28  C   UNL     1      38.077 -25.295 -12.688  0.00  0.00    +0.118 C 
BRANCH  28  30
ATOM     29  O   UNL     1      38.707 -23.204 -11.606  0.00  0.00    -0.250 OA
ATOM     30  C   UNL     1      38.069 -24.246 -11.606  0.00  0.00    +0.314 C 
BRANCH  30  31
ATOM     31  O   UNL     1      37.235 -24.619 -10.601  0.00  0.00    -0.480 OA
ATOM     32  H   UNL     1      37.516 -24.555  -9.710  0.00  0.00    +0.295 HD
ENDBRANCH  30  31
ENDBRANCH  28  30
ENDBRANCH  23  28
ENDBRANCH  20  24
ENDBRANCH  19  20
ENDBRANCH   1  19
TORSDOF 8
ENDMDL
MODEL 5
REMARK VINA RESULT:     -10.6      4.887     10.795
REMARK  Name = 66000
REMARK  8 active torsions:
REMARK  status: ('A' for Active; 'I' for Inactive)
REMARK    1  A    between atoms: C_1  and  O_19
REMARK    2  A    between atoms: C_4  and  C_7
REMARK    3  A    between atoms: C_10  and  C_15
REMARK    4  A    between atoms: O_19  and  C_20
REMARK    5  A    between atoms: C_20  and  C_24
REMARK    6  A    between atoms: C_23  and  C_28
REMARK    7  A    between atoms: C_28  and  C_30
REMARK    8  A    between atoms: C_30  and  O_31
REMARK                            x       y       z     vdW  Elec       q    Type
REMARK                         _______ _______ _______ _____ _____    ______ ____
ROOT
ATOM      1  C   UNL     1      34.971 -20.859 -20.633  0.00  0.00    +0.139 C 
ATOM      2  C   UNL     1      35.819 -21.530 -19.761  0.00  0.00    +0.037 C 
ATOM      3  C   UNL     1      33.596 -20.864 -20.435  0.00  0.00    +0.037 C 
ATOM      4  C   UNL     1      33.904 -22.230 -18.466  0.00  0.00    +0.000 C 
ATOM      5  C   UNL     1      35.283 -22.219 -18.673  0.00  0.00    +0.003 C 
ATOM      6  C   UNL     1      33.060 -21.554 -19.347  0.00  0.00    +0.003 C 
ENDROOT
BRANCH   4   7
ATOM      7  C   UNL     1      33.347 -22.945 -17.338  0.00  0.00    +0.000 C 
ATOM      8  C   UNL     1      34.194 -23.516 -16.388  0.00  0.00    +0.000 C 
ATOM      9  C   UNL     1      31.964 -23.062 -17.200  0.00  0.00    +0.000 C 
ATOM     10  C   UNL     1      32.275 -24.321 -15.161  0.00  0.00    +0.031 C 
ATOM     11  C   UNL     1      33.658 -24.205 -15.299  0.00  0.00    +0.003 C 
ATOM     12  C   UNL     1      31.428 -23.751 -16.111  0.00  0.00    +0.003 C 
BRANCH  10  15
ATOM     13  N   UNL     1      30.381 -25.441 -14.007  0.00  0.00    -0.343 N 
ATOM     14  N   UNL     1      32.479 -25.319 -12.984  0.00  0.00    -0.285 NA
ATOM     15  C   UNL     1      31.716 -25.040 -14.027  0.00  0.00    +0.117 C 
ATOM     16  H   UNL     1      30.024 -25.925 -13.229  0.00  0.00    +0.144 HD
ATOM     17  H   UNL     1      29.796 -25.239 -14.772  0.00  0.00    +0.144 HD
ATOM     18  H   UNL     1      32.103 -25.805 -12.215  0.00  0.00    +0.188 HD
ENDBRANCH  10  15
ENDBRANCH   4   7
BRANCH   1  19
ATOM     19  O   UNL     1      35.499 -20.182 -21.705  0.00  0.00    -0.474 OA
BRANCH  19  20
ATOM     20  C   UNL     1      34.671 -19.214 -22.325  0.00  0.00    +0.225 C 
BRANCH  20  24
ATOM     21  O   UNL     1      32.626 -18.690 -26.174  0.00  0.00    -0.275 OA
ATOM     22  N   UNL     1      34.276 -19.498 -24.725  0.00  0.00    -0.302 N 
ATOM     23  C   UNL     1      33.849 -17.198 -24.674  0.00  0.00    +0.089 C 
ATOM     24  C   UNL     1      35.184 -18.966 -23.737  0.00  0.00    +0.116 C 
ATOM     25  C   UNL     1      35.240 -17.485 -24.098  0.00  0.00    +0.033 C 
ATOM     26  C   UNL     1      33.483 -18.521 -25.320  0.00  0.00    +0.223 C 
ATOM     27  H   UNL     1      34.224 -20.453 -24.954  0.00  0.00    +0.149 HD
BRANCH  23  28
ATOM     28  C   UNL     1      33.836 -16.040 -25.654  0.00  0.00    +0.118 C 
BRANCH  28  30
ATOM     29  O   UNL     1      33.446 -14.396 -23.898  0.00  0.00    -0.250 OA
ATOM     30  C   UNL     1      33.266 -14.786 -25.041  0.00  0.00    +0.314 C 
BRANCH  30  31
ATOM     31  O   UNL     1      32.504 -14.126 -25.952  0.00  0.00    -0.480 OA
ATOM     32  H   UNL     1      32.369 -14.493 -26.803  0.00  0.00    +0.295 HD
ENDBRANCH  30  31
ENDBRANCH  28  30
ENDBRANCH  23  28
ENDBRANCH  20  24
ENDBRANCH  19  20
ENDBRANCH   1  19
TORSDOF 8
ENDMDL
MODEL 6
REMARK VINA RESULT:     -10.5      3.121      5.102
REMARK  Name = 66000
REMARK  8 active torsions:
REMARK  status: ('A' for Active; 'I' for Inactive)
REMARK    1  A    between atoms: C_1  and  O_19
REMARK    2  A    between atoms: C_4  and  C_7
REMARK    3  A    between atoms: C_10  and  C_15
REMARK    4  A    between atoms: O_19  and  C_20
REMARK    5  A    between atoms: C_20  and  C_24
REMARK    6  A    between atoms: C_23  and  C_28
REMARK    7  A    between atoms: C_28  and  C_30
REMARK    8  A    between atoms: C_30  and  O_31
REMARK                            x       y       z     vdW  Elec       q    Type
REMARK                         _______ _______ _______ _____ _____    ______ ____
ROOT
ATOM      1  C   UNL     1      35.207 -22.405 -18.387  0.00  0.00    +0.139 C 
ATOM      2  C   UNL     1      36.366 -21.803 -18.861  0.00  0.00    +0.037 C 
ATOM      3  C   UNL     1      33.968 -22.090 -18.929  0.00  0.00    +0.037 C 
ATOM      4  C   UNL     1      35.044 -20.545 -20.443  0.00  0.00    +0.000 C 
ATOM      5  C   UNL     1      36.283 -20.869 -19.893  0.00  0.00    +0.003 C 
ATOM      6  C   UNL     1      33.885 -21.155 -19.961  0.00  0.00    +0.003 C 
ENDROOT
BRANCH   4   7
ATOM      7  C   UNL     1      34.958 -19.576 -21.514  0.00  0.00    +0.000 C 
ATOM      8  C   UNL     1      35.513 -18.306 -21.352  0.00  0.00    +0.000 C 
ATOM      9  C   UNL     1      34.320 -19.910 -22.709  0.00  0.00    +0.000 C 
ATOM     10  C   UNL     1      34.794 -17.707 -23.579  0.00  0.00    +0.031 C 
ATOM     11  C   UNL     1      35.431 -17.372 -22.385  0.00  0.00    +0.003 C 
ATOM     12  C   UNL     1      34.238 -18.975 -23.742  0.00  0.00    +0.003 C 
BRANCH  10  15
ATOM     13  N   UNL     1      34.572 -15.370 -24.392  0.00  0.00    -0.343 N 
ATOM     14  N   UNL     1      34.756 -17.135 -25.913  0.00  0.00    -0.285 NA
ATOM     15  C   UNL     1      34.709 -16.732 -24.655  0.00  0.00    +0.117 C 
ATOM     16  H   UNL     1      34.515 -14.729 -25.136  0.00  0.00    +0.144 HD
ATOM     17  H   UNL     1      34.531 -15.051 -23.462  0.00  0.00    +0.144 HD
ATOM     18  H   UNL     1      34.698 -16.477 -26.643  0.00  0.00    +0.188 HD
ENDBRANCH  10  15
ENDBRANCH   4   7
BRANCH   1  19
ATOM     19  O   UNL     1      35.288 -23.324 -17.370  0.00  0.00    -0.474 OA
BRANCH  19  20
ATOM     20  C   UNL     1      34.638 -22.998 -16.155  0.00  0.00    +0.225 C 
BRANCH  20  24
ATOM     21  O   UNL     1      31.976 -23.658 -12.726  0.00  0.00    -0.275 OA
ATOM     22  N   UNL     1      33.492 -24.267 -14.402  0.00  0.00    -0.302 N 
ATOM     23  C   UNL     1      31.629 -23.013 -15.058  0.00  0.00    +0.089 C 
ATOM     24  C   UNL     1      33.634 -24.096 -15.828  0.00  0.00    +0.116 C 
ATOM     25  C   UNL     1      32.215 -23.753 -16.266  0.00  0.00    +0.033 C 
ATOM     26  C   UNL     1      32.338 -23.677 -13.893  0.00  0.00    +0.223 C 
ATOM     27  H   UNL     1      34.144 -24.753 -13.847  0.00  0.00    +0.149 HD
BRANCH  23  28
ATOM     28  C   UNL     1      30.118 -23.121 -14.967  0.00  0.00    +0.118 C 
BRANCH  28  30
ATOM     29  O   UNL     1      29.860 -25.527 -14.682  0.00  0.00    -0.250 OA
ATOM     30  C   UNL     1      29.627 -24.505 -15.308  0.00  0.00    +0.314 C 
BRANCH  30  31
ATOM     31  O   UNL     1      28.868 -24.466 -16.433  0.00  0.00    -0.480 OA
ATOM     32  H   UNL     1      28.234 -23.786 -16.548  0.00  0.00    +0.295 HD
ENDBRANCH  30  31
ENDBRANCH  28  30
ENDBRANCH  23  28
ENDBRANCH  20  24
ENDBRANCH  19  20
ENDBRANCH   1  19
TORSDOF 8
ENDMDL
MODEL 7
REMARK VINA RESULT:     -10.4      4.425     10.052
REMARK  Name = 66000
REMARK  8 active torsions:
REMARK  status: ('A' for Active; 'I' for Inactive)
REMARK    1  A    between atoms: C_1  and  O_19
REMARK    2  A    between atoms: C_4  and  C_7
REMARK    3  A    between atoms: C_10  and  C_15
REMARK    4  A    between atoms: O_19  and  C_20
REMARK    5  A    between atoms: C_20  and  C_24
REMARK    6  A    between atoms: C_23  and  C_28
REMARK    7  A    between atoms: C_28  and  C_30
REMARK    8  A    between atoms: C_30  and  O_31
REMARK                            x       y       z     vdW  Elec       q    Type
REMARK                         _______ _______ _______ _____ _____    ______ ____
ROOT
ATOM      1  C   UNL     1      35.357 -21.333 -20.029  0.00  0.00    +0.139 C 
ATOM      2  C   UNL     1      33.970 -21.317 -20.123  0.00  0.00    +0.037 C 
ATOM      3  C   UNL     1      35.990 -21.938 -18.951  0.00  0.00    +0.037 C 
ATOM      4  C   UNL     1      33.832 -22.523 -18.035  0.00  0.00    +0.000 C 
ATOM      5  C   UNL     1      33.205 -21.914 -19.122  0.00  0.00    +0.003 C 
ATOM      6  C   UNL     1      35.224 -22.534 -17.949  0.00  0.00    +0.003 C 
ENDROOT
BRANCH   4   7
ATOM      7  C   UNL     1      33.038 -23.142 -16.996  0.00  0.00    +0.000 C 
ATOM      8  C   UNL     1      31.646 -23.128 -17.079  0.00  0.00    +0.000 C 
ATOM      9  C   UNL     1      33.666 -23.754 -15.910  0.00  0.00    +0.000 C 
ATOM     10  C   UNL     1      31.508 -24.338 -14.993  0.00  0.00    +0.031 C 
ATOM     11  C   UNL     1      30.881 -23.726 -16.077  0.00  0.00    +0.003 C 
ATOM     12  C   UNL     1      32.900 -24.352 -14.909  0.00  0.00    +0.003 C 
BRANCH  10  15
ATOM     13  N   UNL     1      29.408 -25.394 -14.191  0.00  0.00    -0.343 N 
ATOM     14  N   UNL     1      31.218 -25.120 -12.739  0.00  0.00    -0.285 NA
ATOM     15  C   UNL     1      30.710 -24.961 -13.948  0.00  0.00    +0.117 C 
ATOM     16  H   UNL     1      28.886 -25.812 -13.469  0.00  0.00    +0.144 HD
ATOM     17  H   UNL     1      29.011 -25.281 -15.084  0.00  0.00    +0.144 HD
ATOM     18  H   UNL     1      30.680 -25.541 -12.030  0.00  0.00    +0.188 HD
ENDBRANCH  10  15
ENDBRANCH   4   7
BRANCH   1  19
ATOM     19  O   UNL     1      36.110 -20.744 -21.015  0.00  0.00    -0.474 OA
BRANCH  19  20
ATOM     20  C   UNL     1      36.279 -19.340 -20.942  0.00  0.00    +0.225 C 
BRANCH  20  24
ATOM     21  O   UNL     1      35.422 -15.575 -23.032  0.00  0.00    -0.275 OA
ATOM     22  N   UNL     1      35.120 -17.234 -21.409  0.00  0.00    -0.302 N 
ATOM     23  C   UNL     1      35.260 -17.938 -23.636  0.00  0.00    +0.089 C 
ATOM     24  C   UNL     1      34.977 -18.669 -21.362  0.00  0.00    +0.116 C 
ATOM     25  C   UNL     1      34.566 -19.011 -22.789  0.00  0.00    +0.033 C 
ATOM     26  C   UNL     1      35.271 -16.742 -22.703  0.00  0.00    +0.223 C 
ATOM     27  H   UNL     1      35.111 -16.661 -20.609  0.00  0.00    +0.149 HD
BRANCH  23  28
ATOM     28  C   UNL     1      34.548 -17.658 -24.946  0.00  0.00    +0.118 C 
BRANCH  28  30
ATOM     29  O   UNL     1      34.338 -19.988 -25.627  0.00  0.00    -0.250 OA
ATOM     30  C   UNL     1      33.846 -18.880 -25.482  0.00  0.00    +0.314 C 
BRANCH  30  31
ATOM     31  O   UNL     1      32.558 -18.580 -25.792  0.00  0.00    -0.480 OA
ATOM     32  H   UNL     1      31.879 -19.203 -25.625  0.00  0.00    +0.295 HD
ENDBRANCH  30  31
ENDBRANCH  28  30
ENDBRANCH  23  28
ENDBRANCH  20  24
ENDBRANCH  19  20
ENDBRANCH   1  19
TORSDOF 8
ENDMDL
MODEL 8
REMARK VINA RESULT:     -10.2      4.525     10.608
REMARK  Name = 66000
REMARK  8 active torsions:
REMARK  status: ('A' for Active; 'I' for Inactive)
REMARK    1  A    between atoms: C_1  and  O_19
REMARK    2  A    between atoms: C_4  and  C_7
REMARK    3  A    between atoms: C_10  and  C_15
REMARK    4  A    between atoms: O_19  and  C_20
REMARK    5  A    between atoms: C_20  and  C_24
REMARK    6  A    between atoms: C_23  and  C_28
REMARK    7  A    between atoms: C_28  and  C_30
REMARK    8  A    between atoms: C_30  and  O_31
REMARK                            x       y       z     vdW  Elec       q    Type
REMARK                         _______ _______ _______ _____ _____    ______ ____
ROOT
ATOM      1  C   UNL     1      34.703 -21.000 -20.457  0.00  0.00    +0.139 C 
ATOM      2  C   UNL     1      33.635 -21.546 -19.756  0.00  0.00    +0.037 C 
ATOM      3  C   UNL     1      36.002 -21.117 -19.979  0.00  0.00    +0.037 C 
ATOM      4  C   UNL     1      35.171 -22.340 -18.069  0.00  0.00    +0.000 C 
ATOM      5  C   UNL     1      33.870 -22.218 -18.557  0.00  0.00    +0.003 C 
ATOM      6  C   UNL     1      36.237 -21.788 -18.779  0.00  0.00    +0.003 C 
ENDROOT
BRANCH   4   7
ATOM      7  C   UNL     1      35.415 -23.036 -16.824  0.00  0.00    +0.000 C 
ATOM      8  C   UNL     1      36.668 -22.960 -16.217  0.00  0.00    +0.000 C 
ATOM      9  C   UNL     1      34.396 -23.783 -16.231  0.00  0.00    +0.000 C 
ATOM     10  C   UNL     1      35.885 -24.377 -14.424  0.00  0.00    +0.031 C 
ATOM     11  C   UNL     1      36.904 -23.631 -15.016  0.00  0.00    +0.003 C 
ATOM     12  C   UNL     1      34.632 -24.453 -15.030  0.00  0.00    +0.003 C 
BRANCH  10  15
ATOM     13  N   UNL     1      36.782 -26.308 -13.145  0.00  0.00    -0.343 N 
ATOM     14  N   UNL     1      35.729 -24.545 -12.031  0.00  0.00    -0.285 NA
ATOM     15  C   UNL     1      36.131 -25.077 -13.172  0.00  0.00    +0.117 C 
ATOM     16  H   UNL     1      36.937 -26.764 -12.287  0.00  0.00    +0.144 HD
ATOM     17  H   UNL     1      37.085 -26.722 -13.985  0.00  0.00    +0.144 HD
ATOM     18  H   UNL     1      35.894 -25.016 -11.183  0.00  0.00    +0.188 HD
ENDBRANCH  10  15
ENDBRANCH   4   7
BRANCH   1  19
ATOM     19  O   UNL     1      34.471 -20.338 -21.638  0.00  0.00    -0.474 OA
BRANCH  19  20
ATOM     20  C   UNL     1      34.916 -18.996 -21.720  0.00  0.00    +0.225 C 
BRANCH  20  24
ATOM     21  O   UNL     1      33.379 -19.135 -25.829  0.00  0.00    -0.275 OA
ATOM     22  N   UNL     1      34.912 -19.538 -24.107  0.00  0.00    -0.302 N 
ATOM     23  C   UNL     1      34.138 -17.343 -24.351  0.00  0.00    +0.089 C 
ATOM     24  C   UNL     1      35.580 -18.784 -23.074  0.00  0.00    +0.116 C 
ATOM     25  C   UNL     1      35.461 -17.350 -23.577  0.00  0.00    +0.033 C 
ATOM     26  C   UNL     1      34.071 -18.757 -24.897  0.00  0.00    +0.223 C 
ATOM     27  H   UNL     1      35.037 -20.505 -24.241  0.00  0.00    +0.149 HD
BRANCH  23  28
ATOM     28  C   UNL     1      34.087 -16.288 -25.439  0.00  0.00    +0.118 C 
BRANCH  28  30
ATOM     29  O   UNL     1      33.524 -14.496 -23.887  0.00  0.00    -0.250 OA
ATOM     30  C   UNL     1      33.396 -15.030 -24.977  0.00  0.00    +0.314 C 
BRANCH  30  31
ATOM     31  O   UNL     1      32.590 -14.553 -25.961  0.00  0.00    -0.480 OA
ATOM     32  H   UNL     1      31.669 -14.471 -25.813  0.00  0.00    +0.295 HD
ENDBRANCH  30  31
ENDBRANCH  28  30
ENDBRANCH  23  28
ENDBRANCH  20  24
ENDBRANCH  19  20
ENDBRANCH   1  19
TORSDOF 8
ENDMDL
MODEL 9
REMARK VINA RESULT:     -10.1      6.569     12.145
REMARK  Name = 66000
REMARK  8 active torsions:
REMARK  status: ('A' for Active; 'I' for Inactive)
REMARK    1  A    between atoms: C_1  and  O_19
REMARK    2  A    between atoms: C_4  and  C_7
REMARK    3  A    between atoms: C_10  and  C_15
REMARK    4  A    between atoms: O_19  and  C_20
REMARK    5  A    between atoms: C_20  and  C_24
REMARK    6  A    between atoms: C_23  and  C_28
REMARK    7  A    between atoms: C_28  and  C_30
REMARK    8  A    between atoms: C_30  and  O_31
REMARK                            x       y       z     vdW  Elec       q    Type
REMARK                         _______ _______ _______ _____ _____    ______ ____
ROOT
ATOM      1  C   UNL     1      34.230 -17.312 -25.131  0.00  0.00    +0.139 C 
ATOM      2  C   UNL     1      33.735 -18.610 -25.095  0.00  0.00    +0.037 C 
ATOM      3  C   UNL     1      34.972 -16.803 -24.072  0.00  0.00    +0.037 C 
ATOM      4  C   UNL     1      34.726 -18.908 -22.912  0.00  0.00    +0.000 C 
ATOM      5  C   UNL     1      33.984 -19.410 -23.981  0.00  0.00    +0.003 C 
ATOM      6  C   UNL     1      35.220 -17.604 -22.957  0.00  0.00    +0.003 C 
ENDROOT
BRANCH   4   7
ATOM      7  C   UNL     1      34.984 -19.738 -21.756  0.00  0.00    +0.000 C 
ATOM      8  C   UNL     1      36.285 -19.878 -21.273  0.00  0.00    +0.000 C 
ATOM      9  C   UNL     1      33.931 -20.399 -21.123  0.00  0.00    +0.000 C 
ATOM     10  C   UNL     1      35.481 -21.337 -19.524  0.00  0.00    +0.031 C 
ATOM     11  C   UNL     1      36.534 -20.677 -20.157  0.00  0.00    +0.003 C 
ATOM     12  C   UNL     1      34.179 -21.199 -20.007  0.00  0.00    +0.003 C 
BRANCH  10  15
ATOM     13  N   UNL     1      36.918 -22.048 -17.628  0.00  0.00    -0.343 N 
ATOM     14  N   UNL     1      34.849 -23.073 -17.986  0.00  0.00    -0.285 NA
ATOM     15  C   UNL     1      35.740 -22.172 -18.362  0.00  0.00    +0.117 C 
ATOM     16  H   UNL     1      37.073 -22.624 -16.845  0.00  0.00    +0.144 HD
ATOM     17  H   UNL     1      37.596 -21.385 -17.893  0.00  0.00    +0.144 HD
ATOM     18  H   UNL     1      35.023 -23.639 -17.200  0.00  0.00    +0.188 HD
ENDBRANCH  10  15
ENDBRANCH   4   7
BRANCH   1  19
ATOM     19  O   UNL     1      33.985 -16.523 -26.228  0.00  0.00    -0.474 OA
BRANCH  19  20
ATOM     20  C   UNL     1      34.372 -15.163 -26.141  0.00  0.00    +0.225 C 
BRANCH  20  24
ATOM     21  O   UNL     1      32.933 -13.059 -22.567  0.00  0.00    -0.275 OA
ATOM     22  N   UNL     1      32.744 -14.387 -24.486  0.00  0.00    -0.302 N 
ATOM     23  C   UNL     1      33.861 -12.343 -24.712  0.00  0.00    +0.089 C 
ATOM     24  C   UNL     1      33.133 -14.319 -25.874  0.00  0.00    +0.116 C 
ATOM     25  C   UNL     1      33.372 -12.828 -26.081  0.00  0.00    +0.033 C 
ATOM     26  C   UNL     1      33.122 -13.261 -23.757  0.00  0.00    +0.223 C 
ATOM     27  H   UNL     1      32.261 -15.149 -24.094  0.00  0.00    +0.149 HD
BRANCH  23  28
ATOM     28  C   UNL     1      33.572 -10.875 -24.460  0.00  0.00    +0.118 C 
BRANCH  28  30
ATOM     29  O   UNL     1      35.033  -9.109 -23.633  0.00  0.00    -0.250 OA
ATOM     30  C   UNL     1      34.834 -10.055 -24.380  0.00  0.00    +0.314 C 
BRANCH  30  31
ATOM     31  O   UNL     1      35.748 -10.518 -25.271  0.00  0.00    -0.480 OA
ATOM     32  H   UNL     1      35.602 -11.331 -25.713  0.00  0.00    +0.295 HD
ENDBRANCH  30  31
ENDBRANCH  28  30
ENDBRANCH  23  28
ENDBRANCH  20  24
ENDBRANCH  19  20
ENDBRANCH   1  19
TORSDOF 8
ENDMDL
