MODEL 1
REMARK VINA RESULT:     -11.4      0.000      0.000
REMARK  Name = 6420159
REMARK  9 active torsions:
REMARK  status: ('A' for Active; 'I' for Inactive)
REMARK    1  A    between atoms: C_1  and  N_3
REMARK    2  A    between atoms: C_1  and  C_15
REMARK    3  A    between atoms: C_1  and  C_29
REMARK    4  A    between atoms: N_14  and  C_17
REMARK    5  A    between atoms: C_17  and  C_18
REMARK    6  A    between atoms: C_18  and  N_19
REMARK    7  A    between atoms: N_19  and  C_21
REMARK    8  A    between atoms: C_26  and  O_27
REMARK    9  A    between atoms: C_29  and  C_30
REMARK                            x       y       z     vdW  Elec       q    Type
REMARK                         _______ _______ _______ _____ _____    ______ ____
ROOT
ATOM      1  C   UNL     1      33.697 -23.505 -17.279  0.00  0.00    +0.151 C 
ENDROOT
BRANCH   1   3
ATOM      2  O   UNL     1      36.242 -23.082 -14.674  0.00  0.00    -0.414 OA
ATOM      3  N   UNL     1      34.634 -22.976 -16.310  0.00  0.00    -0.271 N 
ATOM      4  N   UNL     1      35.499 -25.064 -15.486  0.00  0.00    -0.356 NA
ATOM      5  C   UNL     1      35.438 -23.770 -15.512  0.00  0.00    +0.345 C 
ATOM      6  C   UNL     1      36.909 -24.080 -14.022  0.00  0.00    +0.175 C 
ATOM      7  C   UNL     1      36.452 -25.291 -14.522  0.00  0.00    +0.152 C 
ATOM      8  C   UNL     1      37.875 -23.946 -13.034  0.00  0.00    +0.040 C 
ATOM      9  C   UNL     1      36.987 -26.481 -14.009  0.00  0.00    +0.088 C 
ATOM     10  C   UNL     1      38.400 -25.142 -12.533  0.00  0.00    -0.001 C 
ATOM     11  C   UNL     1      37.966 -26.386 -13.009  0.00  0.00    -0.018 C 
ATOM     12  H   UNL     1      34.701 -21.999 -16.214  0.00  0.00    +0.153 HD
ENDBRANCH   1   3
BRANCH   1  15
ATOM     13  O   UNL     1      33.928 -23.839 -19.667  0.00  0.00    -0.273 OA
ATOM     14  N   UNL     1      34.994 -22.028 -18.688  0.00  0.00    -0.301 N 
ATOM     15  C   UNL     1      34.199 -23.164 -18.676  0.00  0.00    +0.240 C 
ATOM     16  H   UNL     1      35.156 -21.550 -17.843  0.00  0.00    +0.150 HD
BRANCH  14  17
ATOM     17  C   UNL     1      35.590 -21.522 -19.901  0.00  0.00    +0.111 C 
BRANCH  17  18
ATOM     18  C   UNL     1      34.699 -20.508 -20.601  0.00  0.00    +0.109 C 
BRANCH  18  19
ATOM     19  N   UNL     1      35.496 -19.462 -21.196  0.00  0.00    -0.331 N 
ATOM     20  H   UNL     1      36.315 -19.178 -20.727  0.00  0.00    +0.147 HD
BRANCH  19  21
ATOM     21  C   UNL     1      35.175 -18.833 -22.389  0.00  0.00    +0.045 C 
ATOM     22  C   UNL     1      34.597 -19.553 -23.451  0.00  0.00    +0.017 C 
ATOM     23  C   UNL     1      35.420 -17.460 -22.570  0.00  0.00    +0.017 C 
ATOM     24  C   UNL     1      34.275 -18.921 -24.652  0.00  0.00    +0.038 C 
ATOM     25  C   UNL     1      35.098 -16.828 -23.771  0.00  0.00    +0.038 C 
ATOM     26  C   UNL     1      34.526 -17.558 -24.812  0.00  0.00    +0.139 C 
BRANCH  26  27
ATOM     27  O   UNL     1      34.211 -16.940 -25.983  0.00  0.00    -0.471 OA
ATOM     28  C   UNL     1      33.439 -15.743 -25.900  0.00  0.00    +0.252 C 
ENDBRANCH  26  27
ENDBRANCH  19  21
ENDBRANCH  18  19
ENDBRANCH  17  18
ENDBRANCH  14  17
ENDBRANCH   1  15
BRANCH   1  29
ATOM     29  C   UNL     1      32.307 -22.904 -17.059  0.00  0.00    +0.029 C 
BRANCH  29  30
ATOM     30  C   UNL     1      31.315 -23.919 -16.497  0.00  0.00    +0.002 C 
ATOM     31  C   UNL     1      29.887 -23.357 -16.531  0.00  0.00    +0.000 C 
ATOM     32  C   UNL     1      31.706 -24.327 -15.070  0.00  0.00    +0.000 C 
ATOM     33  C   UNL     1      28.882 -24.334 -15.924  0.00  0.00    +0.000 C 
ATOM     34  C   UNL     1      30.698 -25.301 -14.465  0.00  0.00    +0.000 C 
ATOM     35  C   UNL     1      29.279 -24.743 -14.510  0.00  0.00    +0.000 C 
ENDBRANCH  29  30
ENDBRANCH   1  29
TORSDOF 9
ENDMDL
MODEL 2
REMARK VINA RESULT:     -10.8      1.391      5.002
REMARK  Name = 6420159
REMARK  9 active torsions:
REMARK  status: ('A' for Active; 'I' for Inactive)
REMARK    1  A    between atoms: C_1  and  N_3
REMARK    2  A    between atoms: C_1  and  C_15
REMARK    3  A    between atoms: C_1  and  C_29
REMARK    4  A    between atoms: N_14  and  C_17
REMARK    5  A    between atoms: C_17  and  C_18
REMARK    6  A    between atoms: C_18  and  N_19
REMARK    7  A    between atoms: N_19  and  C_21
REMARK    8  A    between atoms: C_26  and  O_27
REMARK    9  A    between atoms: C_29  and  C_30
REMARK                            x       y       z     vdW  Elec       q    Type
REMARK                         _______ _______ _______ _____ _____    ______ ____
ROOT
ATOM      1  C   UNL     1      35.702 -22.770 -16.145  0.00  0.00    +0.151 C 
ENDROOT
BRANCH   1   3
ATOM      2  O   UNL     1      32.224 -23.795 -16.687  0.00  0.00    -0.414 OA
ATOM      3  N   UNL     1      34.405 -23.077 -16.711  0.00  0.00    -0.271 N 
ATOM      4  N   UNL     1      33.322 -23.845 -14.704  0.00  0.00    -0.356 NA
ATOM      5  C   UNL     1      33.347 -23.575 -15.972  0.00  0.00    +0.345 C 
ATOM      6  C   UNL     1      31.362 -24.272 -15.741  0.00  0.00    +0.175 C 
ATOM      7  C   UNL     1      32.037 -24.301 -14.529  0.00  0.00    +0.152 C 
ATOM      8  C   UNL     1      30.042 -24.666 -15.920  0.00  0.00    +0.040 C 
ATOM      9  C   UNL     1      31.362 -24.756 -13.388  0.00  0.00    +0.088 C 
ATOM     10  C   UNL     1      29.383 -25.118 -14.772  0.00  0.00    -0.001 C 
ATOM     11  C   UNL     1      30.028 -25.163 -13.530  0.00  0.00    -0.018 C 
ATOM     12  H   UNL     1      34.269 -22.924 -17.673  0.00  0.00    +0.153 HD
ENDBRANCH   1   3
BRANCH   1  15
ATOM     13  O   UNL     1      37.425 -21.204 -16.812  0.00  0.00    -0.273 OA
ATOM     14  N   UNL     1      35.972 -22.015 -18.426  0.00  0.00    -0.301 N 
ATOM     15  C   UNL     1      36.474 -21.911 -17.137  0.00  0.00    +0.240 C 
ATOM     16  H   UNL     1      35.205 -22.608 -18.593  0.00  0.00    +0.150 HD
BRANCH  14  17
ATOM     17  C   UNL     1      36.540 -21.280 -19.531  0.00  0.00    +0.111 C 
BRANCH  17  18
ATOM     18  C   UNL     1      35.476 -20.774 -20.493  0.00  0.00    +0.109 C 
BRANCH  18  19
ATOM     19  N   UNL     1      35.691 -19.378 -20.793  0.00  0.00    -0.331 N 
ATOM     20  H   UNL     1      36.083 -18.807 -20.093  0.00  0.00    +0.147 HD
BRANCH  19  21
ATOM     21  C   UNL     1      35.375 -18.796 -22.011  0.00  0.00    +0.045 C 
ATOM     22  C   UNL     1      34.833 -19.562 -23.059  0.00  0.00    +0.017 C 
ATOM     23  C   UNL     1      35.590 -17.423 -22.232  0.00  0.00    +0.017 C 
ATOM     24  C   UNL     1      34.517 -18.976 -24.285  0.00  0.00    +0.038 C 
ATOM     25  C   UNL     1      35.274 -16.837 -23.457  0.00  0.00    +0.038 C 
ATOM     26  C   UNL     1      34.738 -17.614 -24.484  0.00  0.00    +0.139 C 
BRANCH  26  27
ATOM     27  O   UNL     1      34.428 -17.041 -25.679  0.00  0.00    -0.471 OA
ATOM     28  C   UNL     1      33.456 -15.997 -25.668  0.00  0.00    +0.252 C 
ENDBRANCH  26  27
ENDBRANCH  19  21
ENDBRANCH  18  19
ENDBRANCH  17  18
ENDBRANCH  14  17
ENDBRANCH   1  15
BRANCH   1  29
ATOM     29  C   UNL     1      36.474 -24.058 -15.853  0.00  0.00    +0.029 C 
BRANCH  29  30
ATOM     30  C   UNL     1      37.379 -23.933 -14.630  0.00  0.00    +0.002 C 
ATOM     31  C   UNL     1      37.979 -25.295 -14.257  0.00  0.00    +0.000 C 
ATOM     32  C   UNL     1      36.610 -23.333 -13.445  0.00  0.00    +0.000 C 
ATOM     33  C   UNL     1      38.847 -25.205 -13.004  0.00  0.00    +0.000 C 
ATOM     34  C   UNL     1      37.479 -23.247 -12.193  0.00  0.00    +0.000 C 
ATOM     35  C   UNL     1      38.081 -24.601 -11.831  0.00  0.00    +0.000 C 
ENDBRANCH  29  30
ENDBRANCH   1  29
TORSDOF 9
ENDMDL
MODEL 3
REMARK VINA RESULT:     -10.0      8.574     16.064
REMARK  Name = 6420159
REMARK  9 active torsions:
REMARK  status: ('A' for Active; 'I' for Inactive)
REMARK    1  A    between atoms: C_1  and  N_3
REMARK    2  A    between atoms: C_1  and  C_15
REMARK    3  A    between atoms: C_1  and  C_29
REMARK    4  A    between atoms: N_14  and  C_17
REMARK    5  A    between atoms: C_17  and  C_18
REMARK    6  A    between atoms: C_18  and  N_19
REMARK    7  A    between atoms: N_19  and  C_21
REMARK    8  A    between atoms: C_26  and  O_27
REMARK    9  A    between atoms: C_29  and  C_30
REMARK                            x       y       z     vdW  Elec       q    Type
REMARK                         _______ _______ _______ _____ _____    ______ ____
ROOT
ATOM      1  C   UNL     1      33.523  -8.664 -23.515  0.00  0.00    +0.151 C 
ENDROOT
BRANCH   1   3
ATOM      2  O   UNL     1      33.503  -5.427 -25.237  0.00  0.00    -0.414 OA
ATOM      3  N   UNL     1      33.765  -7.555 -24.414  0.00  0.00    -0.271 N 
ATOM      4  N   UNL     1      32.268  -5.960 -23.412  0.00  0.00    -0.356 NA
ATOM      5  C   UNL     1      33.140  -6.326 -24.299  0.00  0.00    +0.345 C 
ATOM      6  C   UNL     1      32.758  -4.333 -24.900  0.00  0.00    +0.175 C 
ATOM      7  C   UNL     1      32.004  -4.663 -23.783  0.00  0.00    +0.152 C 
ATOM      8  C   UNL     1      32.733  -3.098 -25.535  0.00  0.00    +0.040 C 
ATOM      9  C   UNL     1      31.146  -3.699 -23.236  0.00  0.00    +0.088 C 
ATOM     10  C   UNL     1      31.872  -2.147 -24.977  0.00  0.00    -0.001 C 
ATOM     11  C   UNL     1      31.094  -2.439 -23.850  0.00  0.00    -0.018 C 
ATOM     12  H   UNL     1      34.409  -7.683 -25.147  0.00  0.00    +0.153 HD
ENDBRANCH   1   3
BRANCH   1  15
ATOM     13  O   UNL     1      35.508  -9.981 -23.950  0.00  0.00    -0.273 OA
ATOM     14  N   UNL     1      33.447 -10.831 -24.585  0.00  0.00    -0.301 N 
ATOM     15  C   UNL     1      34.286  -9.879 -24.025  0.00  0.00    +0.240 C 
ATOM     16  H   UNL     1      32.477 -10.663 -24.600  0.00  0.00    +0.150 HD
BRANCH  14  17
ATOM     17  C   UNL     1      33.950 -12.062 -25.145  0.00  0.00    +0.111 C 
BRANCH  17  18
ATOM     18  C   UNL     1      33.472 -13.283 -24.374  0.00  0.00    +0.109 C 
BRANCH  18  19
ATOM     19  N   UNL     1      34.188 -13.403 -23.126  0.00  0.00    -0.331 N 
ATOM     20  H   UNL     1      34.431 -12.576 -22.648  0.00  0.00    +0.147 HD
BRANCH  19  21
ATOM     21  C   UNL     1      34.552 -14.615 -22.562  0.00  0.00    +0.045 C 
ATOM     22  C   UNL     1      34.530 -14.797 -21.166  0.00  0.00    +0.017 C 
ATOM     23  C   UNL     1      34.957 -15.695 -23.368  0.00  0.00    +0.017 C 
ATOM     24  C   UNL     1      34.899 -16.017 -20.598  0.00  0.00    +0.038 C 
ATOM     25  C   UNL     1      35.325 -16.914 -22.800  0.00  0.00    +0.038 C 
ATOM     26  C   UNL     1      35.297 -17.075 -21.415  0.00  0.00    +0.139 C 
BRANCH  26  27
ATOM     27  O   UNL     1      35.655 -18.265 -20.861  0.00  0.00    -0.471 OA
ATOM     28  C   UNL     1      34.918 -19.418 -21.264  0.00  0.00    +0.252 C 
ENDBRANCH  26  27
ENDBRANCH  19  21
ENDBRANCH  18  19
ENDBRANCH  17  18
ENDBRANCH  14  17
ENDBRANCH   1  15
BRANCH   1  29
ATOM     29  C   UNL     1      32.027  -8.975 -23.443  0.00  0.00    +0.029 C 
BRANCH  29  30
ATOM     30  C   UNL     1      31.555  -9.254 -22.018  0.00  0.00    +0.002 C 
ATOM     31  C   UNL     1      32.420  -8.497 -21.002  0.00  0.00    +0.000 C 
ATOM     32  C   UNL     1      31.566 -10.761 -21.728  0.00  0.00    +0.000 C 
ATOM     33  C   UNL     1      32.001  -8.802 -19.566  0.00  0.00    +0.000 C 
ATOM     34  C   UNL     1      31.149 -11.062 -20.291  0.00  0.00    +0.000 C 
ATOM     35  C   UNL     1      32.006 -10.301 -19.285  0.00  0.00    +0.000 C 
ENDBRANCH  29  30
ENDBRANCH   1  29
TORSDOF 9
ENDMDL
MODEL 4
REMARK VINA RESULT:      -9.6      3.008      8.491
REMARK  Name = 6420159
REMARK  9 active torsions:
REMARK  status: ('A' for Active; 'I' for Inactive)
REMARK    1  A    between atoms: C_1  and  N_3
REMARK    2  A    between atoms: C_1  and  C_15
REMARK    3  A    between atoms: C_1  and  C_29
REMARK    4  A    between atoms: N_14  and  C_17
REMARK    5  A    between atoms: C_17  and  C_18
REMARK    6  A    between atoms: C_18  and  N_19
REMARK    7  A    between atoms: N_19  and  C_21
REMARK    8  A    between atoms: C_26  and  O_27
REMARK    9  A    between atoms: C_29  and  C_30
REMARK                            x       y       z     vdW  Elec       q    Type
REMARK                         _______ _______ _______ _____ _____    ______ ____
ROOT
ATOM      1  C   UNL     1      34.741 -24.109 -15.297  0.00  0.00    +0.151 C 
ENDROOT
BRANCH   1   3
ATOM      2  O   UNL     1      33.451 -22.403 -18.275  0.00  0.00    -0.414 OA
ATOM      3  N   UNL     1      33.903 -23.546 -16.334  0.00  0.00    -0.271 N 
ATOM      4  N   UNL     1      35.636 -22.581 -17.696  0.00  0.00    -0.356 NA
ATOM      5  C   UNL     1      34.397 -22.847 -17.421  0.00  0.00    +0.345 C 
ATOM      6  C   UNL     1      34.191 -21.765 -19.229  0.00  0.00    +0.175 C 
ATOM      7  C   UNL     1      35.527 -21.876 -18.871  0.00  0.00    +0.152 C 
ATOM      8  C   UNL     1      33.727 -21.113 -20.364  0.00  0.00    +0.040 C 
ATOM      9  C   UNL     1      36.500 -21.297 -19.698  0.00  0.00    +0.088 C 
ATOM     10  C   UNL     1      34.710 -20.541 -21.178  0.00  0.00    -0.001 C 
ATOM     11  C   UNL     1      36.070 -20.630 -20.854  0.00  0.00    -0.018 C 
ATOM     12  H   UNL     1      32.929 -23.667 -16.262  0.00  0.00    +0.153 HD
ENDBRANCH   1   3
BRANCH   1  15
ATOM     13  O   UNL     1      34.288 -25.149 -13.156  0.00  0.00    -0.273 OA
ATOM     14  N   UNL     1      32.499 -24.442 -14.451  0.00  0.00    -0.301 N 
ATOM     15  C   UNL     1      33.847 -24.624 -14.177  0.00  0.00    +0.240 C 
ATOM     16  H   UNL     1      32.239 -24.010 -15.296  0.00  0.00    +0.150 HD
BRANCH  14  17
ATOM     17  C   UNL     1      31.467 -24.865 -13.536  0.00  0.00    +0.111 C 
BRANCH  17  18
ATOM     18  C   UNL     1      30.318 -25.563 -14.247  0.00  0.00    +0.109 C 
BRANCH  18  19
ATOM     19  N   UNL     1      30.144 -25.022 -15.575  0.00  0.00    -0.331 N 
ATOM     20  H   UNL     1      30.807 -25.259 -16.264  0.00  0.00    +0.147 HD
BRANCH  19  21
ATOM     21  C   UNL     1      29.097 -24.189 -15.935  0.00  0.00    +0.045 C 
ATOM     22  C   UNL     1      28.551 -23.276 -15.013  0.00  0.00    +0.017 C 
ATOM     23  C   UNL     1      28.551 -24.234 -17.230  0.00  0.00    +0.017 C 
ATOM     24  C   UNL     1      27.496 -22.438 -15.375  0.00  0.00    +0.038 C 
ATOM     25  C   UNL     1      27.496 -23.396 -17.592  0.00  0.00    +0.038 C 
ATOM     26  C   UNL     1      26.969 -22.498 -16.664  0.00  0.00    +0.139 C 
BRANCH  26  27
ATOM     27  O   UNL     1      25.940 -21.679 -17.018  0.00  0.00    -0.471 OA
ATOM     28  C   UNL     1      25.806 -21.366 -18.403  0.00  0.00    +0.252 C 
ENDBRANCH  26  27
ENDBRANCH  19  21
ENDBRANCH  18  19
ENDBRANCH  17  18
ENDBRANCH  14  17
ENDBRANCH   1  15
BRANCH   1  29
ATOM     29  C   UNL     1      35.703 -23.050 -14.756  0.00  0.00    +0.029 C 
BRANCH  29  30
ATOM     30  C   UNL     1      37.054 -23.638 -14.354  0.00  0.00    +0.002 C 
ATOM     31  C   UNL     1      37.262 -25.012 -15.006  0.00  0.00    +0.000 C 
ATOM     32  C   UNL     1      37.171 -23.736 -12.827  0.00  0.00    +0.000 C 
ATOM     33  C   UNL     1      38.585 -25.644 -14.577  0.00  0.00    +0.000 C 
ATOM     34  C   UNL     1      38.492 -24.371 -12.401  0.00  0.00    +0.000 C 
ATOM     35  C   UNL     1      38.700 -25.731 -13.058  0.00  0.00    +0.000 C 
ENDBRANCH  29  30
ENDBRANCH   1  29
TORSDOF 9
ENDMDL
MODEL 5
REMARK VINA RESULT:      -9.4      3.142      7.404
REMARK  Name = 6420159
REMARK  9 active torsions:
REMARK  status: ('A' for Active; 'I' for Inactive)
REMARK    1  A    between atoms: C_1  and  N_3
REMARK    2  A    between atoms: C_1  and  C_15
REMARK    3  A    between atoms: C_1  and  C_29
REMARK    4  A    between atoms: N_14  and  C_17
REMARK    5  A    between atoms: C_17  and  C_18
REMARK    6  A    between atoms: C_18  and  N_19
REMARK    7  A    between atoms: N_19  and  C_21
REMARK    8  A    between atoms: C_26  and  O_27
REMARK    9  A    between atoms: C_29  and  C_30
REMARK                            x       y       z     vdW  Elec       q    Type
REMARK                         _______ _______ _______ _____ _____    ______ ____
ROOT
ATOM      1  C   UNL     1      34.351 -23.033 -17.125  0.00  0.00    +0.151 C 
ENDROOT
BRANCH   1   3
ATOM      2  O   UNL     1      37.056 -24.797 -15.389  0.00  0.00    -0.414 OA
ATOM      3  N   UNL     1      35.436 -23.919 -16.760  0.00  0.00    -0.271 N 
ATOM      4  N   UNL     1      35.819 -23.102 -14.530  0.00  0.00    -0.356 NA
ATOM      5  C   UNL     1      36.068 -23.888 -15.530  0.00  0.00    +0.345 C 
ATOM      6  C   UNL     1      37.498 -24.556 -14.119  0.00  0.00    +0.175 C 
ATOM      7  C   UNL     1      36.739 -23.518 -13.597  0.00  0.00    +0.152 C 
ATOM      8  C   UNL     1      38.519 -25.208 -13.440  0.00  0.00    +0.040 C 
ATOM      9  C   UNL     1      37.000 -23.078 -12.292  0.00  0.00    +0.088 C 
ATOM     10  C   UNL     1      38.767 -24.758 -12.140  0.00  0.00    -0.001 C 
ATOM     11  C   UNL     1      38.024 -23.714 -11.574  0.00  0.00    -0.018 C 
ATOM     12  H   UNL     1      35.741 -24.579 -17.424  0.00  0.00    +0.153 HD
ENDBRANCH   1   3
BRANCH   1  15
ATOM     13  O   UNL     1      31.953 -23.186 -16.815  0.00  0.00    -0.273 OA
ATOM     14  N   UNL     1      33.340 -24.356 -15.371  0.00  0.00    -0.301 N 
ATOM     15  C   UNL     1      33.078 -23.519 -16.445  0.00  0.00    +0.240 C 
ATOM     16  H   UNL     1      34.275 -24.568 -15.148  0.00  0.00    +0.150 HD
BRANCH  14  17
ATOM     17  C   UNL     1      32.285 -24.928 -14.570  0.00  0.00    +0.111 C 
BRANCH  17  18
ATOM     18  C   UNL     1      31.690 -23.922 -13.597  0.00  0.00    +0.109 C 
BRANCH  18  19
ATOM     19  N   UNL     1      30.250 -24.022 -13.586  0.00  0.00    -0.331 N 
ATOM     20  H   UNL     1      29.806 -24.251 -12.737  0.00  0.00    +0.147 HD
BRANCH  19  21
ATOM     21  C   UNL     1      29.455 -23.814 -14.702  0.00  0.00    +0.045 C 
ATOM     22  C   UNL     1      29.171 -24.866 -15.593  0.00  0.00    +0.017 C 
ATOM     23  C   UNL     1      28.913 -22.545 -14.977  0.00  0.00    +0.017 C 
ATOM     24  C   UNL     1      28.372 -24.656 -16.717  0.00  0.00    +0.038 C 
ATOM     25  C   UNL     1      28.114 -22.335 -16.101  0.00  0.00    +0.038 C 
ATOM     26  C   UNL     1      27.844 -23.391 -16.971  0.00  0.00    +0.139 C 
BRANCH  26  27
ATOM     27  O   UNL     1      27.064 -23.186 -18.067  0.00  0.00    -0.471 OA
ATOM     28  C   UNL     1      26.337 -21.960 -18.128  0.00  0.00    +0.252 C 
ENDBRANCH  26  27
ENDBRANCH  19  21
ENDBRANCH  18  19
ENDBRANCH  17  18
ENDBRANCH  14  17
ENDBRANCH   1  15
BRANCH   1  29
ATOM     29  C   UNL     1      34.163 -23.018 -18.643  0.00  0.00    +0.029 C 
BRANCH  29  30
ATOM     30  C   UNL     1      34.468 -21.653 -19.256  0.00  0.00    +0.002 C 
ATOM     31  C   UNL     1      33.372 -21.247 -20.249  0.00  0.00    +0.000 C 
ATOM     32  C   UNL     1      35.845 -21.659 -19.935  0.00  0.00    +0.000 C 
ATOM     33  C   UNL     1      33.682 -19.909 -20.916  0.00  0.00    +0.000 C 
ATOM     34  C   UNL     1      36.151 -20.321 -20.602  0.00  0.00    +0.000 C 
ATOM     35  C   UNL     1      35.054 -19.917 -21.582  0.00  0.00    +0.000 C 
ENDBRANCH  29  30
ENDBRANCH   1  29
TORSDOF 9
ENDMDL
MODEL 6
REMARK VINA RESULT:      -9.4      2.641      7.582
REMARK  Name = 6420159
REMARK  9 active torsions:
REMARK  status: ('A' for Active; 'I' for Inactive)
REMARK    1  A    between atoms: C_1  and  N_3
REMARK    2  A    between atoms: C_1  and  C_15
REMARK    3  A    between atoms: C_1  and  C_29
REMARK    4  A    between atoms: N_14  and  C_17
REMARK    5  A    between atoms: C_17  and  C_18
REMARK    6  A    between atoms: C_18  and  N_19
REMARK    7  A    between atoms: N_19  and  C_21
REMARK    8  A    between atoms: C_26  and  O_27
REMARK    9  A    between atoms: C_29  and  C_30
REMARK                            x       y       z     vdW  Elec       q    Type
REMARK                         _______ _______ _______ _____ _____    ______ ____
ROOT
ATOM      1  C   UNL     1      36.172 -22.067 -17.932  0.00  0.00    +0.151 C 
ENDROOT
BRANCH   1   3
ATOM      2  O   UNL     1      38.099 -23.878 -15.393  0.00  0.00    -0.414 OA
ATOM      3  N   UNL     1      37.169 -22.832 -17.214  0.00  0.00    -0.271 N 
ATOM      4  N   UNL     1      36.103 -22.857 -15.057  0.00  0.00    -0.356 NA
ATOM      5  C   UNL     1      37.063 -23.160 -15.874  0.00  0.00    +0.345 C 
ATOM      6  C   UNL     1      37.748 -24.060 -14.086  0.00  0.00    +0.175 C 
ATOM      7  C   UNL     1      36.527 -23.433 -13.884  0.00  0.00    +0.152 C 
ATOM      8  C   UNL     1      38.459 -24.740 -13.106  0.00  0.00    +0.040 C 
ATOM      9  C   UNL     1      35.946 -23.476 -12.609  0.00  0.00    +0.088 C 
ATOM     10  C   UNL     1      37.866 -24.774 -11.839  0.00  0.00    -0.001 C 
ATOM     11  C   UNL     1      36.634 -24.155 -11.593  0.00  0.00    -0.018 C 
ATOM     12  H   UNL     1      37.965 -23.136 -17.706  0.00  0.00    +0.153 HD
ENDBRANCH   1   3
BRANCH   1  15
ATOM     13  O   UNL     1      34.605 -23.552 -19.031  0.00  0.00    -0.273 OA
ATOM     14  N   UNL     1      34.125 -22.817 -16.885  0.00  0.00    -0.301 N 
ATOM     15  C   UNL     1      34.900 -22.898 -18.032  0.00  0.00    +0.240 C 
ATOM     16  H   UNL     1      34.442 -22.267 -16.133  0.00  0.00    +0.150 HD
BRANCH  14  17
ATOM     17  C   UNL     1      32.868 -23.514 -16.758  0.00  0.00    +0.111 C 
BRANCH  17  18
ATOM     18  C   UNL     1      32.548 -23.865 -15.314  0.00  0.00    +0.109 C 
BRANCH  18  19
ATOM     19  N   UNL     1      31.296 -24.580 -15.234  0.00  0.00    -0.331 N 
ATOM     20  H   UNL     1      31.314 -25.516 -14.927  0.00  0.00    +0.147 HD
BRANCH  19  21
ATOM     21  C   UNL     1      30.070 -24.025 -15.566  0.00  0.00    +0.045 C 
ATOM     22  C   UNL     1      29.576 -22.902 -14.875  0.00  0.00    +0.017 C 
ATOM     23  C   UNL     1      29.287 -24.569 -16.600  0.00  0.00    +0.017 C 
ATOM     24  C   UNL     1      28.341 -22.344 -15.208  0.00  0.00    +0.038 C 
ATOM     25  C   UNL     1      28.052 -24.010 -16.932  0.00  0.00    +0.038 C 
ATOM     26  C   UNL     1      27.580 -22.899 -16.236  0.00  0.00    +0.139 C 
BRANCH  26  27
ATOM     27  O   UNL     1      26.376 -22.354 -16.562  0.00  0.00    -0.471 OA
ATOM     28  C   UNL     1      26.268 -21.733 -17.842  0.00  0.00    +0.252 C 
ENDBRANCH  26  27
ENDBRANCH  19  21
ENDBRANCH  18  19
ENDBRANCH  17  18
ENDBRANCH  14  17
ENDBRANCH   1  15
BRANCH   1  29
ATOM     29  C   UNL     1      36.679 -21.712 -19.331  0.00  0.00    +0.029 C 
BRANCH  29  30
ATOM     30  C   UNL     1      35.967 -20.496 -19.920  0.00  0.00    +0.002 C 
ATOM     31  C   UNL     1      34.794 -20.931 -20.808  0.00  0.00    +0.000 C 
ATOM     32  C   UNL     1      36.951 -19.620 -20.707  0.00  0.00    +0.000 C 
ATOM     33  C   UNL     1      34.099 -19.733 -21.451  0.00  0.00    +0.000 C 
ATOM     34  C   UNL     1      36.253 -18.425 -21.350  0.00  0.00    +0.000 C 
ATOM     35  C   UNL     1      35.082 -18.861 -22.225  0.00  0.00    +0.000 C 
ENDBRANCH  29  30
ENDBRANCH   1  29
TORSDOF 9
ENDMDL
MODEL 7
REMARK VINA RESULT:      -9.2      9.656     15.497
REMARK  Name = 6420159
REMARK  9 active torsions:
REMARK  status: ('A' for Active; 'I' for Inactive)
REMARK    1  A    between atoms: C_1  and  N_3
REMARK    2  A    between atoms: C_1  and  C_15
REMARK    3  A    between atoms: C_1  and  C_29
REMARK    4  A    between atoms: N_14  and  C_17
REMARK    5  A    between atoms: C_17  and  C_18
REMARK    6  A    between atoms: C_18  and  N_19
REMARK    7  A    between atoms: N_19  and  C_21
REMARK    8  A    between atoms: C_26  and  O_27
REMARK    9  A    between atoms: C_29  and  C_30
REMARK                            x       y       z     vdW  Elec       q    Type
REMARK                         _______ _______ _______ _____ _____    ______ ____
ROOT
ATOM      1  C   UNL     1      31.930  -9.899 -22.649  0.00  0.00    +0.151 C 
ENDROOT
BRANCH   1   3
ATOM      2  O   UNL     1      31.229  -6.344 -22.086  0.00  0.00    -0.414 OA
ATOM      3  N   UNL     1      31.523  -8.622 -22.101  0.00  0.00    -0.271 N 
ATOM      4  N   UNL     1      32.172  -7.225 -23.949  0.00  0.00    -0.356 NA
ATOM      5  C   UNL     1      31.670  -7.420 -22.770  0.00  0.00    +0.345 C 
ATOM      6  C   UNL     1      31.485  -5.320 -22.952  0.00  0.00    +0.175 C 
ATOM      7  C   UNL     1      32.063  -5.863 -24.091  0.00  0.00    +0.152 C 
ATOM      8  C   UNL     1      31.230  -3.968 -22.762  0.00  0.00    +0.040 C 
ATOM      9  C   UNL     1      32.423  -5.007 -25.141  0.00  0.00    +0.088 C 
ATOM     10  C   UNL     1      31.595  -3.128 -23.819  0.00  0.00    -0.001 C 
ATOM     11  C   UNL     1      32.180  -3.635 -24.986  0.00  0.00    -0.018 C 
ATOM     12  H   UNL     1      31.121  -8.608 -21.203  0.00  0.00    +0.153 HD
ENDBRANCH   1   3
BRANCH   1  15
ATOM     13  O   UNL     1      30.788 -10.831 -20.727  0.00  0.00    -0.273 OA
ATOM     14  N   UNL     1      32.312 -12.155 -21.868  0.00  0.00    -0.301 N 
ATOM     15  C   UNL     1      31.596 -10.989 -21.640  0.00  0.00    +0.240 C 
ATOM     16  H   UNL     1      32.938 -12.190 -22.626  0.00  0.00    +0.150 HD
BRANCH  14  17
ATOM     17  C   UNL     1      32.167 -13.320 -21.028  0.00  0.00    +0.111 C 
BRANCH  17  18
ATOM     18  C   UNL     1      33.427 -14.171 -21.002  0.00  0.00    +0.109 C 
BRANCH  18  19
ATOM     19  N   UNL     1      34.148 -14.043 -22.246  0.00  0.00    -0.331 N 
ATOM     20  H   UNL     1      34.616 -13.195 -22.427  0.00  0.00    +0.147 HD
BRANCH  19  21
ATOM     21  C   UNL     1      34.218 -15.044 -23.202  0.00  0.00    +0.045 C 
ATOM     22  C   UNL     1      35.007 -16.190 -22.991  0.00  0.00    +0.017 C 
ATOM     23  C   UNL     1      33.503 -14.940 -24.410  0.00  0.00    +0.017 C 
ATOM     24  C   UNL     1      35.079 -17.197 -23.954  0.00  0.00    +0.038 C 
ATOM     25  C   UNL     1      33.575 -15.947 -25.372  0.00  0.00    +0.038 C 
ATOM     26  C   UNL     1      34.363 -17.075 -25.145  0.00  0.00    +0.139 C 
BRANCH  26  27
ATOM     27  O   UNL     1      34.431 -18.058 -26.084  0.00  0.00    -0.471 OA
ATOM     28  C   UNL     1      34.020 -19.365 -25.688  0.00  0.00    +0.252 C 
ENDBRANCH  26  27
ENDBRANCH  19  21
ENDBRANCH  18  19
ENDBRANCH  17  18
ENDBRANCH  14  17
ENDBRANCH   1  15
BRANCH   1  29
ATOM     29  C   UNL     1      33.431  -9.898 -22.944  0.00  0.00    +0.029 C 
BRANCH  29  30
ATOM     30  C   UNL     1      33.739 -10.187 -24.411  0.00  0.00    +0.002 C 
ATOM     31  C   UNL     1      33.201 -11.566 -24.816  0.00  0.00    +0.000 C 
ATOM     32  C   UNL     1      35.247 -10.090 -24.679  0.00  0.00    +0.000 C 
ATOM     33  C   UNL     1      33.543 -11.901 -26.266  0.00  0.00    +0.000 C 
ATOM     34  C   UNL     1      35.586 -10.428 -26.128  0.00  0.00    +0.000 C 
ATOM     35  C   UNL     1      35.041 -11.795 -26.530  0.00  0.00    +0.000 C 
ENDBRANCH  29  30
ENDBRANCH   1  29
TORSDOF 9
ENDMDL
MODEL 8
REMARK VINA RESULT:      -9.1      8.804     15.419
REMARK  Name = 6420159
REMARK  9 active torsions:
REMARK  status: ('A' for Active; 'I' for Inactive)
REMARK    1  A    between atoms: C_1  and  N_3
REMARK    2  A    between atoms: C_1  and  C_15
REMARK    3  A    between atoms: C_1  and  C_29
REMARK    4  A    between atoms: N_14  and  C_17
REMARK    5  A    between atoms: C_17  and  C_18
REMARK    6  A    between atoms: C_18  and  N_19
REMARK    7  A    between atoms: N_19  and  C_21
REMARK    8  A    between atoms: C_26  and  O_27
REMARK    9  A    between atoms: C_29  and  C_30
REMARK                            x       y       z     vdW  Elec       q    Type
REMARK                         _______ _______ _______ _____ _____    ______ ____
ROOT
ATOM      1  C   UNL     1      32.671  -7.608 -21.146  0.00  0.00    +0.151 C 
ENDROOT
BRANCH   1   3
ATOM      2  O   UNL     1      35.039  -8.901 -23.629  0.00  0.00    -0.414 OA
ATOM      3  N   UNL     1      33.831  -7.864 -21.973  0.00  0.00    -0.271 N 
ATOM      4  N   UNL     1      32.907  -9.616 -23.339  0.00  0.00    -0.356 NA
ATOM      5  C   UNL     1      33.861  -8.818 -22.975  0.00  0.00    +0.345 C 
ATOM      6  C   UNL     1      34.800  -9.892 -24.538  0.00  0.00    +0.175 C 
ATOM      7  C   UNL     1      33.494 -10.326 -24.358  0.00  0.00    +0.152 C 
ATOM      8  C   UNL     1      35.678 -10.399 -25.487  0.00  0.00    +0.040 C 
ATOM      9  C   UNL     1      33.002 -11.350 -25.179  0.00  0.00    +0.088 C 
ATOM     10  C   UNL     1      35.171 -11.419 -26.299  0.00  0.00    -0.001 C 
ATOM     11  C   UNL     1      33.860 -11.887 -26.150  0.00  0.00    -0.018 C 
ATOM     12  H   UNL     1      34.643  -7.332 -21.813  0.00  0.00    +0.153 HD
ENDBRANCH   1   3
BRANCH   1  15
ATOM     13  O   UNL     1      32.722  -9.251 -19.368  0.00  0.00    -0.273 OA
ATOM     14  N   UNL     1      31.356  -9.637 -21.201  0.00  0.00    -0.301 N 
ATOM     15  C   UNL     1      32.269  -8.905 -20.457  0.00  0.00    +0.240 C 
ATOM     16  H   UNL     1      31.048  -9.279 -22.064  0.00  0.00    +0.150 HD
BRANCH  14  17
ATOM     17  C   UNL     1      30.843 -10.908 -20.749  0.00  0.00    +0.111 C 
BRANCH  17  18
ATOM     18  C   UNL     1      31.931 -11.965 -20.647  0.00  0.00    +0.109 C 
BRANCH  18  19
ATOM     19  N   UNL     1      32.099 -12.639 -21.913  0.00  0.00    -0.331 N 
ATOM     20  H   UNL     1      31.522 -12.369 -22.663  0.00  0.00    +0.147 HD
BRANCH  19  21
ATOM     21  C   UNL     1      33.027 -13.646 -22.131  0.00  0.00    +0.045 C 
ATOM     22  C   UNL     1      33.292 -14.113 -23.432  0.00  0.00    +0.017 C 
ATOM     23  C   UNL     1      33.725 -14.229 -21.058  0.00  0.00    +0.017 C 
ATOM     24  C   UNL     1      34.225 -15.127 -23.652  0.00  0.00    +0.038 C 
ATOM     25  C   UNL     1      34.657 -15.244 -21.278  0.00  0.00    +0.038 C 
ATOM     26  C   UNL     1      34.907 -15.692 -22.575  0.00  0.00    +0.139 C 
BRANCH  26  27
ATOM     27  O   UNL     1      35.817 -16.681 -22.789  0.00  0.00    -0.471 OA
ATOM     28  C   UNL     1      35.691 -17.864 -22.001  0.00  0.00    +0.252 C 
ENDBRANCH  26  27
ENDBRANCH  19  21
ENDBRANCH  18  19
ENDBRANCH  17  18
ENDBRANCH  14  17
ENDBRANCH   1  15
BRANCH   1  29
ATOM     29  C   UNL     1      31.513  -7.087 -22.001  0.00  0.00    +0.029 C 
BRANCH  29  30
ATOM     30  C   UNL     1      31.810  -5.722 -22.618  0.00  0.00    +0.002 C 
ATOM     31  C   UNL     1      30.687  -4.727 -22.298  0.00  0.00    +0.000 C 
ATOM     32  C   UNL     1      32.014  -5.845 -24.134  0.00  0.00    +0.000 C 
ATOM     33  C   UNL     1      30.935  -3.368 -22.949  0.00  0.00    +0.000 C 
ATOM     34  C   UNL     1      32.260  -4.485 -24.782  0.00  0.00    +0.000 C 
ATOM     35  C   UNL     1      31.146  -3.496 -24.454  0.00  0.00    +0.000 C 
ENDBRANCH  29  30
ENDBRANCH   1  29
TORSDOF 9
ENDMDL
MODEL 9
REMARK VINA RESULT:      -9.1      2.945      8.399
REMARK  Name = 6420159
REMARK  9 active torsions:
REMARK  status: ('A' for Active; 'I' for Inactive)
REMARK    1  A    between atoms: C_1  and  N_3
REMARK    2  A    between atoms: C_1  and  C_15
REMARK    3  A    between atoms: C_1  and  C_29
REMARK    4  A    between atoms: N_14  and  C_17
REMARK    5  A    between atoms: C_17  and  C_18
REMARK    6  A    between atoms: C_18  and  N_19
REMARK    7  A    between atoms: N_19  and  C_21
REMARK    8  A    between atoms: C_26  and  O_27
REMARK    9  A    between atoms: C_29  and  C_30
REMARK                            x       y       z     vdW  Elec       q    Type
REMARK                         _______ _______ _______ _____ _____    ______ ____
ROOT
ATOM      1  C   UNL     1      36.727 -23.525 -15.779  0.00  0.00    +0.151 C 
ENDROOT
BRANCH   1   3
ATOM      2  O   UNL     1      36.615 -21.457 -18.804  0.00  0.00    -0.414 OA
ATOM      3  N   UNL     1      37.049 -22.680 -16.909  0.00  0.00    -0.271 N 
ATOM      4  N   UNL     1      34.838 -22.480 -17.837  0.00  0.00    -0.356 NA
ATOM      5  C   UNL     1      36.110 -22.235 -17.824  0.00  0.00    +0.345 C 
ATOM      6  C   UNL     1      35.506 -21.165 -19.547  0.00  0.00    +0.175 C 
ATOM      7  C   UNL     1      34.421 -21.792 -18.951  0.00  0.00    +0.152 C 
ATOM      8  C   UNL     1      35.437 -20.386 -20.694  0.00  0.00    +0.040 C 
ATOM      9  C   UNL     1      33.152 -21.645 -19.529  0.00  0.00    +0.088 C 
ATOM     10  C   UNL     1      34.164 -20.249 -21.259  0.00  0.00    -0.001 C 
ATOM     11  C   UNL     1      33.043 -20.865 -20.690  0.00  0.00    -0.018 C 
ATOM     12  H   UNL     1      37.986 -22.407 -17.034  0.00  0.00    +0.153 HD
ENDBRANCH   1   3
BRANCH   1  15
ATOM     13  O   UNL     1      34.791 -24.761 -16.549  0.00  0.00    -0.273 OA
ATOM     14  N   UNL     1      34.483 -23.055 -15.009  0.00  0.00    -0.301 N 
ATOM     15  C   UNL     1      35.244 -23.868 -15.836  0.00  0.00    +0.240 C 
ATOM     16  H   UNL     1      34.934 -22.365 -14.472  0.00  0.00    +0.150 HD
BRANCH  14  17
ATOM     17  C   UNL     1      33.050 -23.191 -14.910  0.00  0.00    +0.111 C 
BRANCH  17  18
ATOM     18  C   UNL     1      32.641 -24.274 -13.924  0.00  0.00    +0.109 C 
BRANCH  18  19
ATOM     19  N   UNL     1      31.220 -24.219 -13.675  0.00  0.00    -0.331 N 
ATOM     20  H   UNL     1      30.907 -24.301 -12.745  0.00  0.00    +0.147 HD
BRANCH  19  21
ATOM     21  C   UNL     1      30.270 -24.059 -14.672  0.00  0.00    +0.045 C 
ATOM     22  C   UNL     1      29.683 -22.803 -14.916  0.00  0.00    +0.017 C 
ATOM     23  C   UNL     1      29.865 -25.148 -15.465  0.00  0.00    +0.017 C 
ATOM     24  C   UNL     1      28.726 -22.642 -15.918  0.00  0.00    +0.038 C 
ATOM     25  C   UNL     1      28.908 -24.987 -16.467  0.00  0.00    +0.038 C 
ATOM     26  C   UNL     1      28.339 -23.735 -16.693  0.00  0.00    +0.139 C 
BRANCH  26  27
ATOM     27  O   UNL     1      27.406 -23.578 -17.672  0.00  0.00    -0.471 OA
ATOM     28  C   UNL     1      26.710 -22.333 -17.714  0.00  0.00    +0.252 C 
ENDBRANCH  26  27
ENDBRANCH  19  21
ENDBRANCH  18  19
ENDBRANCH  17  18
ENDBRANCH  14  17
ENDBRANCH   1  15
BRANCH   1  29
ATOM     29  C   UNL     1      37.049 -22.806 -14.468  0.00  0.00    +0.029 C 
BRANCH  29  30
ATOM     30  C   UNL     1      37.554 -23.760 -13.387  0.00  0.00    +0.002 C 
ATOM     31  C   UNL     1      38.239 -24.980 -14.018  0.00  0.00    +0.000 C 
ATOM     32  C   UNL     1      36.406 -24.194 -12.466  0.00  0.00    +0.000 C 
ATOM     33  C   UNL     1      38.706 -25.974 -12.957  0.00  0.00    +0.000 C 
ATOM     34  C   UNL     1      36.876 -25.190 -11.410  0.00  0.00    +0.000 C 
ATOM     35  C   UNL     1      37.564 -26.397 -12.040  0.00  0.00    +0.000 C 
ENDBRANCH  29  30
ENDBRANCH   1  29
TORSDOF 9
ENDMDL
