MODEL 1
REMARK VINA RESULT:     -12.1      0.000      0.000
REMARK  Name = 24779724
REMARK  3 active torsions:
REMARK  status: ('A' for Active; 'I' for Inactive)
REMARK    1  A    between atoms: C_5  and  C_12
REMARK    2  A    between atoms: C_7  and  S_16
REMARK    3  A    between atoms: S_16  and  C_19
REMARK                            x       y       z     vdW  Elec       q    Type
REMARK                         _______ _______ _______ _____ _____    ______ ____
ROOT
ATOM      1  N   UNL     1      34.587 -22.184 -18.537  0.00  0.00    -0.186 N 
ATOM      2  N   UNL     1      35.575 -22.584 -17.699  0.00  0.00    -0.162 NA
ATOM      3  N   UNL     1      32.604 -21.860 -19.425  0.00  0.00    -0.126 NA
ATOM      4  N   UNL     1      33.549 -21.259 -20.231  0.00  0.00    -0.120 NA
ATOM      5  C   UNL     1      35.149 -23.256 -16.666  0.00  0.00    +0.104 C 
ATOM      6  C   UNL     1      33.237 -22.412 -18.411  0.00  0.00    +0.187 A 
ATOM      7  C   UNL     1      34.728 -21.463 -19.687  0.00  0.00    +0.217 A 
ATOM      8  C   UNL     1      33.712 -23.594 -16.409  0.00  0.00    +0.024 C 
ATOM      9  C   UNL     1      32.807 -23.156 -17.294  0.00  0.00    +0.042 C 
ENDROOT
BRANCH   5  12
ATOM     10  N   UNL     1      37.182 -24.972 -14.195  0.00  0.00    -0.208 N 
ATOM     11  N   UNL     1      37.952 -23.875 -14.290  0.00  0.00    -0.176 NA
ATOM     12  C   UNL     1      36.136 -23.746 -15.670  0.00  0.00    +0.056 C 
ATOM     13  C   UNL     1      36.081 -24.944 -15.001  0.00  0.00    +0.087 C 
ATOM     14  C   UNL     1      37.309 -23.130 -15.192  0.00  0.00    +0.121 C 
ATOM     15  C   UNL     1      37.558 -26.037 -13.296  0.00  0.00    +0.140 C 
ENDBRANCH   5  12
BRANCH   7  16
ATOM     16  S   UNL     1      36.304 -20.904 -20.314  0.00  0.00    -0.051 S 
BRANCH  16  19
ATOM     17  N   UNL     1      34.636 -16.450 -23.888  0.00  0.00    -0.248 NA
ATOM     18  C   UNL     1      34.830 -18.817 -23.482  0.00  0.00    -0.003 C 
ATOM     19  C   UNL     1      35.800 -19.578 -21.391  0.00  0.00    +0.011 C 
ATOM     20  C   UNL     1      35.005 -17.472 -23.094  0.00  0.00    +0.060 C 
ATOM     21  C   UNL     1      35.228 -19.860 -22.629  0.00  0.00    +0.060 C 
ATOM     22  C   UNL     1      35.976 -18.256 -21.003  0.00  0.00    -0.017 C 
ATOM     23  C   UNL     1      35.581 -17.219 -21.851  0.00  0.00    +0.072 C 
ATOM     24  C   UNL     1      34.252 -19.072 -24.733  0.00  0.00    -0.001 C 
ATOM     25  C   UNL     1      33.870 -18.021 -25.553  0.00  0.00    +0.020 C 
ATOM     26  C   UNL     1      34.081 -16.739 -25.087  0.00  0.00    +0.098 C 
ENDBRANCH  16  19
ENDBRANCH   7  16
TORSDOF 3
ENDMDL
MODEL 2
REMARK VINA RESULT:     -12.0      0.917      1.785
REMARK  Name = 24779724
REMARK  3 active torsions:
REMARK  status: ('A' for Active; 'I' for Inactive)
REMARK    1  A    between atoms: C_5  and  C_12
REMARK    2  A    between atoms: C_7  and  S_16
REMARK    3  A    between atoms: S_16  and  C_19
REMARK                            x       y       z     vdW  Elec       q    Type
REMARK                         _______ _______ _______ _____ _____    ______ ____
ROOT
ATOM      1  N   UNL     1      34.671 -22.026 -18.756  0.00  0.00    -0.186 N 
ATOM      2  N   UNL     1      35.659 -22.411 -17.911  0.00  0.00    -0.162 NA
ATOM      3  N   UNL     1      32.694 -21.758 -19.675  0.00  0.00    -0.126 NA
ATOM      4  N   UNL     1      33.628 -21.091 -20.442  0.00  0.00    -0.120 NA
ATOM      5  C   UNL     1      35.242 -23.133 -16.909  0.00  0.00    +0.104 C 
ATOM      6  C   UNL     1      33.330 -22.316 -18.666  0.00  0.00    +0.187 A 
ATOM      7  C   UNL     1      34.803 -21.263 -19.880  0.00  0.00    +0.217 A 
ATOM      8  C   UNL     1      33.816 -23.541 -16.693  0.00  0.00    +0.024 C 
ATOM      9  C   UNL     1      32.911 -23.113 -17.583  0.00  0.00    +0.042 C 
ENDROOT
BRANCH   5  12
ATOM     10  N   UNL     1      37.194 -24.720 -14.290  0.00  0.00    -0.208 N 
ATOM     11  N   UNL     1      38.136 -23.841 -14.671  0.00  0.00    -0.176 NA
ATOM     12  C   UNL     1      36.230 -23.612 -15.908  0.00  0.00    +0.056 C 
ATOM     13  C   UNL     1      36.032 -24.624 -15.000  0.00  0.00    +0.087 C 
ATOM     14  C   UNL     1      37.542 -23.168 -15.659  0.00  0.00    +0.121 C 
ATOM     15  C   UNL     1      37.468 -25.646 -13.218  0.00  0.00    +0.140 C 
ENDBRANCH   5  12
BRANCH   7  16
ATOM     16  S   UNL     1      36.365 -20.616 -20.456  0.00  0.00    -0.051 S 
BRANCH  16  19
ATOM     17  N   UNL     1      34.569 -16.058 -23.830  0.00  0.00    -0.248 NA
ATOM     18  C   UNL     1      35.178 -16.915 -21.662  0.00  0.00    -0.003 C 
ATOM     19  C   UNL     1      35.828 -19.245 -21.457  0.00  0.00    +0.011 C 
ATOM     20  C   UNL     1      34.976 -17.076 -23.049  0.00  0.00    +0.060 C 
ATOM     21  C   UNL     1      35.603 -18.000 -20.877  0.00  0.00    +0.060 C 
ATOM     22  C   UNL     1      35.630 -19.410 -22.822  0.00  0.00    -0.017 C 
ATOM     23  C   UNL     1      35.208 -18.332 -23.603  0.00  0.00    +0.072 C 
ATOM     24  C   UNL     1      34.944 -15.652 -21.104  0.00  0.00    -0.001 C 
ATOM     25  C   UNL     1      34.525 -14.600 -21.907  0.00  0.00    +0.020 C 
ATOM     26  C   UNL     1      34.354 -14.855 -23.252  0.00  0.00    +0.098 C 
ENDBRANCH  16  19
ENDBRANCH   7  16
TORSDOF 3
ENDMDL
MODEL 3
REMARK VINA RESULT:     -11.2      2.921      9.850
REMARK  Name = 24779724
REMARK  3 active torsions:
REMARK  status: ('A' for Active; 'I' for Inactive)
REMARK    1  A    between atoms: C_5  and  C_12
REMARK    2  A    between atoms: C_7  and  S_16
REMARK    3  A    between atoms: S_16  and  C_19
REMARK                            x       y       z     vdW  Elec       q    Type
REMARK                         _______ _______ _______ _____ _____    ______ ____
ROOT
ATOM      1  N   UNL     1      34.486 -17.480 -24.239  0.00  0.00    -0.186 N 
ATOM      2  N   UNL     1      34.438 -16.248 -23.675  0.00  0.00    -0.162 NA
ATOM      3  N   UNL     1      34.187 -19.154 -25.629  0.00  0.00    -0.126 NA
ATOM      4  N   UNL     1      34.954 -19.595 -24.570  0.00  0.00    -0.120 NA
ATOM      5  C   UNL     1      33.763 -15.377 -24.370  0.00  0.00    +0.104 C 
ATOM      6  C   UNL     1      33.912 -17.884 -25.421  0.00  0.00    +0.187 A 
ATOM      7  C   UNL     1      35.122 -18.584 -23.748  0.00  0.00    +0.217 A 
ATOM      8  C   UNL     1      33.069 -15.679 -25.665  0.00  0.00    +0.024 C 
ATOM      9  C   UNL     1      33.173 -16.925 -26.143  0.00  0.00    +0.042 C 
ENDROOT
BRANCH   5  12
ATOM     10  N   UNL     1      33.699 -11.809 -23.699  0.00  0.00    -0.208 N 
ATOM     11  N   UNL     1      33.216 -12.197 -22.506  0.00  0.00    -0.176 NA
ATOM     12  C   UNL     1      33.641 -13.987 -23.860  0.00  0.00    +0.056 C 
ATOM     13  C   UNL     1      33.970 -12.843 -24.546  0.00  0.00    +0.087 C 
ATOM     14  C   UNL     1      33.183 -13.528 -22.610  0.00  0.00    +0.121 C 
ATOM     15  C   UNL     1      33.883 -10.404 -23.975  0.00  0.00    +0.140 C 
ENDBRANCH   5  12
BRANCH   7  16
ATOM     16  S   UNL     1      36.034 -18.595 -22.213  0.00  0.00    -0.051 S 
BRANCH  16  19
ATOM     17  N   UNL     1      32.718 -22.302 -18.950  0.00  0.00    -0.248 NA
ATOM     18  C   UNL     1      34.887 -21.420 -19.518  0.00  0.00    -0.003 C 
ATOM     19  C   UNL     1      35.051 -19.708 -21.230  0.00  0.00    +0.011 C 
ATOM     20  C   UNL     1      33.486 -21.470 -19.677  0.00  0.00    +0.060 C 
ATOM     21  C   UNL     1      35.659 -20.540 -20.295  0.00  0.00    +0.060 C 
ATOM     22  C   UNL     1      33.672 -19.752 -21.393  0.00  0.00    -0.017 C 
ATOM     23  C   UNL     1      32.905 -20.627 -20.621  0.00  0.00    +0.072 C 
ATOM     24  C   UNL     1      35.473 -22.268 -18.569  0.00  0.00    -0.001 C 
ATOM     25  C   UNL     1      34.684 -23.127 -17.817  0.00  0.00    +0.020 C 
ATOM     26  C   UNL     1      33.322 -23.104 -18.045  0.00  0.00    +0.098 C 
ENDBRANCH  16  19
ENDBRANCH   7  16
TORSDOF 3
ENDMDL
MODEL 4
REMARK VINA RESULT:     -10.8      2.272      9.398
REMARK  Name = 24779724
REMARK  3 active torsions:
REMARK  status: ('A' for Active; 'I' for Inactive)
REMARK    1  A    between atoms: C_5  and  C_12
REMARK    2  A    between atoms: C_7  and  S_16
REMARK    3  A    between atoms: S_16  and  C_19
REMARK                            x       y       z     vdW  Elec       q    Type
REMARK                         _______ _______ _______ _____ _____    ______ ____
ROOT
ATOM      1  N   UNL     1      35.375 -20.297 -20.851  0.00  0.00    -0.186 N 
ATOM      2  N   UNL     1      34.657 -19.820 -21.898  0.00  0.00    -0.162 NA
ATOM      3  N   UNL     1      37.015 -20.664 -19.437  0.00  0.00    -0.126 NA
ATOM      4  N   UNL     1      35.918 -21.400 -19.036  0.00  0.00    -0.120 NA
ATOM      5  C   UNL     1      35.318 -18.989 -22.654  0.00  0.00    +0.104 C 
ATOM      6  C   UNL     1      36.679 -20.005 -20.526  0.00  0.00    +0.187 A 
ATOM      7  C   UNL     1      34.948 -21.170 -19.893  0.00  0.00    +0.217 A 
ATOM      8  C   UNL     1      36.748 -18.594 -22.432  0.00  0.00    +0.024 C 
ATOM      9  C   UNL     1      37.374 -19.118 -21.371  0.00  0.00    +0.042 C 
ENDROOT
BRANCH   5  12
ATOM     10  N   UNL     1      33.873 -16.969 -25.302  0.00  0.00    -0.208 N 
ATOM     11  N   UNL     1      33.436 -18.155 -25.760  0.00  0.00    -0.176 NA
ATOM     12  C   UNL     1      34.639 -18.392 -23.832  0.00  0.00    +0.056 C 
ATOM     13  C   UNL     1      34.598 -17.056 -24.150  0.00  0.00    +0.087 C 
ATOM     14  C   UNL     1      33.907 -19.020 -24.859  0.00  0.00    +0.121 C 
ATOM     15  C   UNL     1      33.557 -15.760 -26.026  0.00  0.00    +0.140 C 
ENDBRANCH   5  12
BRANCH   7  16
ATOM     16  S   UNL     1      33.304 -21.866 -19.854  0.00  0.00    -0.051 S 
BRANCH  16  19
ATOM     17  N   UNL     1      33.233 -24.306 -14.429  0.00  0.00    -0.248 NA
ATOM     18  C   UNL     1      32.035 -23.309 -16.267  0.00  0.00    -0.003 C 
ATOM     19  C   UNL     1      33.271 -22.596 -18.230  0.00  0.00    +0.011 C 
ATOM     20  C   UNL     1      33.227 -23.752 -15.656  0.00  0.00    +0.060 C 
ATOM     21  C   UNL     1      32.066 -22.735 -17.549  0.00  0.00    +0.060 C 
ATOM     22  C   UNL     1      34.449 -23.028 -17.634  0.00  0.00    -0.017 C 
ATOM     23  C   UNL     1      34.419 -23.599 -16.360  0.00  0.00    +0.072 C 
ATOM     24  C   UNL     1      30.836 -23.462 -15.559  0.00  0.00    -0.001 C 
ATOM     25  C   UNL     1      30.838 -24.033 -14.295  0.00  0.00    +0.020 C 
ATOM     26  C   UNL     1      32.054 -24.435 -13.780  0.00  0.00    +0.098 C 
ENDBRANCH  16  19
ENDBRANCH   7  16
TORSDOF 3
ENDMDL
MODEL 5
REMARK VINA RESULT:     -10.5      6.734     12.502
REMARK  Name = 24779724
REMARK  3 active torsions:
REMARK  status: ('A' for Active; 'I' for Inactive)
REMARK    1  A    between atoms: C_5  and  C_12
REMARK    2  A    between atoms: C_7  and  S_16
REMARK    3  A    between atoms: S_16  and  C_19
REMARK                            x       y       z     vdW  Elec       q    Type
REMARK                         _______ _______ _______ _____ _____    ______ ____
ROOT
ATOM      1  N   UNL     1      32.472 -11.581 -22.284  0.00  0.00    -0.186 N 
ATOM      2  N   UNL     1      32.634 -10.365 -22.861  0.00  0.00    -0.162 NA
ATOM      3  N   UNL     1      31.952 -13.159 -20.848  0.00  0.00    -0.126 NA
ATOM      4  N   UNL     1      32.492 -13.751 -21.972  0.00  0.00    -0.120 NA
ATOM      5  C   UNL     1      32.224  -9.373 -22.122  0.00  0.00    +0.104 C 
ATOM      6  C   UNL     1      31.943 -11.858 -21.045  0.00  0.00    +0.187 A 
ATOM      7  C   UNL     1      32.799 -12.794 -22.819  0.00  0.00    +0.217 A 
ATOM      8  C   UNL     1      31.645  -9.523 -20.747  0.00  0.00    +0.024 C 
ATOM      9  C   UNL     1      31.525 -10.765 -20.261  0.00  0.00    +0.042 C 
ENDROOT
BRANCH   5  12
ATOM     10  N   UNL     1      31.883  -5.951 -23.287  0.00  0.00    -0.208 N 
ATOM     11  N   UNL     1      33.202  -6.060 -23.519  0.00  0.00    -0.176 NA
ATOM     12  C   UNL     1      32.343  -7.988 -22.646  0.00  0.00    +0.056 C 
ATOM     13  C   UNL     1      31.321  -7.079 -22.764  0.00  0.00    +0.087 C 
ATOM     14  C   UNL     1      33.478  -7.306 -23.125  0.00  0.00    +0.121 C 
ATOM     15  C   UNL     1      31.200  -4.716 -23.592  0.00  0.00    +0.140 C 
ENDBRANCH   5  12
BRANCH   7  16
ATOM     16  S   UNL     1      33.531 -12.995 -24.435  0.00  0.00    -0.051 S 
BRANCH  16  19
ATOM     17  N   UNL     1      34.578 -18.849 -24.551  0.00  0.00    -0.248 NA
ATOM     18  C   UNL     1      34.812 -16.726 -23.437  0.00  0.00    -0.003 C 
ATOM     19  C   UNL     1      33.849 -14.747 -24.460  0.00  0.00    +0.011 C 
ATOM     20  C   UNL     1      34.351 -17.523 -24.505  0.00  0.00    +0.060 C 
ATOM     21  C   UNL     1      34.558 -15.344 -23.422  0.00  0.00    +0.060 C 
ATOM     22  C   UNL     1      33.393 -15.526 -25.516  0.00  0.00    -0.017 C 
ATOM     23  C   UNL     1      33.646 -16.899 -25.531  0.00  0.00    +0.072 C 
ATOM     24  C   UNL     1      35.522 -17.353 -22.405  0.00  0.00    -0.001 C 
ATOM     25  C   UNL     1      35.757 -18.720 -22.449  0.00  0.00    +0.020 C 
ATOM     26  C   UNL     1      35.268 -19.416 -23.535  0.00  0.00    +0.098 C 
ENDBRANCH  16  19
ENDBRANCH   7  16
TORSDOF 3
ENDMDL
MODEL 6
REMARK VINA RESULT:     -10.1      6.820     12.580
REMARK  Name = 24779724
REMARK  3 active torsions:
REMARK  status: ('A' for Active; 'I' for Inactive)
REMARK    1  A    between atoms: C_5  and  C_12
REMARK    2  A    between atoms: C_7  and  S_16
REMARK    3  A    between atoms: S_16  and  C_19
REMARK                            x       y       z     vdW  Elec       q    Type
REMARK                         _______ _______ _______ _____ _____    ______ ____
ROOT
ATOM      1  N   UNL     1      32.533 -11.387 -22.480  0.00  0.00    -0.186 N 
ATOM      2  N   UNL     1      32.906 -10.261 -23.136  0.00  0.00    -0.162 NA
ATOM      3  N   UNL     1      31.690 -12.746 -20.974  0.00  0.00    -0.126 NA
ATOM      4  N   UNL     1      32.228 -13.503 -21.995  0.00  0.00    -0.120 NA
ATOM      5  C   UNL     1      32.582  -9.160 -22.518  0.00  0.00    +0.104 C 
ATOM      6  C   UNL     1      31.877 -11.478 -21.275  0.00  0.00    +0.187 A 
ATOM      7  C   UNL     1      32.729 -12.676 -22.885  0.00  0.00    +0.217 A 
ATOM      8  C   UNL     1      31.884  -9.107 -21.192  0.00  0.00    +0.024 C 
ATOM      9  C   UNL     1      31.555 -10.273 -20.621  0.00  0.00    +0.042 C 
ENDROOT
BRANCH   5  12
ATOM     10  N   UNL     1      32.817  -5.827 -23.940  0.00  0.00    -0.208 N 
ATOM     11  N   UNL     1      34.105  -6.162 -24.124  0.00  0.00    -0.176 NA
ATOM     12  C   UNL     1      32.932  -7.857 -23.138  0.00  0.00    +0.056 C 
ATOM     13  C   UNL     1      32.071  -6.808 -23.353  0.00  0.00    +0.087 C 
ATOM     14  C   UNL     1      34.170  -7.402 -23.632  0.00  0.00    +0.121 C 
ATOM     15  C   UNL     1      32.347  -4.527 -24.355  0.00  0.00    +0.140 C 
ENDBRANCH   5  12
BRANCH   7  16
ATOM     16  S   UNL     1      33.548 -13.118 -24.410  0.00  0.00    -0.051 S 
BRANCH  16  19
ATOM     17  N   UNL     1      35.276 -18.682 -23.209  0.00  0.00    -0.248 NA
ATOM     18  C   UNL     1      34.128 -17.138 -24.659  0.00  0.00    -0.003 C 
ATOM     19  C   UNL     1      34.061 -14.787 -24.060  0.00  0.00    +0.011 C 
ATOM     20  C   UNL     1      34.875 -17.430 -23.499  0.00  0.00    +0.060 C 
ATOM     21  C   UNL     1      33.726 -15.819 -24.931  0.00  0.00    +0.060 C 
ATOM     22  C   UNL     1      34.796 -15.068 -22.915  0.00  0.00    -0.017 C 
ATOM     23  C   UNL     1      35.196 -16.378 -22.645  0.00  0.00    +0.072 C 
ATOM     24  C   UNL     1      33.805 -18.196 -25.519  0.00  0.00    -0.001 C 
ATOM     25  C   UNL     1      34.216 -19.487 -25.223  0.00  0.00    +0.020 C 
ATOM     26  C   UNL     1      34.943 -19.675 -24.065  0.00  0.00    +0.098 C 
ENDBRANCH  16  19
ENDBRANCH   7  16
TORSDOF 3
ENDMDL
MODEL 7
REMARK VINA RESULT:     -10.0      7.165     13.194
REMARK  Name = 24779724
REMARK  3 active torsions:
REMARK  status: ('A' for Active; 'I' for Inactive)
REMARK    1  A    between atoms: C_5  and  C_12
REMARK    2  A    between atoms: C_7  and  S_16
REMARK    3  A    between atoms: S_16  and  C_19
REMARK                            x       y       z     vdW  Elec       q    Type
REMARK                         _______ _______ _______ _____ _____    ______ ____
ROOT
ATOM      1  N   UNL     1      32.563 -10.545 -22.453  0.00  0.00    -0.186 N 
ATOM      2  N   UNL     1      33.121  -9.596 -23.244  0.00  0.00    -0.162 NA
ATOM      3  N   UNL     1      31.403 -11.525 -20.865  0.00  0.00    -0.126 NA
ATOM      4  N   UNL     1      32.011 -12.500 -21.629  0.00  0.00    -0.120 NA
ATOM      5  C   UNL     1      32.810  -8.377 -22.902  0.00  0.00    +0.104 C 
ATOM      6  C   UNL     1      31.740 -10.355 -21.368  0.00  0.00    +0.187 A 
ATOM      7  C   UNL     1      32.701 -11.898 -22.571  0.00  0.00    +0.217 A 
ATOM      8  C   UNL     1      31.940  -8.020 -21.734  0.00  0.00    +0.024 C 
ATOM      9  C   UNL     1      31.435  -9.027 -21.011  0.00  0.00    +0.042 C 
ENDROOT
BRANCH   5  12
ATOM     10  N   UNL     1      33.526  -5.434 -24.904  0.00  0.00    -0.208 N 
ATOM     11  N   UNL     1      34.802  -5.833 -24.759  0.00  0.00    -0.176 NA
ATOM     12  C   UNL     1      33.355  -7.246 -23.696  0.00  0.00    +0.056 C 
ATOM     13  C   UNL     1      32.621  -6.247 -24.287  0.00  0.00    +0.087 C 
ATOM     14  C   UNL     1      34.691  -6.939 -24.019  0.00  0.00    +0.121 C 
ATOM     15  C   UNL     1      33.230  -4.242 -25.662  0.00  0.00    +0.140 C 
ENDBRANCH   5  12
BRANCH   7  16
ATOM     16  S   UNL     1      33.684 -12.682 -23.840  0.00  0.00    -0.051 S 
BRANCH  16  19
ATOM     17  N   UNL     1      35.514 -17.575 -20.995  0.00  0.00    -0.248 NA
ATOM     18  C   UNL     1      34.877 -16.492 -23.051  0.00  0.00    -0.003 C 
ATOM     19  C   UNL     1      34.233 -14.152 -22.998  0.00  0.00    +0.011 C 
ATOM     20  C   UNL     1      35.101 -16.479 -21.658  0.00  0.00    +0.060 C 
ATOM     21  C   UNL     1      34.445 -15.329 -23.710  0.00  0.00    +0.060 C 
ATOM     22  C   UNL     1      34.451 -14.133 -21.626  0.00  0.00    -0.017 C 
ATOM     23  C   UNL     1      34.880 -15.289 -20.970  0.00  0.00    +0.072 C 
ATOM     24  C   UNL     1      35.099 -17.690 -23.743  0.00  0.00    -0.001 C 
ATOM     25  C   UNL     1      35.525 -18.821 -23.063  0.00  0.00    +0.020 C 
ATOM     26  C   UNL     1      35.717 -18.711 -21.700  0.00  0.00    +0.098 C 
ENDBRANCH  16  19
ENDBRANCH   7  16
TORSDOF 3
ENDMDL
MODEL 8
REMARK VINA RESULT:      -9.9      1.827      9.357
REMARK  Name = 24779724
REMARK  3 active torsions:
REMARK  status: ('A' for Active; 'I' for Inactive)
REMARK    1  A    between atoms: C_5  and  C_12
REMARK    2  A    between atoms: C_7  and  S_16
REMARK    3  A    between atoms: S_16  and  C_19
REMARK                            x       y       z     vdW  Elec       q    Type
REMARK                         _______ _______ _______ _____ _____    ______ ____
ROOT
ATOM      1  N   UNL     1      34.906 -21.978 -18.554  0.00  0.00    -0.186 N 
ATOM      2  N   UNL     1      35.449 -21.073 -19.406  0.00  0.00    -0.162 NA
ATOM      3  N   UNL     1      33.483 -23.335 -17.577  0.00  0.00    -0.126 NA
ATOM      4  N   UNL     1      34.687 -23.408 -16.907  0.00  0.00    -0.120 NA
ATOM      5  C   UNL     1      34.625 -20.658 -20.326  0.00  0.00    +0.104 C 
ATOM      6  C   UNL     1      33.624 -22.474 -18.563  0.00  0.00    +0.187 A 
ATOM      7  C   UNL     1      35.526 -22.590 -17.503  0.00  0.00    +0.217 A 
ATOM      8  C   UNL     1      33.197 -21.098 -20.447  0.00  0.00    +0.024 C 
ATOM      9  C   UNL     1      32.751 -21.994 -19.558  0.00  0.00    +0.042 C 
ENDROOT
BRANCH   5  12
ATOM     10  N   UNL     1      35.247 -18.378 -23.083  0.00  0.00    -0.208 N 
ATOM     11  N   UNL     1      36.376 -18.108 -22.405  0.00  0.00    -0.176 NA
ATOM     12  C   UNL     1      35.102 -19.667 -21.326  0.00  0.00    +0.056 C 
ATOM     13  C   UNL     1      34.450 -19.306 -22.479  0.00  0.00    +0.087 C 
ATOM     14  C   UNL     1      36.281 -18.898 -21.332  0.00  0.00    +0.121 C 
ATOM     15  C   UNL     1      34.981 -17.702 -24.331  0.00  0.00    +0.140 C 
ENDBRANCH   5  12
BRANCH   7  16
ATOM     16  S   UNL     1      37.227 -22.289 -17.049  0.00  0.00    -0.051 S 
BRANCH  16  19
ATOM     17  N   UNL     1      37.749 -25.588 -12.127  0.00  0.00    -0.248 NA
ATOM     18  C   UNL     1      36.560 -23.904 -13.374  0.00  0.00    -0.003 C 
ATOM     19  C   UNL     1      37.373 -23.273 -15.572  0.00  0.00    +0.011 C 
ATOM     20  C   UNL     1      37.612 -24.833 -13.232  0.00  0.00    +0.060 C 
ATOM     21  C   UNL     1      36.448 -23.131 -14.542  0.00  0.00    +0.060 C 
ATOM     22  C   UNL     1      38.413 -24.184 -15.438  0.00  0.00    -0.017 C 
ATOM     23  C   UNL     1      38.524 -24.953 -14.277  0.00  0.00    +0.072 C 
ATOM     24  C   UNL     1      35.642 -23.782 -12.322  0.00  0.00    -0.001 C 
ATOM     25  C   UNL     1      35.779 -24.560 -11.181  0.00  0.00    +0.020 C 
ATOM     26  C   UNL     1      36.841 -25.440 -11.134  0.00  0.00    +0.098 C 
ENDBRANCH  16  19
ENDBRANCH   7  16
TORSDOF 3
ENDMDL
MODEL 9
REMARK VINA RESULT:      -9.5      5.487      9.243
REMARK  Name = 24779724
REMARK  3 active torsions:
REMARK  status: ('A' for Active; 'I' for Inactive)
REMARK    1  A    between atoms: C_5  and  C_12
REMARK    2  A    between atoms: C_7  and  S_16
REMARK    3  A    between atoms: S_16  and  C_19
REMARK                            x       y       z     vdW  Elec       q    Type
REMARK                         _______ _______ _______ _____ _____    ______ ____
ROOT
ATOM      1  N   UNL     1      33.825 -15.398 -24.165  0.00  0.00    -0.186 N 
ATOM      2  N   UNL     1      34.304 -16.131 -23.130  0.00  0.00    -0.162 NA
ATOM      3  N   UNL     1      33.267 -14.758 -26.191  0.00  0.00    -0.126 NA
ATOM      4  N   UNL     1      32.896 -13.770 -25.302  0.00  0.00    -0.120 NA
ATOM      5  C   UNL     1      34.808 -17.279 -23.488  0.00  0.00    +0.104 C 
ATOM      6  C   UNL     1      33.824 -15.730 -25.499  0.00  0.00    +0.187 A 
ATOM      7  C   UNL     1      33.237 -14.167 -24.097  0.00  0.00    +0.217 A 
ATOM      8  C   UNL     1      34.890 -17.764 -24.904  0.00  0.00    +0.024 C 
ATOM      9  C   UNL     1      34.391 -16.969 -25.859  0.00  0.00    +0.042 C 
ENDROOT
BRANCH   5  12
ATOM     10  N   UNL     1      35.627 -19.827 -21.034  0.00  0.00    -0.208 N 
ATOM     11  N   UNL     1      36.728 -19.078 -20.850  0.00  0.00    -0.176 NA
ATOM     12  C   UNL     1      35.361 -18.179 -22.444  0.00  0.00    +0.056 C 
ATOM     13  C   UNL     1      34.776 -19.331 -21.978  0.00  0.00    +0.087 C 
ATOM     14  C   UNL     1      36.561 -18.074 -21.713  0.00  0.00    +0.121 C 
ATOM     15  C   UNL     1      35.441 -21.031 -20.260  0.00  0.00    +0.140 C 
ENDBRANCH   5  12
BRANCH   7  16
ATOM     16  S   UNL     1      32.992 -13.275 -22.569  0.00  0.00    -0.051 S 
BRANCH  16  19
ATOM     17  N   UNL     1      34.278  -7.724 -24.275  0.00  0.00    -0.248 NA
ATOM     18  C   UNL     1      32.885  -9.232 -23.014  0.00  0.00    -0.003 C 
ATOM     19  C   UNL     1      33.369 -11.609 -23.073  0.00  0.00    +0.011 C 
ATOM     20  C   UNL     1      33.970  -8.972 -23.877  0.00  0.00    +0.060 C 
ATOM     21  C   UNL     1      32.592 -10.547 -22.619  0.00  0.00    +0.060 C 
ATOM     22  C   UNL     1      34.439 -11.361 -23.923  0.00  0.00    -0.017 C 
ATOM     23  C   UNL     1      34.730 -10.053 -24.316  0.00  0.00    +0.072 C 
ATOM     24  C   UNL     1      32.120  -8.144 -22.572  0.00  0.00    -0.001 C 
ATOM     25  C   UNL     1      32.435  -6.856 -22.980  0.00  0.00    +0.020 C 
ATOM     26  C   UNL     1      33.515  -6.702 -23.825  0.00  0.00    +0.098 C 
ENDBRANCH  16  19
ENDBRANCH   7  16
TORSDOF 3
ENDMDL
