MODEL 1
REMARK VINA RESULT:     -12.4      0.000      0.000
REMARK  Name = 11740318
REMARK  5 active torsions:
REMARK  status: ('A' for Active; 'I' for Inactive)
REMARK    1  A    between atoms: N_1  and  C_20
REMARK    2  A    between atoms: C_2  and  O_8
REMARK    3  A    between atoms: O_8  and  C_9
REMARK    4  A    between atoms: C_14  and  N_15
REMARK    5  A    between atoms: C_20  and  C_23
REMARK                            x       y       z     vdW  Elec       q    Type
REMARK                         _______ _______ _______ _____ _____    ______ ____
ROOT
ATOM      1  N   UNL     1      34.133 -23.594 -14.242  0.00  0.00    +0.392 N 
ATOM      2  C   UNL     1      33.993 -23.133 -16.670  0.00  0.00    +0.145 C 
ATOM      3  C   UNL     1      34.755 -23.845 -15.548  0.00  0.00    -0.032 C 
ATOM      4  C   UNL     1      32.521 -23.535 -16.678  0.00  0.00    +0.039 C 
ATOM      5  C   UNL     1      31.908 -23.344 -15.298  0.00  0.00    -0.019 C 
ATOM      6  C   UNL     1      32.736 -24.050 -14.221  0.00  0.00    -0.077 C 
ATOM      7  H   UNL     1      34.137 -22.587 -14.081  0.00  0.00    -0.079 HD
ENDROOT
BRANCH   2   8
ATOM      8  O   UNL     1      34.562 -23.474 -17.930  0.00  0.00    -0.481 OA
BRANCH   8   9
ATOM      9  C   UNL     1      34.699 -22.459 -18.839  0.00  0.00    +0.138 C 
ATOM     10  C   UNL     1      35.964 -21.960 -19.130  0.00  0.00    +0.038 C 
ATOM     11  C   UNL     1      33.571 -21.937 -19.464  0.00  0.00    +0.038 C 
ATOM     12  C   UNL     1      36.103 -20.926 -20.057  0.00  0.00    +0.018 C 
ATOM     13  C   UNL     1      33.710 -20.904 -20.390  0.00  0.00    +0.018 C 
ATOM     14  C   UNL     1      34.976 -20.399 -20.687  0.00  0.00    +0.057 C 
BRANCH  14  15
ATOM     15  N   UNL     1      35.113 -19.374 -21.606  0.00  0.00    -0.246 N 
ATOM     16  N   UNL     1      35.652 -17.384 -22.452  0.00  0.00    -0.224 NA
ATOM     17  C   UNL     1      34.732 -19.401 -22.923  0.00  0.00    +0.092 C 
ATOM     18  C   UNL     1      35.662 -18.137 -21.376  0.00  0.00    +0.172 C 
ATOM     19  C   UNL     1      35.074 -18.166 -23.421  0.00  0.00    +0.117 C 
ENDBRANCH  14  15
ENDBRANCH   8   9
ENDBRANCH   2   8
BRANCH   1  20
ATOM     20  C   UNL     1      34.899 -24.242 -13.178  0.00  0.00    -0.050 C 
BRANCH  20  23
ATOM     21  O   UNL     1      39.769 -24.922 -13.623  0.00  0.00    -0.435 OA
ATOM     22  O   UNL     1      39.488 -26.804 -15.101  0.00  0.00    -0.435 OA
ATOM     23  C   UNL     1      36.112 -24.955 -13.714  0.00  0.00    -0.040 C 
ATOM     24  C   UNL     1      37.378 -24.514 -13.345  0.00  0.00    +0.034 C 
ATOM     25  C   UNL     1      35.938 -26.047 -14.572  0.00  0.00    -0.003 C 
ATOM     26  C   UNL     1      38.458 -25.200 -13.862  0.00  0.00    +0.176 C 
ATOM     27  C   UNL     1      37.048 -26.724 -15.081  0.00  0.00    +0.040 C 
ATOM     28  C   UNL     1      38.298 -26.274 -14.706  0.00  0.00    +0.176 C 
ATOM     29  C   UNL     1      40.416 -25.943 -14.410  0.00  0.00    +0.429 C 
ENDBRANCH  20  23
ENDBRANCH   1  20
TORSDOF 5
ENDMDL
MODEL 2
REMARK VINA RESULT:     -11.2      4.728      8.826
REMARK  Name = 11740318
REMARK  5 active torsions:
REMARK  status: ('A' for Active; 'I' for Inactive)
REMARK    1  A    between atoms: N_1  and  C_20
REMARK    2  A    between atoms: C_2  and  O_8
REMARK    3  A    between atoms: O_8  and  C_9
REMARK    4  A    between atoms: C_14  and  N_15
REMARK    5  A    between atoms: C_20  and  C_23
REMARK                            x       y       z     vdW  Elec       q    Type
REMARK                         _______ _______ _______ _____ _____    ______ ____
ROOT
ATOM      1  N   UNL     1      34.987 -19.227 -22.457  0.00  0.00    +0.392 N 
ATOM      2  C   UNL     1      34.711 -16.975 -23.450  0.00  0.00    +0.145 C 
ATOM      3  C   UNL     1      35.524 -17.861 -22.500  0.00  0.00    -0.032 C 
ATOM      4  C   UNL     1      34.647 -17.582 -24.848  0.00  0.00    +0.039 C 
ATOM      5  C   UNL     1      34.163 -19.024 -24.782  0.00  0.00    -0.019 C 
ATOM      6  C   UNL     1      34.993 -19.843 -23.791  0.00  0.00    -0.077 C 
ATOM      7  H   UNL     1      34.018 -19.173 -22.141  0.00  0.00    -0.079 HD
ENDROOT
BRANCH   2   8
ATOM      8  O   UNL     1      35.314 -15.689 -23.542  0.00  0.00    -0.481 OA
BRANCH   8   9
ATOM      9  C   UNL     1      34.537 -14.618 -23.190  0.00  0.00    +0.138 C 
ATOM     10  C   UNL     1      34.104 -14.483 -21.876  0.00  0.00    +0.038 C 
ATOM     11  C   UNL     1      34.188 -13.675 -24.151  0.00  0.00    +0.038 C 
ATOM     12  C   UNL     1      33.311 -13.391 -21.518  0.00  0.00    +0.018 C 
ATOM     13  C   UNL     1      33.397 -12.584 -23.793  0.00  0.00    +0.018 C 
ATOM     14  C   UNL     1      32.959 -12.442 -22.476  0.00  0.00    +0.057 C 
BRANCH  14  15
ATOM     15  N   UNL     1      32.174 -11.359 -22.122  0.00  0.00    -0.246 N 
ATOM     16  N   UNL     1      30.602 -10.168 -21.083  0.00  0.00    -0.224 NA
ATOM     17  C   UNL     1      32.265 -10.085 -22.621  0.00  0.00    +0.092 C 
ATOM     18  C   UNL     1      31.157 -11.354 -21.199  0.00  0.00    +0.172 C 
ATOM     19  C   UNL     1      31.289  -9.373 -21.966  0.00  0.00    +0.117 C 
ENDBRANCH  14  15
ENDBRANCH   8   9
ENDBRANCH   2   8
BRANCH   1  20
ATOM     20  C   UNL     1      35.744 -20.046 -21.511  0.00  0.00    -0.050 C 
BRANCH  20  23
ATOM     21  O   UNL     1      34.881 -23.171 -17.787  0.00  0.00    -0.435 OA
ATOM     22  O   UNL     1      32.495 -22.870 -17.935  0.00  0.00    -0.435 OA
ATOM     23  C   UNL     1      34.840 -20.790 -20.565  0.00  0.00    -0.040 C 
ATOM     24  C   UNL     1      35.399 -21.640 -19.617  0.00  0.00    +0.034 C 
ATOM     25  C   UNL     1      33.455 -20.609 -20.659  0.00  0.00    -0.003 C 
ATOM     26  C   UNL     1      34.530 -22.299 -18.772  0.00  0.00    +0.176 C 
ATOM     27  C   UNL     1      32.598 -21.288 -19.791  0.00  0.00    +0.040 C 
ATOM     28  C   UNL     1      33.168 -22.129 -18.857  0.00  0.00    +0.176 C 
ATOM     29  C   UNL     1      33.587 -23.527 -17.260  0.00  0.00    +0.429 C 
ENDBRANCH  20  23
ENDBRANCH   1  20
TORSDOF 5
ENDMDL
MODEL 3
REMARK VINA RESULT:     -11.2      3.500      5.890
REMARK  Name = 11740318
REMARK  5 active torsions:
REMARK  status: ('A' for Active; 'I' for Inactive)
REMARK    1  A    between atoms: N_1  and  C_20
REMARK    2  A    between atoms: C_2  and  O_8
REMARK    3  A    between atoms: O_8  and  C_9
REMARK    4  A    between atoms: C_14  and  N_15
REMARK    5  A    between atoms: C_20  and  C_23
REMARK                            x       y       z     vdW  Elec       q    Type
REMARK                         _______ _______ _______ _____ _____    ______ ____
ROOT
ATOM      1  N   UNL     1      35.696 -20.917 -19.501  0.00  0.00    +0.392 N 
ATOM      2  C   UNL     1      35.265 -19.031 -21.046  0.00  0.00    +0.145 C 
ATOM      3  C   UNL     1      36.295 -20.028 -20.505  0.00  0.00    -0.032 C 
ATOM      4  C   UNL     1      34.045 -19.752 -21.611  0.00  0.00    +0.039 C 
ATOM      5  C   UNL     1      33.481 -20.728 -20.588  0.00  0.00    -0.019 C 
ATOM      6  C   UNL     1      34.566 -21.670 -20.063  0.00  0.00    -0.077 C 
ATOM      7  H   UNL     1      35.340 -20.337 -18.741  0.00  0.00    -0.079 HD
ENDROOT
BRANCH   2   8
ATOM      8  O   UNL     1      35.851 -18.251 -22.082  0.00  0.00    -0.481 OA
BRANCH   8   9
ATOM      9  C   UNL     1      35.313 -17.010 -22.298  0.00  0.00    +0.138 C 
ATOM     10  C   UNL     1      35.028 -16.598 -23.595  0.00  0.00    +0.038 C 
ATOM     11  C   UNL     1      35.057 -16.173 -21.217  0.00  0.00    +0.038 C 
ATOM     12  C   UNL     1      34.480 -15.333 -23.815  0.00  0.00    +0.018 C 
ATOM     13  C   UNL     1      34.509 -14.909 -21.436  0.00  0.00    +0.018 C 
ATOM     14  C   UNL     1      34.221 -14.490 -22.736  0.00  0.00    +0.057 C 
BRANCH  14  15
ATOM     15  N   UNL     1      33.677 -13.237 -22.953  0.00  0.00    -0.246 N 
ATOM     16  N   UNL     1      32.371 -11.450 -22.685  0.00  0.00    -0.224 NA
ATOM     17  C   UNL     1      34.048 -12.341 -23.922  0.00  0.00    +0.092 C 
ATOM     18  C   UNL     1      32.664 -12.650 -22.236  0.00  0.00    +0.172 C 
ATOM     19  C   UNL     1      33.231 -11.251 -23.736  0.00  0.00    +0.117 C 
ENDBRANCH  14  15
ENDBRANCH   8   9
ENDBRANCH   2   8
BRANCH   1  20
ATOM     20  C   UNL     1      36.703 -21.831 -18.961  0.00  0.00    -0.050 C 
BRANCH  20  23
ATOM     21  O   UNL     1      37.651 -22.931 -14.242  0.00  0.00    -0.435 OA
ATOM     22  O   UNL     1      35.407 -23.719 -13.855  0.00  0.00    -0.435 OA
ATOM     23  C   UNL     1      36.320 -22.346 -17.599  0.00  0.00    -0.040 C 
ATOM     24  C   UNL     1      37.270 -22.357 -16.584  0.00  0.00    +0.034 C 
ATOM     25  C   UNL     1      35.014 -22.801 -17.384  0.00  0.00    -0.003 C 
ATOM     26  C   UNL     1      36.872 -22.837 -15.354  0.00  0.00    +0.176 C 
ATOM     27  C   UNL     1      34.636 -23.282 -16.129  0.00  0.00    +0.040 C 
ATOM     28  C   UNL     1      35.590 -23.288 -15.133  0.00  0.00    +0.176 C 
ATOM     29  C   UNL     1      36.717 -23.489 -13.296  0.00  0.00    +0.429 C 
ENDBRANCH  20  23
ENDBRANCH   1  20
TORSDOF 5
ENDMDL
MODEL 4
REMARK VINA RESULT:     -11.1      6.200     10.356
REMARK  Name = 11740318
REMARK  5 active torsions:
REMARK  status: ('A' for Active; 'I' for Inactive)
REMARK    1  A    between atoms: N_1  and  C_20
REMARK    2  A    between atoms: C_2  and  O_8
REMARK    3  A    between atoms: O_8  and  C_9
REMARK    4  A    between atoms: C_14  and  N_15
REMARK    5  A    between atoms: C_20  and  C_23
REMARK                            x       y       z     vdW  Elec       q    Type
REMARK                         _______ _______ _______ _____ _____    ______ ____
ROOT
ATOM      1  N   UNL     1      35.616 -16.895 -22.532  0.00  0.00    +0.392 N 
ATOM      2  C   UNL     1      34.539 -14.708 -22.965  0.00  0.00    +0.145 C 
ATOM      3  C   UNL     1      34.707 -16.161 -23.421  0.00  0.00    -0.032 C 
ATOM      4  C   UNL     1      34.065 -14.637 -21.517  0.00  0.00    +0.039 C 
ATOM      5  C   UNL     1      34.972 -15.465 -20.617  0.00  0.00    -0.019 C 
ATOM      6  C   UNL     1      35.124 -16.893 -21.148  0.00  0.00    -0.077 C 
ATOM      7  H   UNL     1      36.519 -16.420 -22.545  0.00  0.00    -0.079 HD
ENDROOT
BRANCH   2   8
ATOM      8  O   UNL     1      33.580 -14.054 -23.788  0.00  0.00    -0.481 OA
BRANCH   8   9
ATOM      9  C   UNL     1      33.237 -12.775 -23.438  0.00  0.00    +0.138 C 
ATOM     10  C   UNL     1      33.837 -11.700 -24.083  0.00  0.00    +0.038 C 
ATOM     11  C   UNL     1      32.292 -12.564 -22.440  0.00  0.00    +0.038 C 
ATOM     12  C   UNL     1      33.488 -10.396 -23.726  0.00  0.00    +0.018 C 
ATOM     13  C   UNL     1      31.943 -11.262 -22.083  0.00  0.00    +0.018 C 
ATOM     14  C   UNL     1      32.541 -10.178 -22.726  0.00  0.00    +0.057 C 
BRANCH  14  15
ATOM     15  N   UNL     1      32.194  -8.887 -22.372  0.00  0.00    -0.246 N 
ATOM     16  N   UNL     1      31.278  -6.859 -22.502  0.00  0.00    -0.224 NA
ATOM     17  C   UNL     1      32.538  -8.235 -21.216  0.00  0.00    +0.092 C 
ATOM     18  C   UNL     1      31.435  -8.013 -23.111  0.00  0.00    +0.172 C 
ATOM     19  C   UNL     1      31.963  -6.991 -21.320  0.00  0.00    +0.117 C 
ENDBRANCH  14  15
ENDBRANCH   8   9
ENDBRANCH   2   8
BRANCH   1  20
ATOM     20  C   UNL     1      35.802 -18.266 -23.008  0.00  0.00    -0.050 C 
BRANCH  20  23
ATOM     21  O   UNL     1      32.937 -21.239 -20.301  0.00  0.00    -0.435 OA
ATOM     22  O   UNL     1      34.795 -22.018 -18.979  0.00  0.00    -0.435 OA
ATOM     23  C   UNL     1      35.567 -19.275 -21.915  0.00  0.00    -0.040 C 
ATOM     24  C   UNL     1      34.278 -19.744 -21.688  0.00  0.00    +0.034 C 
ATOM     25  C   UNL     1      36.653 -19.720 -21.153  0.00  0.00    -0.003 C 
ATOM     26  C   UNL     1      34.113 -20.667 -20.677  0.00  0.00    +0.176 C 
ATOM     27  C   UNL     1      36.459 -20.657 -20.135  0.00  0.00    +0.040 C 
ATOM     28  C   UNL     1      35.174 -21.111 -19.921  0.00  0.00    +0.176 C 
ATOM     29  C   UNL     1      33.376 -22.095 -19.226  0.00  0.00    +0.429 C 
ENDBRANCH  20  23
ENDBRANCH   1  20
TORSDOF 5
ENDMDL
MODEL 5
REMARK VINA RESULT:     -11.1      5.296      9.738
REMARK  Name = 11740318
REMARK  5 active torsions:
REMARK  status: ('A' for Active; 'I' for Inactive)
REMARK    1  A    between atoms: N_1  and  C_20
REMARK    2  A    between atoms: C_2  and  O_8
REMARK    3  A    between atoms: O_8  and  C_9
REMARK    4  A    between atoms: C_14  and  N_15
REMARK    5  A    between atoms: C_20  and  C_23
REMARK                            x       y       z     vdW  Elec       q    Type
REMARK                         _______ _______ _______ _____ _____    ______ ____
ROOT
ATOM      1  N   UNL     1      34.954 -17.852 -23.011  0.00  0.00    +0.392 N 
ATOM      2  C   UNL     1      33.878 -16.142 -24.441  0.00  0.00    +0.145 C 
ATOM      3  C   UNL     1      35.051 -16.477 -23.516  0.00  0.00    -0.032 C 
ATOM      4  C   UNL     1      33.780 -17.142 -25.590  0.00  0.00    +0.039 C 
ATOM      5  C   UNL     1      33.758 -18.567 -25.056  0.00  0.00    -0.019 C 
ATOM      6  C   UNL     1      34.935 -18.824 -24.113  0.00  0.00    -0.077 C 
ATOM      7  H   UNL     1      34.074 -17.938 -22.502  0.00  0.00    -0.079 HD
ENDROOT
BRANCH   2   8
ATOM      8  O   UNL     1      34.053 -14.840 -24.988  0.00  0.00    -0.481 OA
BRANCH   8   9
ATOM      9  C   UNL     1      33.633 -13.787 -24.219  0.00  0.00    +0.138 C 
ATOM     10  C   UNL     1      33.893 -12.485 -24.633  0.00  0.00    +0.038 C 
ATOM     11  C   UNL     1      32.951 -14.030 -23.032  0.00  0.00    +0.038 C 
ATOM     12  C   UNL     1      33.465 -11.412 -23.849  0.00  0.00    +0.018 C 
ATOM     13  C   UNL     1      32.524 -12.958 -22.249  0.00  0.00    +0.018 C 
ATOM     14  C   UNL     1      32.780 -11.649 -22.658  0.00  0.00    +0.057 C 
BRANCH  14  15
ATOM     15  N   UNL     1      32.355 -10.586 -21.882  0.00  0.00    -0.246 N 
ATOM     16  N   UNL     1      31.449  -9.475 -20.174  0.00  0.00    -0.224 NA
ATOM     17  C   UNL     1      32.486  -9.253 -22.178  0.00  0.00    +0.092 C 
ATOM     18  C   UNL     1      31.725 -10.663 -20.665  0.00  0.00    +0.172 C 
ATOM     19  C   UNL     1      31.922  -8.592 -21.113  0.00  0.00    +0.117 C 
ENDBRANCH  14  15
ENDBRANCH   8   9
ENDBRANCH   2   8
BRANCH   1  20
ATOM     20  C   UNL     1      36.056 -18.140 -22.093  0.00  0.00    -0.050 C 
BRANCH  20  23
ATOM     21  O   UNL     1      33.057 -21.436 -19.967  0.00  0.00    -0.435 OA
ATOM     22  O   UNL     1      34.894 -22.640 -18.976  0.00  0.00    -0.435 OA
ATOM     23  C   UNL     1      35.780 -19.355 -21.248  0.00  0.00    -0.040 C 
ATOM     24  C   UNL     1      34.465 -19.765 -21.055  0.00  0.00    +0.034 C 
ATOM     25  C   UNL     1      36.854 -20.048 -20.677  0.00  0.00    -0.003 C 
ATOM     26  C   UNL     1      34.262 -20.884 -20.274  0.00  0.00    +0.176 C 
ATOM     27  C   UNL     1      36.621 -21.178 -19.890  0.00  0.00    +0.040 C 
ATOM     28  C   UNL     1      35.311 -21.571 -19.707  0.00  0.00    +0.176 C 
ATOM     29  C   UNL     1      33.465 -22.549 -19.146  0.00  0.00    +0.429 C 
ENDBRANCH  20  23
ENDBRANCH   1  20
TORSDOF 5
ENDMDL
MODEL 6
REMARK VINA RESULT:     -10.7      3.252     10.159
REMARK  Name = 11740318
REMARK  5 active torsions:
REMARK  status: ('A' for Active; 'I' for Inactive)
REMARK    1  A    between atoms: N_1  and  C_20
REMARK    2  A    between atoms: C_2  and  O_8
REMARK    3  A    between atoms: O_8  and  C_9
REMARK    4  A    between atoms: C_14  and  N_15
REMARK    5  A    between atoms: C_20  and  C_23
REMARK                            x       y       z     vdW  Elec       q    Type
REMARK                         _______ _______ _______ _____ _____    ______ ____
ROOT
ATOM      1  N   UNL     1      35.541 -19.886 -21.400  0.00  0.00    +0.392 N 
ATOM      2  C   UNL     1      35.294 -21.833 -19.891  0.00  0.00    +0.145 C 
ATOM      3  C   UNL     1      36.147 -20.623 -20.284  0.00  0.00    -0.032 C 
ATOM      4  C   UNL     1      33.865 -21.415 -19.560  0.00  0.00    +0.039 C 
ATOM      5  C   UNL     1      33.275 -20.585 -20.692  0.00  0.00    -0.019 C 
ATOM      6  C   UNL     1      34.192 -19.416 -21.058  0.00  0.00    -0.077 C 
ATOM      7  H   UNL     1      35.460 -20.525 -22.191  0.00  0.00    -0.079 HD
ENDROOT
BRANCH   2   8
ATOM      8  O   UNL     1      35.857 -22.467 -18.748  0.00  0.00    -0.481 OA
BRANCH   8   9
ATOM      9  C   UNL     1      34.987 -22.837 -17.758  0.00  0.00    +0.138 C 
ATOM     10  C   UNL     1      35.416 -22.855 -16.435  0.00  0.00    +0.038 C 
ATOM     11  C   UNL     1      33.682 -23.191 -18.084  0.00  0.00    +0.038 C 
ATOM     12  C   UNL     1      34.529 -23.232 -15.426  0.00  0.00    +0.018 C 
ATOM     13  C   UNL     1      32.796 -23.568 -17.075  0.00  0.00    +0.018 C 
ATOM     14  C   UNL     1      33.219 -23.588 -15.746  0.00  0.00    +0.057 C 
BRANCH  14  15
ATOM     15  N   UNL     1      32.340 -23.961 -14.746  0.00  0.00    -0.246 N 
ATOM     16  N   UNL     1      31.463 -25.129 -13.062  0.00  0.00    -0.224 NA
ATOM     17  C   UNL     1      31.180 -23.318 -14.395  0.00  0.00    +0.092 C 
ATOM     18  C   UNL     1      32.462 -25.044 -13.912  0.00  0.00    +0.172 C 
ATOM     19  C   UNL     1      30.661 -24.055 -13.358  0.00  0.00    +0.117 C 
ENDBRANCH  14  15
ENDBRANCH   8   9
ENDBRANCH   2   8
BRANCH   1  20
ATOM     20  C   UNL     1      36.391 -18.762 -21.793  0.00  0.00    -0.050 C 
BRANCH  20  23
ATOM     21  O   UNL     1      34.038 -17.308 -25.883  0.00  0.00    -0.435 OA
ATOM     22  O   UNL     1      33.595 -15.115 -24.987  0.00  0.00    -0.435 OA
ATOM     23  C   UNL     1      35.641 -17.756 -22.625  0.00  0.00    -0.040 C 
ATOM     24  C   UNL     1      35.214 -18.110 -23.900  0.00  0.00    +0.034 C 
ATOM     25  C   UNL     1      35.389 -16.485 -22.095  0.00  0.00    -0.003 C 
ATOM     26  C   UNL     1      34.531 -17.155 -24.623  0.00  0.00    +0.176 C 
ATOM     27  C   UNL     1      34.695 -15.536 -22.849  0.00  0.00    +0.040 C 
ATOM     28  C   UNL     1      34.279 -15.902 -24.112  0.00  0.00    +0.176 C 
ATOM     29  C   UNL     1      33.444 -16.012 -26.106  0.00  0.00    +0.429 C 
ENDBRANCH  20  23
ENDBRANCH   1  20
TORSDOF 5
ENDMDL
MODEL 7
REMARK VINA RESULT:     -10.5     10.621     14.757
REMARK  Name = 11740318
REMARK  5 active torsions:
REMARK  status: ('A' for Active; 'I' for Inactive)
REMARK    1  A    between atoms: N_1  and  C_20
REMARK    2  A    between atoms: C_2  and  O_8
REMARK    3  A    between atoms: O_8  and  C_9
REMARK    4  A    between atoms: C_14  and  N_15
REMARK    5  A    between atoms: C_20  and  C_23
REMARK                            x       y       z     vdW  Elec       q    Type
REMARK                         _______ _______ _______ _____ _____    ______ ____
ROOT
ATOM      1  N   UNL     1      33.043 -12.012 -22.921  0.00  0.00    +0.392 N 
ATOM      2  C   UNL     1      32.209 -10.121 -21.559  0.00  0.00    +0.145 C 
ATOM      3  C   UNL     1      32.462 -10.665 -22.968  0.00  0.00    -0.032 C 
ATOM      4  C   UNL     1      31.328 -11.070 -20.752  0.00  0.00    +0.039 C 
ATOM      5  C   UNL     1      31.901 -12.480 -20.776  0.00  0.00    -0.019 C 
ATOM      6  C   UNL     1      32.162 -12.948 -22.209  0.00  0.00    -0.077 C 
ATOM      7  H   UNL     1      33.922 -11.956 -22.407  0.00  0.00    -0.079 HD
ENDROOT
BRANCH   2   8
ATOM      8  O   UNL     1      31.558  -8.858 -21.640  0.00  0.00    -0.481 OA
BRANCH   8   9
ATOM      9  C   UNL     1      32.063  -7.962 -22.544  0.00  0.00    +0.138 C 
ATOM     10  C   UNL     1      31.211  -7.348 -23.456  0.00  0.00    +0.038 C 
ATOM     11  C   UNL     1      33.424  -7.673 -22.542  0.00  0.00    +0.038 C 
ATOM     12  C   UNL     1      31.725  -6.434 -24.377  0.00  0.00    +0.018 C 
ATOM     13  C   UNL     1      33.938  -6.760 -23.463  0.00  0.00    +0.018 C 
ATOM     14  C   UNL     1      33.089  -6.141 -24.380  0.00  0.00    +0.057 C 
BRANCH  14  15
ATOM     15  N   UNL     1      33.599  -5.235 -25.292  0.00  0.00    -0.246 N 
ATOM     16  N   UNL     1      35.018  -4.287 -26.727  0.00  0.00    -0.224 NA
ATOM     17  C   UNL     1      32.977  -4.106 -25.759  0.00  0.00    +0.092 C 
ATOM     18  C   UNL     1      34.825  -5.297 -25.907  0.00  0.00    +0.172 C 
ATOM     19  C   UNL     1      33.869  -3.541 -26.639  0.00  0.00    +0.117 C 
ENDBRANCH  14  15
ENDBRANCH   8   9
ENDBRANCH   2   8
BRANCH   1  20
ATOM     20  C   UNL     1      33.321 -12.497 -24.273  0.00  0.00    -0.050 C 
BRANCH  20  23
ATOM     21  O   UNL     1      33.346 -17.047 -26.190  0.00  0.00    -0.435 OA
ATOM     22  O   UNL     1      34.714 -17.916 -24.406  0.00  0.00    -0.435 OA
ATOM     23  C   UNL     1      33.715 -13.951 -24.277  0.00  0.00    -0.040 C 
ATOM     24  C   UNL     1      33.282 -14.769 -25.314  0.00  0.00    +0.034 C 
ATOM     25  C   UNL     1      34.510 -14.446 -23.236  0.00  0.00    -0.003 C 
ATOM     26  C   UNL     1      33.668 -16.093 -25.274  0.00  0.00    +0.176 C 
ATOM     27  C   UNL     1      34.887 -15.790 -23.220  0.00  0.00    +0.040 C 
ATOM     28  C   UNL     1      34.449 -16.590 -24.255  0.00  0.00    +0.176 C 
ATOM     29  C   UNL     1      34.013 -18.199 -25.634  0.00  0.00    +0.429 C 
ENDBRANCH  20  23
ENDBRANCH   1  20
TORSDOF 5
ENDMDL
MODEL 8
REMARK VINA RESULT:     -10.4      3.698     10.738
REMARK  Name = 11740318
REMARK  5 active torsions:
REMARK  status: ('A' for Active; 'I' for Inactive)
REMARK    1  A    between atoms: N_1  and  C_20
REMARK    2  A    between atoms: C_2  and  O_8
REMARK    3  A    between atoms: O_8  and  C_9
REMARK    4  A    between atoms: C_14  and  N_15
REMARK    5  A    between atoms: C_20  and  C_23
REMARK                            x       y       z     vdW  Elec       q    Type
REMARK                         _______ _______ _______ _____ _____    ______ ____
ROOT
ATOM      1  N   UNL     1      35.469 -18.829 -22.560  0.00  0.00    +0.392 N 
ATOM      2  C   UNL     1      35.049 -20.416 -20.707  0.00  0.00    +0.145 C 
ATOM      3  C   UNL     1      34.838 -20.103 -22.191  0.00  0.00    -0.032 C 
ATOM      4  C   UNL     1      36.532 -20.417 -20.349  0.00  0.00    +0.039 C 
ATOM      5  C   UNL     1      37.191 -19.123 -20.807  0.00  0.00    -0.019 C 
ATOM      6  C   UNL     1      36.912 -18.852 -22.287  0.00  0.00    -0.077 C 
ATOM      7  H   UNL     1      35.053 -18.095 -21.986  0.00  0.00    -0.079 HD
ENDROOT
BRANCH   2   8
ATOM      8  O   UNL     1      34.510 -21.699 -20.405  0.00  0.00    -0.481 OA
BRANCH   8   9
ATOM      9  C   UNL     1      34.657 -22.141 -19.118  0.00  0.00    +0.138 C 
ATOM     10  C   UNL     1      33.571 -22.702 -18.453  0.00  0.00    +0.038 C 
ATOM     11  C   UNL     1      35.891 -22.027 -18.485  0.00  0.00    +0.038 C 
ATOM     12  C   UNL     1      33.720 -23.153 -17.141  0.00  0.00    +0.018 C 
ATOM     13  C   UNL     1      36.040 -22.477 -17.174  0.00  0.00    +0.018 C 
ATOM     14  C   UNL     1      34.955 -23.041 -16.502  0.00  0.00    +0.057 C 
BRANCH  14  15
ATOM     15  N   UNL     1      35.104 -23.488 -15.202  0.00  0.00    -0.246 N 
ATOM     16  N   UNL     1      36.036 -23.849 -13.209  0.00  0.00    -0.224 NA
ATOM     17  C   UNL     1      34.184 -24.195 -14.470  0.00  0.00    +0.092 C 
ATOM     18  C   UNL     1      36.200 -23.307 -14.395  0.00  0.00    +0.172 C 
ATOM     19  C   UNL     1      34.781 -24.404 -13.249  0.00  0.00    +0.117 C 
ENDBRANCH  14  15
ENDBRANCH   8   9
ENDBRANCH   2   8
BRANCH   1  20
ATOM     20  C   UNL     1      35.218 -18.522 -23.968  0.00  0.00    -0.050 C 
BRANCH  20  23
ATOM     21  O   UNL     1      34.437 -13.864 -22.528  0.00  0.00    -0.435 OA
ATOM     22  O   UNL     1      33.184 -13.338 -24.517  0.00  0.00    -0.435 OA
ATOM     23  C   UNL     1      34.656 -17.137 -24.148  0.00  0.00    -0.040 C 
ATOM     24  C   UNL     1      34.872 -16.181 -23.161  0.00  0.00    +0.034 C 
ATOM     25  C   UNL     1      33.929 -16.841 -25.307  0.00  0.00    -0.003 C 
ATOM     26  C   UNL     1      34.338 -14.927 -23.372  0.00  0.00    +0.176 C 
ATOM     27  C   UNL     1      33.400 -15.563 -25.496  0.00  0.00    +0.040 C 
ATOM     28  C   UNL     1      33.621 -14.626 -24.508  0.00  0.00    +0.176 C 
ATOM     29  C   UNL     1      33.705 -12.860 -23.260  0.00  0.00    +0.429 C 
ENDBRANCH  20  23
ENDBRANCH   1  20
TORSDOF 5
ENDMDL
MODEL 9
REMARK VINA RESULT:     -10.4      3.832     10.837
REMARK  Name = 11740318
REMARK  5 active torsions:
REMARK  status: ('A' for Active; 'I' for Inactive)
REMARK    1  A    between atoms: N_1  and  C_20
REMARK    2  A    between atoms: C_2  and  O_8
REMARK    3  A    between atoms: O_8  and  C_9
REMARK    4  A    between atoms: C_14  and  N_15
REMARK    5  A    between atoms: C_20  and  C_23
REMARK                            x       y       z     vdW  Elec       q    Type
REMARK                         _______ _______ _______ _____ _____    ______ ____
ROOT
ATOM      1  N   UNL     1      35.477 -18.793 -22.234  0.00  0.00    +0.392 N 
ATOM      2  C   UNL     1      35.097 -20.529 -20.510  0.00  0.00    +0.145 C 
ATOM      3  C   UNL     1      34.805 -20.065 -21.940  0.00  0.00    -0.032 C 
ATOM      4  C   UNL     1      36.599 -20.634 -20.262  0.00  0.00    +0.039 C 
ATOM      5  C   UNL     1      37.295 -19.334 -20.644  0.00  0.00    -0.019 C 
ATOM      6  C   UNL     1      36.932 -18.910 -22.069  0.00  0.00    -0.077 C 
ATOM      7  H   UNL     1      35.140 -18.099 -21.567  0.00  0.00    -0.079 HD
ENDROOT
BRANCH   2   8
ATOM      8  O   UNL     1      34.512 -21.808 -20.290  0.00  0.00    -0.481 OA
BRANCH   8   9
ATOM      9  C   UNL     1      34.503 -22.267 -19.001  0.00  0.00    +0.138 C 
ATOM     10  C   UNL     1      35.674 -22.241 -18.251  0.00  0.00    +0.038 C 
ATOM     11  C   UNL     1      33.322 -22.756 -18.452  0.00  0.00    +0.038 C 
ATOM     12  C   UNL     1      35.664 -22.710 -16.936  0.00  0.00    +0.018 C 
ATOM     13  C   UNL     1      33.312 -23.224 -17.138  0.00  0.00    +0.018 C 
ATOM     14  C   UNL     1      34.483 -23.200 -16.380  0.00  0.00    +0.057 C 
BRANCH  14  15
ATOM     15  N   UNL     1      34.473 -23.663 -15.077  0.00  0.00    -0.246 N 
ATOM     16  N   UNL     1      33.685 -24.422 -13.134  0.00  0.00    -0.224 NA
ATOM     17  C   UNL     1      35.564 -23.862 -14.271  0.00  0.00    +0.092 C 
ATOM     18  C   UNL     1      33.367 -24.016 -14.343  0.00  0.00    +0.172 C 
ATOM     19  C   UNL     1      35.053 -24.328 -13.083  0.00  0.00    +0.117 C 
ENDBRANCH  14  15
ENDBRANCH   8   9
ENDBRANCH   2   8
BRANCH   1  20
ATOM     20  C   UNL     1      35.149 -18.341 -23.586  0.00  0.00    -0.050 C 
BRANCH  20  23
ATOM     21  O   UNL     1      33.247 -14.331 -25.750  0.00  0.00    -0.435 OA
ATOM     22  O   UNL     1      33.639 -12.957 -23.810  0.00  0.00    -0.435 OA
ATOM     23  C   UNL     1      34.755 -16.888 -23.612  0.00  0.00    -0.040 C 
ATOM     24  C   UNL     1      34.168 -16.363 -24.757  0.00  0.00    +0.034 C 
ATOM     25  C   UNL     1      34.987 -16.099 -22.479  0.00  0.00    -0.003 C 
ATOM     26  C   UNL     1      33.825 -15.027 -24.732  0.00  0.00    +0.176 C 
ATOM     27  C   UNL     1      34.629 -14.749 -22.480  0.00  0.00    +0.040 C 
ATOM     28  C   UNL     1      34.049 -14.241 -23.625  0.00  0.00    +0.176 C 
ATOM     29  C   UNL     1      33.130 -13.022 -25.157  0.00  0.00    +0.429 C 
ENDBRANCH  20  23
ENDBRANCH   1  20
TORSDOF 5
ENDMDL
