MODEL 1
REMARK VINA RESULT:     -12.0      0.000      0.000
REMARK  Name = 54674461
REMARK  5 active torsions:
REMARK  status: ('A' for Active; 'I' for Inactive)
REMARK    1  A    between atoms: N_2  and  C_29
REMARK    2  A    between atoms: C_7  and  C_14
REMARK    3  A    between atoms: C_15  and  N_21
REMARK    4  A    between atoms: C_22  and  O_24
REMARK    5  A    between atoms: C_29  and  C_31
REMARK                            x       y       z     vdW  Elec       q    Type
REMARK                         _______ _______ _______ _____ _____    ______ ____
ROOT
ATOM      1  F   UNL     1      29.391 -23.331 -15.547  0.00  0.00    -0.207 F 
ATOM      2  N   UNL     1      34.607 -24.604 -15.370  0.00  0.00    -0.193 N 
ATOM      3  N   UNL     1      35.174 -23.965 -16.409  0.00  0.00    -0.168 NA
ATOM      4  N   UNL     1      32.446 -24.899 -14.325  0.00  0.00    -0.251 NA
ATOM      5  C   UNL     1      32.926 -23.546 -16.308  0.00  0.00    +0.133 C 
ATOM      6  C   UNL     1      33.264 -24.390 -15.262  0.00  0.00    +0.133 C 
ATOM      7  C   UNL     1      34.147 -23.323 -16.976  0.00  0.00    +0.172 C 
ATOM      8  C   UNL     1      31.586 -23.161 -16.434  0.00  0.00    +0.015 C 
ATOM      9  C   UNL     1      30.688 -23.658 -15.489  0.00  0.00    +0.139 C 
ATOM     10  C   UNL     1      31.162 -24.499 -14.487  0.00  0.00    +0.182 C 
ENDROOT
BRANCH   7  14
ATOM     11  N   UNL     1      35.639 -22.296 -18.506  0.00  0.00    -0.326 NA
ATOM     12  N   UNL     1      33.257 -22.042 -18.762  0.00  0.00    -0.326 NA
ATOM     13  N   UNL     1      37.126 -21.268 -20.037  0.00  0.00    -0.334 N 
ATOM     14  C   UNL     1      34.359 -22.509 -18.146  0.00  0.00    +0.156 C 
ATOM     15  C   UNL     1      34.756 -20.990 -20.324  0.00  0.00    +0.210 C 
ATOM     16  C   UNL     1      35.802 -21.529 -19.604  0.00  0.00    +0.193 C 
ATOM     17  C   UNL     1      33.492 -21.282 -19.852  0.00  0.00    +0.193 C 
ATOM     18  H   UNL     1      37.889 -21.642 -19.539  0.00  0.00    +0.144 HD
ATOM     19  H   UNL     1      37.283 -20.714 -20.835  0.00  0.00    +0.144 HD
ATOM     20  N   UNL     1      32.372 -20.758 -20.545  0.00  0.00    -0.334 N 
ATOM     21  H   UNL     1      31.462 -20.953 -20.226  0.00  0.00    +0.144 HD
ATOM     22  H   UNL     1      32.506 -20.198 -21.344  0.00  0.00    +0.144 HD
BRANCH  15  24
ATOM     23  O   UNL     1      36.120 -18.330 -20.637  0.00  0.00    -0.226 OA
ATOM     24  N   UNL     1      34.961 -20.197 -21.456  0.00  0.00    -0.258 N 
ATOM     25  C   UNL     1      35.603 -18.966 -21.548  0.00  0.00    +0.402 C 
ATOM     26  H   UNL     1      34.605 -20.557 -22.300  0.00  0.00    +0.154 HD
BRANCH  25  27
ATOM     27  O   UNL     1      35.580 -18.540 -22.849  0.00  0.00    -0.431 OA
ATOM     28  C   UNL     1      34.619 -19.175 -23.701  0.00  0.00    +0.257 C 
ENDBRANCH  25  27
ENDBRANCH  15  24
ENDBRANCH   7  14
BRANCH   2  29
ATOM     29  C   UNL     1      35.426 -25.421 -14.505  0.00  0.00    +0.146 C 
BRANCH  29  31
ATOM     30  F   UNL     1      37.830 -23.926 -14.645  0.00  0.00    -0.204 F 
ATOM     31  C   UNL     1      35.994 -24.663 -13.331  0.00  0.00    +0.027 C 
ATOM     32  C   UNL     1      37.184 -23.947 -13.471  0.00  0.00    +0.138 C 
ATOM     33  C   UNL     1      35.329 -24.678 -12.105  0.00  0.00    -0.000 C 
ATOM     34  C   UNL     1      37.707 -23.247 -12.384  0.00  0.00    +0.029 C 
ATOM     35  C   UNL     1      35.853 -23.978 -11.018  0.00  0.00    -0.000 C 
ATOM     36  C   UNL     1      37.043 -23.263 -11.157  0.00  0.00    +0.002 C 
ENDBRANCH  29  31
ENDBRANCH   2  29
TORSDOF 5
ENDMDL
MODEL 2
REMARK VINA RESULT:     -11.6      0.878      1.905
REMARK  Name = 54674461
REMARK  5 active torsions:
REMARK  status: ('A' for Active; 'I' for Inactive)
REMARK    1  A    between atoms: N_2  and  C_29
REMARK    2  A    between atoms: C_7  and  C_14
REMARK    3  A    between atoms: C_15  and  N_21
REMARK    4  A    between atoms: C_22  and  O_24
REMARK    5  A    between atoms: C_29  and  C_31
REMARK                            x       y       z     vdW  Elec       q    Type
REMARK                         _______ _______ _______ _____ _____    ______ ____
ROOT
ATOM      1  F   UNL     1      29.259 -23.063 -15.404  0.00  0.00    -0.207 F 
ATOM      2  N   UNL     1      34.362 -24.738 -15.274  0.00  0.00    -0.193 N 
ATOM      3  N   UNL     1      34.969 -24.137 -16.313  0.00  0.00    -0.168 NA
ATOM      4  N   UNL     1      32.191 -24.872 -14.215  0.00  0.00    -0.251 NA
ATOM      5  C   UNL     1      32.762 -23.546 -16.193  0.00  0.00    +0.133 C 
ATOM      6  C   UNL     1      33.040 -24.421 -15.154  0.00  0.00    +0.133 C 
ATOM      7  C   UNL     1      33.991 -23.413 -16.868  0.00  0.00    +0.172 C 
ATOM      8  C   UNL     1      31.455 -23.057 -16.306  0.00  0.00    +0.015 C 
ATOM      9  C   UNL     1      30.527 -23.490 -15.358  0.00  0.00    +0.139 C 
ATOM     10  C   UNL     1      30.941 -24.372 -14.365  0.00  0.00    +0.182 C 
ENDROOT
BRANCH   7  14
ATOM     11  N   UNL     1      33.186 -22.150 -18.707  0.00  0.00    -0.326 NA
ATOM     12  N   UNL     1      35.554 -22.400 -18.336  0.00  0.00    -0.326 NA
ATOM     13  N   UNL     1      32.386 -20.888 -20.545  0.00  0.00    -0.334 N 
ATOM     14  C   UNL     1      34.258 -22.610 -18.034  0.00  0.00    +0.156 C 
ATOM     15  C   UNL     1      34.756 -21.116 -20.209  0.00  0.00    +0.210 C 
ATOM     16  C   UNL     1      33.472 -21.404 -19.793  0.00  0.00    +0.193 C 
ATOM     17  C   UNL     1      35.768 -21.645 -19.434  0.00  0.00    +0.193 C 
ATOM     18  H   UNL     1      31.461 -21.081 -20.267  0.00  0.00    +0.144 HD
ATOM     19  H   UNL     1      32.557 -20.338 -21.342  0.00  0.00    +0.144 HD
ATOM     20  N   UNL     1      37.111 -21.389 -19.806  0.00  0.00    -0.334 N 
ATOM     21  H   UNL     1      37.849 -21.757 -19.269  0.00  0.00    +0.144 HD
ATOM     22  H   UNL     1      37.305 -20.844 -20.603  0.00  0.00    +0.144 HD
BRANCH  15  24
ATOM     23  O   UNL     1      36.231 -18.516 -20.514  0.00  0.00    -0.226 OA
ATOM     24  N   UNL     1      35.015 -20.341 -21.342  0.00  0.00    -0.258 N 
ATOM     25  C   UNL     1      35.708 -19.138 -21.431  0.00  0.00    +0.402 C 
ATOM     26  H   UNL     1      34.662 -20.694 -22.191  0.00  0.00    +0.154 HD
BRANCH  25  27
ATOM     27  O   UNL     1      35.728 -18.723 -22.735  0.00  0.00    -0.431 OA
ATOM     28  C   UNL     1      34.602 -19.105 -23.534  0.00  0.00    +0.257 C 
ENDBRANCH  25  27
ENDBRANCH  15  24
ENDBRANCH   7  14
BRANCH   2  29
ATOM     29  C   UNL     1      35.120 -25.621 -14.420  0.00  0.00    +0.146 C 
BRANCH  29  31
ATOM     30  F   UNL     1      34.380 -23.932 -12.268  0.00  0.00    -0.204 F 
ATOM     31  C   UNL     1      36.124 -24.900 -13.556  0.00  0.00    +0.027 C 
ATOM     32  C   UNL     1      35.689 -24.083 -12.512  0.00  0.00    +0.138 C 
ATOM     33  C   UNL     1      37.489 -25.051 -13.801  0.00  0.00    -0.000 C 
ATOM     34  C   UNL     1      36.619 -23.417 -11.714  0.00  0.00    +0.029 C 
ATOM     35  C   UNL     1      38.419 -24.384 -13.003  0.00  0.00    -0.000 C 
ATOM     36  C   UNL     1      37.984 -23.567 -11.959  0.00  0.00    +0.002 C 
ENDBRANCH  29  31
ENDBRANCH   2  29
TORSDOF 5
ENDMDL
MODEL 3
REMARK VINA RESULT:     -11.3      1.321      4.668
REMARK  Name = 54674461
REMARK  5 active torsions:
REMARK  status: ('A' for Active; 'I' for Inactive)
REMARK    1  A    between atoms: N_2  and  C_29
REMARK    2  A    between atoms: C_7  and  C_14
REMARK    3  A    between atoms: C_15  and  N_21
REMARK    4  A    between atoms: C_22  and  O_24
REMARK    5  A    between atoms: C_29  and  C_31
REMARK                            x       y       z     vdW  Elec       q    Type
REMARK                         _______ _______ _______ _____ _____    ______ ____
ROOT
ATOM      1  F   UNL     1      37.874 -23.806 -13.977  0.00  0.00    -0.207 F 
ATOM      2  N   UNL     1      32.749 -24.326 -15.500  0.00  0.00    -0.193 N 
ATOM      3  N   UNL     1      32.653 -23.689 -16.681  0.00  0.00    -0.168 NA
ATOM      4  N   UNL     1      34.385 -24.843 -13.795  0.00  0.00    -0.251 NA
ATOM      5  C   UNL     1      34.785 -23.581 -15.855  0.00  0.00    +0.133 C 
ATOM      6  C   UNL     1      34.001 -24.293 -14.960  0.00  0.00    +0.133 C 
ATOM      7  C   UNL     1      33.895 -23.238 -16.893  0.00  0.00    +0.172 C 
ATOM      8  C   UNL     1      36.136 -23.395 -15.540  0.00  0.00    +0.015 C 
ATOM      9  C   UNL     1      36.594 -23.944 -14.342  0.00  0.00    +0.139 C 
ATOM     10  C   UNL     1      35.698 -24.637 -13.534  0.00  0.00    +0.182 C 
ENDROOT
BRANCH   7  14
ATOM     11  N   UNL     1      35.503 -22.369 -18.404  0.00  0.00    -0.326 NA
ATOM     12  N   UNL     1      33.151 -21.980 -18.760  0.00  0.00    -0.326 NA
ATOM     13  N   UNL     1      37.104 -21.499 -19.916  0.00  0.00    -0.334 N 
ATOM     14  C   UNL     1      34.200 -22.488 -18.085  0.00  0.00    +0.156 C 
ATOM     15  C   UNL     1      34.768 -21.088 -20.304  0.00  0.00    +0.210 C 
ATOM     16  C   UNL     1      35.752 -21.660 -19.524  0.00  0.00    +0.193 C 
ATOM     17  C   UNL     1      33.472 -21.283 -19.870  0.00  0.00    +0.193 C 
ATOM     18  H   UNL     1      37.824 -21.898 -19.375  0.00  0.00    +0.144 HD
ATOM     19  H   UNL     1      37.324 -20.989 -20.728  0.00  0.00    +0.144 HD
ATOM     20  N   UNL     1      32.413 -20.721 -20.624  0.00  0.00    -0.334 N 
ATOM     21  H   UNL     1      31.481 -20.846 -20.333  0.00  0.00    +0.144 HD
ATOM     22  H   UNL     1      32.610 -20.204 -21.439  0.00  0.00    +0.144 HD
BRANCH  15  24
ATOM     23  O   UNL     1      36.171 -18.454 -20.654  0.00  0.00    -0.226 OA
ATOM     24  N   UNL     1      35.063 -20.357 -21.457  0.00  0.00    -0.258 N 
ATOM     25  C   UNL     1      35.719 -19.135 -21.566  0.00  0.00    +0.402 C 
ATOM     26  H   UNL     1      34.767 -20.761 -22.306  0.00  0.00    +0.154 HD
BRANCH  25  27
ATOM     27  O   UNL     1      35.796 -18.780 -22.886  0.00  0.00    -0.431 OA
ATOM     28  C   UNL     1      34.616 -19.005 -23.667  0.00  0.00    +0.257 C 
ENDBRANCH  25  27
ENDBRANCH  15  24
ENDBRANCH   7  14
BRANCH   2  29
ATOM     29  C   UNL     1      31.579 -24.955 -14.935  0.00  0.00    +0.146 C 
BRANCH  29  31
ATOM     30  F   UNL     1      30.755 -22.351 -14.180  0.00  0.00    -0.204 F 
ATOM     31  C   UNL     1      30.284 -24.334 -15.397  0.00  0.00    +0.027 C 
ATOM     32  C   UNL     1      29.941 -23.046 -14.986  0.00  0.00    +0.138 C 
ATOM     33  C   UNL     1      29.430 -25.049 -16.236  0.00  0.00    -0.000 C 
ATOM     34  C   UNL     1      28.744 -22.473 -15.415  0.00  0.00    +0.029 C 
ATOM     35  C   UNL     1      28.232 -24.476 -16.665  0.00  0.00    -0.000 C 
ATOM     36  C   UNL     1      27.888 -23.189 -16.254  0.00  0.00    +0.002 C 
ENDBRANCH  29  31
ENDBRANCH   2  29
TORSDOF 5
ENDMDL
MODEL 4
REMARK VINA RESULT:     -10.8      3.814      7.449
REMARK  Name = 54674461
REMARK  5 active torsions:
REMARK  status: ('A' for Active; 'I' for Inactive)
REMARK    1  A    between atoms: N_2  and  C_29
REMARK    2  A    between atoms: C_7  and  C_14
REMARK    3  A    between atoms: C_15  and  N_21
REMARK    4  A    between atoms: C_22  and  O_24
REMARK    5  A    between atoms: C_29  and  C_31
REMARK                            x       y       z     vdW  Elec       q    Type
REMARK                         _______ _______ _______ _____ _____    ______ ____
ROOT
ATOM      1  F   UNL     1      30.432 -24.600 -12.740  0.00  0.00    -0.207 F 
ATOM      2  N   UNL     1      32.978 -23.072 -17.216  0.00  0.00    -0.193 N 
ATOM      3  N   UNL     1      34.268 -23.409 -17.035  0.00  0.00    -0.168 NA
ATOM      4  N   UNL     1      30.852 -23.173 -16.066  0.00  0.00    -0.251 NA
ATOM      5  C   UNL     1      33.001 -23.984 -15.218  0.00  0.00    +0.133 C 
ATOM      6  C   UNL     1      32.176 -23.392 -16.161  0.00  0.00    +0.133 C 
ATOM      7  C   UNL     1      34.276 -23.964 -15.818  0.00  0.00    +0.172 C 
ATOM      8  C   UNL     1      32.424 -24.414 -14.017  0.00  0.00    +0.015 C 
ATOM      9  C   UNL     1      31.052 -24.214 -13.861  0.00  0.00    +0.139 C 
ATOM     10  C   UNL     1      30.340 -23.605 -14.890  0.00  0.00    +0.182 C 
ENDROOT
BRANCH   7  14
ATOM     11  N   UNL     1      36.122 -23.671 -14.358  0.00  0.00    -0.326 NA
ATOM     12  N   UNL     1      35.920 -25.668 -15.692  0.00  0.00    -0.326 NA
ATOM     13  N   UNL     1      37.967 -23.384 -12.901  0.00  0.00    -0.334 N 
ATOM     14  C   UNL     1      35.507 -24.462 -15.258  0.00  0.00    +0.156 C 
ATOM     15  C   UNL     1      37.802 -25.389 -14.217  0.00  0.00    +0.210 C 
ATOM     16  C   UNL     1      37.271 -24.167 -13.855  0.00  0.00    +0.193 C 
ATOM     17  C   UNL     1      37.076 -26.103 -15.148  0.00  0.00    +0.193 C 
ATOM     18  H   UNL     1      37.607 -22.509 -12.627  0.00  0.00    +0.144 HD
ATOM     19  H   UNL     1      38.808 -23.715 -12.512  0.00  0.00    +0.144 HD
ATOM     20  N   UNL     1      37.566 -27.366 -15.565  0.00  0.00    -0.334 N 
ATOM     21  H   UNL     1      37.065 -27.893 -16.229  0.00  0.00    +0.144 HD
ATOM     22  H   UNL     1      38.407 -27.715 -15.191  0.00  0.00    +0.144 HD
BRANCH  15  24
ATOM     23  O   UNL     1      40.454 -25.951 -15.513  0.00  0.00    -0.226 OA
ATOM     24  N   UNL     1      38.997 -25.870 -13.678  0.00  0.00    -0.258 N 
ATOM     25  C   UNL     1      40.204 -26.114 -14.325  0.00  0.00    +0.402 C 
ATOM     26  H   UNL     1      38.984 -26.062 -12.712  0.00  0.00    +0.154 HD
BRANCH  25  27
ATOM     27  O   UNL     1      41.117 -26.582 -13.417  0.00  0.00    -0.431 OA
ATOM     28  C   UNL     1      41.789 -27.796 -13.771  0.00  0.00    +0.257 C 
ENDBRANCH  25  27
ENDBRANCH  15  24
ENDBRANCH   7  14
BRANCH   2  29
ATOM     29  C   UNL     1      32.576 -22.433 -18.447  0.00  0.00    +0.146 C 
BRANCH  29  31
ATOM     30  F   UNL     1      32.226 -20.528 -20.517  0.00  0.00    -0.204 F 
ATOM     31  C   UNL     1      33.727 -21.819 -19.204  0.00  0.00    +0.027 C 
ATOM     32  C   UNL     1      33.482 -20.886 -20.213  0.00  0.00    +0.138 C 
ATOM     33  C   UNL     1      35.037 -22.184 -18.896  0.00  0.00    -0.000 C 
ATOM     34  C   UNL     1      34.547 -20.319 -20.912  0.00  0.00    +0.029 C 
ATOM     35  C   UNL     1      36.103 -21.617 -19.596  0.00  0.00    -0.000 C 
ATOM     36  C   UNL     1      35.858 -20.685 -20.604  0.00  0.00    +0.002 C 
ENDBRANCH  29  31
ENDBRANCH   2  29
TORSDOF 5
ENDMDL
MODEL 5
REMARK VINA RESULT:     -10.1      4.801      9.980
REMARK  Name = 54674461
REMARK  5 active torsions:
REMARK  status: ('A' for Active; 'I' for Inactive)
REMARK    1  A    between atoms: N_2  and  C_29
REMARK    2  A    between atoms: C_7  and  C_14
REMARK    3  A    between atoms: C_15  and  N_21
REMARK    4  A    between atoms: C_22  and  O_24
REMARK    5  A    between atoms: C_29  and  C_31
REMARK                            x       y       z     vdW  Elec       q    Type
REMARK                         _______ _______ _______ _____ _____    ______ ____
ROOT
ATOM      1  F   UNL     1      33.905 -20.050 -26.249  0.00  0.00    -0.207 F 
ATOM      2  N   UNL     1      35.205 -16.815 -22.162  0.00  0.00    -0.193 N 
ATOM      3  N   UNL     1      35.257 -17.605 -21.074  0.00  0.00    -0.168 NA
ATOM      4  N   UNL     1      34.760 -16.949 -24.536  0.00  0.00    -0.251 NA
ATOM      5  C   UNL     1      34.712 -18.808 -22.943  0.00  0.00    +0.133 C 
ATOM      6  C   UNL     1      34.883 -17.482 -23.307  0.00  0.00    +0.133 C 
ATOM      7  C   UNL     1      34.957 -18.816 -21.555  0.00  0.00    +0.172 C 
ATOM      8  C   UNL     1      34.371 -19.725 -23.944  0.00  0.00    +0.015 C 
ATOM      9  C   UNL     1      34.229 -19.231 -25.241  0.00  0.00    +0.139 C 
ATOM     10  C   UNL     1      34.430 -17.873 -25.469  0.00  0.00    +0.182 C 
ENDROOT
BRANCH   7  14
ATOM     11  N   UNL     1      33.695 -20.482 -20.434  0.00  0.00    -0.326 NA
ATOM     12  N   UNL     1      36.089 -20.376 -20.174  0.00  0.00    -0.326 NA
ATOM     13  N   UNL     1      32.440 -22.147 -19.312  0.00  0.00    -0.334 N 
ATOM     14  C   UNL     1      34.911 -19.954 -20.673  0.00  0.00    +0.156 C 
ATOM     15  C   UNL     1      34.826 -22.073 -19.026  0.00  0.00    +0.210 C 
ATOM     16  C   UNL     1      33.689 -21.544 -19.603  0.00  0.00    +0.193 C 
ATOM     17  C   UNL     1      36.009 -21.442 -19.350  0.00  0.00    +0.193 C 
ATOM     18  H   UNL     1      31.615 -21.788 -19.712  0.00  0.00    +0.144 HD
ATOM     19  H   UNL     1      32.397 -22.925 -18.711  0.00  0.00    +0.144 HD
ATOM     20  N   UNL     1      37.215 -21.933 -18.790  0.00  0.00    -0.334 N 
ATOM     21  H   UNL     1      38.071 -21.499 -19.008  0.00  0.00    +0.144 HD
ATOM     22  H   UNL     1      37.195 -22.709 -18.184  0.00  0.00    +0.144 HD
BRANCH  15  24
ATOM     23  O   UNL     1      35.578 -22.333 -16.128  0.00  0.00    -0.226 OA
ATOM     24  N   UNL     1      34.782 -23.173 -18.166  0.00  0.00    -0.258 N 
ATOM     25  C   UNL     1      35.143 -23.242 -16.825  0.00  0.00    +0.402 C 
ATOM     26  H   UNL     1      34.450 -24.012 -18.563  0.00  0.00    +0.154 HD
BRANCH  25  27
ATOM     27  O   UNL     1      34.940 -24.515 -16.366  0.00  0.00    -0.431 OA
ATOM     28  C   UNL     1      35.299 -24.757 -15.001  0.00  0.00    +0.257 C 
ENDBRANCH  25  27
ENDBRANCH  15  24
ENDBRANCH   7  14
BRANCH   2  29
ATOM     29  C   UNL     1      35.479 -15.403 -22.030  0.00  0.00    +0.146 C 
BRANCH  29  31
ATOM     30  F   UNL     1      34.498 -13.728 -24.095  0.00  0.00    -0.204 F 
ATOM     31  C   UNL     1      34.234 -14.564 -21.888  0.00  0.00    +0.027 C 
ATOM     32  C   UNL     1      33.807 -13.761 -22.946  0.00  0.00    +0.138 C 
ATOM     33  C   UNL     1      33.508 -14.592 -20.698  0.00  0.00    -0.000 C 
ATOM     34  C   UNL     1      32.655 -12.987 -22.814  0.00  0.00    +0.029 C 
ATOM     35  C   UNL     1      32.355 -13.816 -20.565  0.00  0.00    -0.000 C 
ATOM     36  C   UNL     1      31.929 -13.013 -21.622  0.00  0.00    +0.002 C 
ENDBRANCH  29  31
ENDBRANCH   2  29
TORSDOF 5
ENDMDL
MODEL 6
REMARK VINA RESULT:     -10.0     10.873     15.787
REMARK  Name = 54674461
REMARK  5 active torsions:
REMARK  status: ('A' for Active; 'I' for Inactive)
REMARK    1  A    between atoms: N_2  and  C_29
REMARK    2  A    between atoms: C_7  and  C_14
REMARK    3  A    between atoms: C_15  and  N_21
REMARK    4  A    between atoms: C_22  and  O_24
REMARK    5  A    between atoms: C_29  and  C_31
REMARK                            x       y       z     vdW  Elec       q    Type
REMARK                         _______ _______ _______ _____ _____    ______ ____
ROOT
ATOM      1  F   UNL     1      30.890  -9.720 -19.358  0.00  0.00    -0.207 F 
ATOM      2  N   UNL     1      34.214  -8.209 -23.299  0.00  0.00    -0.193 N 
ATOM      3  N   UNL     1      34.355  -9.288 -24.090  0.00  0.00    -0.168 NA
ATOM      4  N   UNL     1      33.070  -7.522 -21.281  0.00  0.00    -0.251 NA
ATOM      5  C   UNL     1      32.959  -9.731 -22.332  0.00  0.00    +0.133 C 
ATOM      6  C   UNL     1      33.390  -8.418 -22.231  0.00  0.00    +0.133 C 
ATOM      7  C   UNL     1      33.589 -10.211 -23.497  0.00  0.00    +0.172 C 
ATOM      8  C   UNL     1      32.089 -10.213 -21.347  0.00  0.00    +0.015 C 
ATOM      9  C   UNL     1      31.719  -9.328 -20.333  0.00  0.00    +0.139 C 
ATOM     10  C   UNL     1      32.227  -8.033 -20.352  0.00  0.00    +0.182 C 
ENDROOT
BRANCH   7  14
ATOM     11  N   UNL     1      33.279 -11.601 -25.393  0.00  0.00    -0.326 NA
ATOM     12  N   UNL     1      33.585 -12.563 -23.205  0.00  0.00    -0.326 NA
ATOM     13  N   UNL     1      32.971 -12.995 -27.283  0.00  0.00    -0.334 N 
ATOM     14  C   UNL     1      33.479 -11.531 -24.063  0.00  0.00    +0.156 C 
ATOM     15  C   UNL     1      33.270 -13.992 -25.116  0.00  0.00    +0.210 C 
ATOM     16  C   UNL     1      33.179 -12.852 -25.888  0.00  0.00    +0.193 C 
ATOM     17  C   UNL     1      33.475 -13.785 -23.767  0.00  0.00    +0.193 C 
ATOM     18  H   UNL     1      32.903 -12.196 -27.854  0.00  0.00    +0.144 HD
ATOM     19  H   UNL     1      32.894 -13.892 -27.680  0.00  0.00    +0.144 HD
ATOM     20  N   UNL     1      33.576 -14.914 -22.916  0.00  0.00    -0.334 N 
ATOM     21  H   UNL     1      33.722 -14.790 -21.951  0.00  0.00    +0.144 HD
ATOM     22  H   UNL     1      33.499 -15.821 -23.291  0.00  0.00    +0.144 HD
BRANCH  15  24
ATOM     23  O   UNL     1      35.044 -16.402 -24.849  0.00  0.00    -0.226 OA
ATOM     24  N   UNL     1      33.158 -15.273 -25.663  0.00  0.00    -0.258 N 
ATOM     25  C   UNL     1      34.012 -16.360 -25.507  0.00  0.00    +0.402 C 
ATOM     26  H   UNL     1      32.371 -15.427 -26.234  0.00  0.00    +0.154 HD
BRANCH  25  27
ATOM     27  O   UNL     1      33.524 -17.423 -26.218  0.00  0.00    -0.431 OA
ATOM     28  C   UNL     1      33.508 -18.682 -25.535  0.00  0.00    +0.257 C 
ENDBRANCH  25  27
ENDBRANCH  15  24
ENDBRANCH   7  14
BRANCH   2  29
ATOM     29  C   UNL     1      34.911  -6.989 -23.629  0.00  0.00    +0.146 C 
BRANCH  29  31
ATOM     30  F   UNL     1      35.876  -5.586 -25.895  0.00  0.00    -0.204 F 
ATOM     31  C   UNL     1      34.069  -6.015 -24.415  0.00  0.00    +0.027 C 
ATOM     32  C   UNL     1      34.609  -5.358 -25.522  0.00  0.00    +0.138 C 
ATOM     33  C   UNL     1      32.750  -5.770 -24.035  0.00  0.00    -0.000 C 
ATOM     34  C   UNL     1      33.829  -4.458 -26.248  0.00  0.00    +0.029 C 
ATOM     35  C   UNL     1      31.970  -4.870 -24.761  0.00  0.00    -0.000 C 
ATOM     36  C   UNL     1      32.509  -4.213 -25.867  0.00  0.00    +0.002 C 
ENDBRANCH  29  31
ENDBRANCH   2  29
TORSDOF 5
ENDMDL
MODEL 7
REMARK VINA RESULT:      -9.9      1.570      4.991
REMARK  Name = 54674461
REMARK  5 active torsions:
REMARK  status: ('A' for Active; 'I' for Inactive)
REMARK    1  A    between atoms: N_2  and  C_29
REMARK    2  A    between atoms: C_7  and  C_14
REMARK    3  A    between atoms: C_15  and  N_21
REMARK    4  A    between atoms: C_22  and  O_24
REMARK    5  A    between atoms: C_29  and  C_31
REMARK                            x       y       z     vdW  Elec       q    Type
REMARK                         _______ _______ _______ _____ _____    ______ ____
ROOT
ATOM      1  F   UNL     1      37.995 -23.691 -13.080  0.00  0.00    -0.207 F 
ATOM      2  N   UNL     1      32.861 -24.232 -14.565  0.00  0.00    -0.193 N 
ATOM      3  N   UNL     1      32.788 -23.737 -15.813  0.00  0.00    -0.168 NA
ATOM      4  N   UNL     1      34.475 -24.593 -12.799  0.00  0.00    -0.251 NA
ATOM      5  C   UNL     1      34.919 -23.597 -14.992  0.00  0.00    +0.133 C 
ATOM      6  C   UNL     1      34.112 -24.173 -14.024  0.00  0.00    +0.133 C 
ATOM      7  C   UNL     1      34.044 -23.352 -16.068  0.00  0.00    +0.172 C 
ATOM      8  C   UNL     1      36.275 -23.416 -14.693  0.00  0.00    +0.015 C 
ATOM      9  C   UNL     1      36.712 -23.832 -13.435  0.00  0.00    +0.139 C 
ATOM     10  C   UNL     1      35.793 -24.397 -12.556  0.00  0.00    +0.182 C 
ENDROOT
BRANCH   7  14
ATOM     11  N   UNL     1      33.345 -22.500 -18.168  0.00  0.00    -0.326 NA
ATOM     12  N   UNL     1      35.679 -22.524 -17.571  0.00  0.00    -0.326 NA
ATOM     13  N   UNL     1      32.652 -21.647 -20.266  0.00  0.00    -0.334 N 
ATOM     14  C   UNL     1      34.374 -22.759 -17.339  0.00  0.00    +0.156 C 
ATOM     15  C   UNL     1      34.991 -21.656 -19.708  0.00  0.00    +0.210 C 
ATOM     16  C   UNL     1      33.690 -21.946 -19.348  0.00  0.00    +0.193 C 
ATOM     17  C   UNL     1      35.954 -21.970 -18.771  0.00  0.00    +0.193 C 
ATOM     18  H   UNL     1      31.717 -21.844 -20.031  0.00  0.00    +0.144 HD
ATOM     19  H   UNL     1      32.867 -21.241 -21.136  0.00  0.00    +0.144 HD
ATOM     20  N   UNL     1      37.311 -21.700 -19.077  0.00  0.00    -0.334 N 
ATOM     21  H   UNL     1      38.015 -21.915 -18.424  0.00  0.00    +0.144 HD
ATOM     22  H   UNL     1      37.548 -21.297 -19.944  0.00  0.00    +0.144 HD
BRANCH  15  24
ATOM     23  O   UNL     1      34.194 -19.025 -20.921  0.00  0.00    -0.226 OA
ATOM     24  N   UNL     1      35.312 -21.085 -20.942  0.00  0.00    -0.258 N 
ATOM     25  C   UNL     1      34.916 -19.856 -21.459  0.00  0.00    +0.402 C 
ATOM     26  H   UNL     1      35.898 -21.624 -21.522  0.00  0.00    +0.154 HD
BRANCH  25  27
ATOM     27  O   UNL     1      35.462 -19.691 -22.703  0.00  0.00    -0.431 OA
ATOM     28  C   UNL     1      36.106 -18.435 -22.946  0.00  0.00    +0.257 C 
ENDBRANCH  25  27
ENDBRANCH  15  24
ENDBRANCH   7  14
BRANCH   2  29
ATOM     29  C   UNL     1      31.670 -24.755 -13.936  0.00  0.00    +0.146 C 
BRANCH  29  31
ATOM     30  F   UNL     1      30.019 -26.562 -15.365  0.00  0.00    -0.204 F 
ATOM     31  C   UNL     1      30.397 -24.336 -14.627  0.00  0.00    +0.027 C 
ATOM     32  C   UNL     1      29.631 -25.279 -15.314  0.00  0.00    +0.138 C 
ATOM     33  C   UNL     1      29.985 -23.005 -14.580  0.00  0.00    -0.000 C 
ATOM     34  C   UNL     1      28.454 -24.890 -15.952  0.00  0.00    +0.029 C 
ATOM     35  C   UNL     1      28.807 -22.615 -15.219  0.00  0.00    -0.000 C 
ATOM     36  C   UNL     1      28.042 -23.558 -15.906  0.00  0.00    +0.002 C 
ENDBRANCH  29  31
ENDBRANCH   2  29
TORSDOF 5
ENDMDL
MODEL 8
REMARK VINA RESULT:      -9.9      3.780      7.273
REMARK  Name = 54674461
REMARK  5 active torsions:
REMARK  status: ('A' for Active; 'I' for Inactive)
REMARK    1  A    between atoms: N_2  and  C_29
REMARK    2  A    between atoms: C_7  and  C_14
REMARK    3  A    between atoms: C_15  and  N_21
REMARK    4  A    between atoms: C_22  and  O_24
REMARK    5  A    between atoms: C_29  and  C_31
REMARK                            x       y       z     vdW  Elec       q    Type
REMARK                         _______ _______ _______ _____ _____    ______ ____
ROOT
ATOM      1  F   UNL     1      35.722 -20.981 -20.843  0.00  0.00    -0.207 F 
ATOM      2  N   UNL     1      32.527 -23.106 -17.083  0.00  0.00    -0.193 N 
ATOM      3  N   UNL     1      33.347 -23.730 -16.218  0.00  0.00    -0.168 NA
ATOM      4  N   UNL     1      32.617 -21.810 -19.124  0.00  0.00    -0.251 NA
ATOM      5  C   UNL     1      34.528 -22.748 -17.915  0.00  0.00    +0.133 C 
ATOM      6  C   UNL     1      33.180 -22.501 -18.117  0.00  0.00    +0.133 C 
ATOM      7  C   UNL     1      34.564 -23.509 -16.729  0.00  0.00    +0.172 C 
ATOM      8  C   UNL     1      35.437 -22.232 -18.846  0.00  0.00    +0.015 C 
ATOM      9  C   UNL     1      34.912 -21.504 -19.914  0.00  0.00    +0.139 C 
ATOM     10  C   UNL     1      33.534 -21.331 -19.998  0.00  0.00    +0.182 C 
ENDROOT
BRANCH   7  14
ATOM     11  N   UNL     1      35.556 -25.143 -15.326  0.00  0.00    -0.326 NA
ATOM     12  N   UNL     1      36.882 -23.359 -16.257  0.00  0.00    -0.326 NA
ATOM     13  N   UNL     1      36.553 -26.772 -13.926  0.00  0.00    -0.334 N 
ATOM     14  C   UNL     1      35.732 -24.032 -16.068  0.00  0.00    +0.156 C 
ATOM     15  C   UNL     1      37.908 -25.006 -14.833  0.00  0.00    +0.210 C 
ATOM     16  C   UNL     1      36.670 -25.604 -14.721  0.00  0.00    +0.193 C 
ATOM     17  C   UNL     1      37.956 -23.875 -15.622  0.00  0.00    +0.193 C 
ATOM     18  H   UNL     1      35.679 -27.216 -13.830  0.00  0.00    +0.144 HD
ATOM     19  H   UNL     1      37.344 -27.139 -13.470  0.00  0.00    +0.144 HD
ATOM     20  N   UNL     1      39.197 -23.210 -15.779  0.00  0.00    -0.334 N 
ATOM     21  H   UNL     1      39.255 -22.401 -16.337  0.00  0.00    +0.144 HD
ATOM     22  H   UNL     1      40.001 -23.557 -15.330  0.00  0.00    +0.144 HD
BRANCH  15  24
ATOM     23  O   UNL     1      40.428 -26.209 -15.945  0.00  0.00    -0.226 OA
ATOM     24  N   UNL     1      39.040 -25.511 -14.189  0.00  0.00    -0.258 N 
ATOM     25  C   UNL     1      40.188 -26.060 -14.753  0.00  0.00    +0.402 C 
ATOM     26  H   UNL     1      39.025 -25.472 -13.205  0.00  0.00    +0.154 HD
BRANCH  25  27
ATOM     27  O   UNL     1      41.050 -26.427 -13.755  0.00  0.00    -0.431 OA
ATOM     28  C   UNL     1      41.700 -27.693 -13.921  0.00  0.00    +0.257 C 
ENDBRANCH  25  27
ENDBRANCH  15  24
ENDBRANCH   7  14
BRANCH   2  29
ATOM     29  C   UNL     1      31.102 -23.128 -16.854  0.00  0.00    +0.146 C 
BRANCH  29  31
ATOM     30  F   UNL     1      31.646 -22.198 -14.233  0.00  0.00    -0.204 F 
ATOM     31  C   UNL     1      30.708 -23.888 -15.612  0.00  0.00    +0.027 C 
ATOM     32  C   UNL     1      31.008 -23.371 -14.351  0.00  0.00    +0.138 C 
ATOM     33  C   UNL     1      30.044 -25.109 -15.724  0.00  0.00    -0.000 C 
ATOM     34  C   UNL     1      30.643 -24.074 -13.204  0.00  0.00    +0.029 C 
ATOM     35  C   UNL     1      29.679 -25.813 -14.576  0.00  0.00    -0.000 C 
ATOM     36  C   UNL     1      29.979 -25.297 -13.316  0.00  0.00    +0.002 C 
ENDBRANCH  29  31
ENDBRANCH   2  29
TORSDOF 5
ENDMDL
MODEL 9
REMARK VINA RESULT:      -9.4      4.073      7.348
REMARK  Name = 54674461
REMARK  5 active torsions:
REMARK  status: ('A' for Active; 'I' for Inactive)
REMARK    1  A    between atoms: N_2  and  C_29
REMARK    2  A    between atoms: C_7  and  C_14
REMARK    3  A    between atoms: C_15  and  N_21
REMARK    4  A    between atoms: C_22  and  O_24
REMARK    5  A    between atoms: C_29  and  C_31
REMARK                            x       y       z     vdW  Elec       q    Type
REMARK                         _______ _______ _______ _____ _____    ______ ____
ROOT
ATOM      1  F   UNL     1      35.327 -20.944 -21.024  0.00  0.00    -0.207 F 
ATOM      2  N   UNL     1      32.174 -22.916 -17.147  0.00  0.00    -0.193 N 
ATOM      3  N   UNL     1      32.989 -23.609 -16.332  0.00  0.00    -0.168 NA
ATOM      4  N   UNL     1      32.256 -21.593 -19.171  0.00  0.00    -0.251 NA
ATOM      5  C   UNL     1      34.154 -22.679 -18.068  0.00  0.00    +0.133 C 
ATOM      6  C   UNL     1      32.817 -22.339 -18.203  0.00  0.00    +0.133 C 
ATOM      7  C   UNL     1      34.193 -23.461 -16.896  0.00  0.00    +0.172 C 
ATOM      8  C   UNL     1      35.051 -22.209 -19.034  0.00  0.00    +0.015 C 
ATOM      9  C   UNL     1      34.528 -21.428 -20.066  0.00  0.00    +0.139 C 
ATOM     10  C   UNL     1      33.162 -21.162 -20.081  0.00  0.00    +0.182 C 
ENDROOT
BRANCH   7  14
ATOM     11  N   UNL     1      36.475 -23.329 -16.265  0.00  0.00    -0.326 NA
ATOM     12  N   UNL     1      35.198 -25.328 -15.836  0.00  0.00    -0.326 NA
ATOM     13  N   UNL     1      38.753 -23.203 -15.633  0.00  0.00    -0.334 N 
ATOM     14  C   UNL     1      35.352 -24.073 -16.299  0.00  0.00    +0.156 C 
ATOM     15  C   UNL     1      37.514 -25.215 -15.190  0.00  0.00    +0.210 C 
ATOM     16  C   UNL     1      37.541 -23.933 -15.701  0.00  0.00    +0.193 C 
ATOM     17  C   UNL     1      36.304 -25.871 -15.285  0.00  0.00    +0.193 C 
ATOM     18  H   UNL     1      38.797 -22.287 -15.992  0.00  0.00    +0.144 HD
ATOM     19  H   UNL     1      39.552 -23.611 -15.227  0.00  0.00    +0.144 HD
ATOM     20  N   UNL     1      36.208 -27.192 -14.780  0.00  0.00    -0.334 N 
ATOM     21  H   UNL     1      35.355 -27.679 -14.837  0.00  0.00    +0.144 HD
ATOM     22  H   UNL     1      36.995 -27.621 -14.373  0.00  0.00    +0.144 HD
BRANCH  15  24
ATOM     23  O   UNL     1      38.289 -25.577 -12.309  0.00  0.00    -0.226 OA
ATOM     24  N   UNL     1      38.639 -25.810 -14.615  0.00  0.00    -0.258 N 
ATOM     25  C   UNL     1      38.952 -25.954 -13.267  0.00  0.00    +0.402 C 
ATOM     26  H   UNL     1      39.298 -26.179 -15.248  0.00  0.00    +0.154 HD
BRANCH  25  27
ATOM     27  O   UNL     1      40.153 -26.600 -13.148  0.00  0.00    -0.431 OA
ATOM     28  C   UNL     1      40.987 -26.598 -14.313  0.00  0.00    +0.257 C 
ENDBRANCH  25  27
ENDBRANCH  15  24
ENDBRANCH   7  14
BRANCH   2  29
ATOM     29  C   UNL     1      30.762 -22.847 -16.851  0.00  0.00    +0.146 C 
BRANCH  29  31
ATOM     30  F   UNL     1      28.764 -24.851 -17.008  0.00  0.00    -0.204 F 
ATOM     31  C   UNL     1      30.356 -23.700 -15.675  0.00  0.00    +0.027 C 
ATOM     32  C   UNL     1      29.364 -24.669 -15.823  0.00  0.00    +0.138 C 
ATOM     33  C   UNL     1      30.975 -23.519 -14.438  0.00  0.00    -0.000 C 
ATOM     34  C   UNL     1      28.990 -25.457 -14.735  0.00  0.00    +0.029 C 
ATOM     35  C   UNL     1      30.600 -24.306 -13.349  0.00  0.00    -0.000 C 
ATOM     36  C   UNL     1      29.608 -25.275 -13.497  0.00  0.00    +0.002 C 
ENDBRANCH  29  31
ENDBRANCH   2  29
TORSDOF 5
ENDMDL
