MODEL 1
REMARK VINA RESULT:     -11.9      0.000      0.000
REMARK  Name = 17758361
REMARK  5 active torsions:
REMARK  status: ('A' for Active; 'I' for Inactive)
REMARK    1  A    between atoms: N_1  and  C_18
REMARK    2  A    between atoms: C_4  and  C_10
REMARK    3  A    between atoms: C_10  and  C_11
REMARK    4  A    between atoms: C_18  and  C_19
REMARK    5  A    between atoms: C_22  and  C_27
REMARK                            x       y       z     vdW  Elec       q    Type
REMARK                         _______ _______ _______ _____ _____    ______ ____
ROOT
ATOM      1  N   UNL     1      32.379 -22.565 -18.220  0.00  0.00    -0.314 N 
ATOM      2  N   UNL     1      30.446 -22.849 -16.907  0.00  0.00    -0.229 NA
ATOM      3  C   UNL     1      31.781 -23.005 -17.051  0.00  0.00    +0.129 C 
ATOM      4  C   UNL     1      32.018 -24.024 -14.916  0.00  0.00    +0.043 C 
ATOM      5  C   UNL     1      32.604 -23.580 -16.096  0.00  0.00    +0.037 C 
ATOM      6  C   UNL     1      30.647 -23.882 -14.730  0.00  0.00    +0.024 C 
ATOM      7  C   UNL     1      29.912 -23.293 -15.747  0.00  0.00    +0.100 C 
ATOM      8  H   UNL     1      31.806 -22.155 -18.909  0.00  0.00    +0.149 HD
ENDROOT
BRANCH   4  10
ATOM      9  O   UNL     1      32.303 -25.276 -12.961  0.00  0.00    -0.287 OA
ATOM     10  C   UNL     1      32.834 -24.635 -13.879  0.00  0.00    +0.196 C 
BRANCH  10  11
ATOM     11  C   UNL     1      34.325 -24.525 -13.865  0.00  0.00    +0.039 C 
ATOM     12  C   UNL     1      34.970 -23.922 -12.785  0.00  0.00    -0.001 C 
ATOM     13  C   UNL     1      36.360 -23.820 -12.772  0.00  0.00    -0.022 C 
ATOM     14  C   UNL     1      35.070 -25.028 -14.931  0.00  0.00    +0.003 C 
ATOM     15  C   UNL     1      37.107 -24.323 -13.838  0.00  0.00    -0.004 C 
ATOM     16  C   UNL     1      36.462 -24.927 -14.917  0.00  0.00    -0.000 C 
ATOM     17  C   UNL     1      37.051 -23.177 -11.617  0.00  0.00    +0.031 C 
ENDBRANCH  10  11
ENDBRANCH   4  10
BRANCH   1  18
ATOM     18  C   UNL     1      33.796 -22.677 -18.486  0.00  0.00    +0.115 C 
BRANCH  18  19
ATOM     19  C   UNL     1      34.223 -21.698 -19.528  0.00  0.00    -0.003 C 
ATOM     20  C   UNL     1      35.580 -21.474 -19.759  0.00  0.00    -0.003 C 
ATOM     21  C   UNL     1      33.265 -21.005 -20.269  0.00  0.00    -0.003 C 
ATOM     22  C   UNL     1      35.022 -19.866 -21.473  0.00  0.00    +0.031 C 
ATOM     23  C   UNL     1      35.979 -20.558 -20.732  0.00  0.00    +0.002 C 
ATOM     24  C   UNL     1      33.665 -20.089 -21.241  0.00  0.00    +0.002 C 
BRANCH  22  27
ATOM     25  N   UNL     1      34.626 -18.606 -23.576  0.00  0.00    -0.343 N 
ATOM     26  N   UNL     1      36.616 -18.316 -22.386  0.00  0.00    -0.285 NA
ATOM     27  C   UNL     1      35.440 -18.911 -22.487  0.00  0.00    +0.117 C 
ATOM     28  H   UNL     1      34.928 -17.956 -24.251  0.00  0.00    +0.144 HD
ATOM     29  H   UNL     1      33.747 -19.041 -23.670  0.00  0.00    +0.144 HD
ATOM     30  H   UNL     1      36.900 -17.669 -23.071  0.00  0.00    +0.188 HD
ENDBRANCH  22  27
ENDBRANCH  18  19
ENDBRANCH   1  18
TORSDOF 5
ENDMDL
MODEL 2
REMARK VINA RESULT:     -11.8      1.545      4.229
REMARK  Name = 17758361
REMARK  5 active torsions:
REMARK  status: ('A' for Active; 'I' for Inactive)
REMARK    1  A    between atoms: N_1  and  C_18
REMARK    2  A    between atoms: C_4  and  C_10
REMARK    3  A    between atoms: C_10  and  C_11
REMARK    4  A    between atoms: C_18  and  C_19
REMARK    5  A    between atoms: C_22  and  C_27
REMARK                            x       y       z     vdW  Elec       q    Type
REMARK                         _______ _______ _______ _____ _____    ______ ____
ROOT
ATOM      1  N   UNL     1      34.922 -23.061 -17.739  0.00  0.00    -0.314 N 
ATOM      2  N   UNL     1      36.005 -23.820 -15.792  0.00  0.00    -0.229 NA
ATOM      3  C   UNL     1      34.867 -23.422 -16.403  0.00  0.00    +0.129 C 
ATOM      4  C   UNL     1      33.563 -23.712 -14.436  0.00  0.00    +0.043 C 
ATOM      5  C   UNL     1      33.633 -23.351 -15.777  0.00  0.00    +0.037 C 
ATOM      6  C   UNL     1      34.713 -24.126 -13.772  0.00  0.00    +0.024 C 
ATOM      7  C   UNL     1      35.899 -24.163 -14.488  0.00  0.00    +0.100 C 
ATOM      8  H   UNL     1      35.792 -23.106 -18.197  0.00  0.00    +0.149 HD
ENDROOT
BRANCH   4  10
ATOM      9  O   UNL     1      32.243 -23.234 -12.565  0.00  0.00    -0.287 OA
ATOM     10  C   UNL     1      32.293 -23.657 -13.729  0.00  0.00    +0.196 C 
BRANCH  10  11
ATOM     11  C   UNL     1      31.009 -24.097 -14.355  0.00  0.00    +0.039 C 
ATOM     12  C   UNL     1      30.180 -23.163 -14.978  0.00  0.00    -0.001 C 
ATOM     13  C   UNL     1      28.983 -23.574 -15.562  0.00  0.00    -0.022 C 
ATOM     14  C   UNL     1      30.641 -25.441 -14.318  0.00  0.00    +0.003 C 
ATOM     15  C   UNL     1      28.614 -24.920 -15.525  0.00  0.00    -0.004 C 
ATOM     16  C   UNL     1      29.444 -25.853 -14.904  0.00  0.00    -0.000 C 
ATOM     17  C   UNL     1      28.098 -22.577 -16.230  0.00  0.00    +0.031 C 
ENDBRANCH  10  11
ENDBRANCH   4  10
BRANCH   1  18
ATOM     18  C   UNL     1      33.771 -22.622 -18.497  0.00  0.00    +0.115 C 
BRANCH  18  19
ATOM     19  C   UNL     1      34.169 -21.649 -19.556  0.00  0.00    -0.003 C 
ATOM     20  C   UNL     1      35.519 -21.408 -19.808  0.00  0.00    -0.003 C 
ATOM     21  C   UNL     1      33.191 -20.981 -20.293  0.00  0.00    -0.003 C 
ATOM     22  C   UNL     1      34.914 -19.830 -21.534  0.00  0.00    +0.031 C 
ATOM     23  C   UNL     1      35.891 -20.498 -20.797  0.00  0.00    +0.002 C 
ATOM     24  C   UNL     1      33.564 -20.071 -21.282  0.00  0.00    +0.002 C 
BRANCH  22  27
ATOM     25  N   UNL     1      34.491 -18.636 -23.671  0.00  0.00    -0.343 N 
ATOM     26  N   UNL     1      36.451 -18.234 -22.464  0.00  0.00    -0.285 NA
ATOM     27  C   UNL     1      35.303 -18.881 -22.565  0.00  0.00    +0.117 C 
ATOM     28  H   UNL     1      34.774 -17.990 -24.357  0.00  0.00    +0.144 HD
ATOM     29  H   UNL     1      33.633 -19.111 -23.765  0.00  0.00    +0.144 HD
ATOM     30  H   UNL     1      36.717 -17.591 -23.160  0.00  0.00    +0.188 HD
ENDBRANCH  22  27
ENDBRANCH  18  19
ENDBRANCH   1  18
TORSDOF 5
ENDMDL
MODEL 3
REMARK VINA RESULT:     -11.7      5.589     11.684
REMARK  Name = 17758361
REMARK  5 active torsions:
REMARK  status: ('A' for Active; 'I' for Inactive)
REMARK    1  A    between atoms: N_1  and  C_18
REMARK    2  A    between atoms: C_4  and  C_10
REMARK    3  A    between atoms: C_10  and  C_11
REMARK    4  A    between atoms: C_18  and  C_19
REMARK    5  A    between atoms: C_22  and  C_27
REMARK                            x       y       z     vdW  Elec       q    Type
REMARK                         _______ _______ _______ _____ _____    ______ ____
ROOT
ATOM      1  N   UNL     1      35.716 -18.108 -23.466  0.00  0.00    -0.314 N 
ATOM      2  N   UNL     1      34.579 -17.124 -25.277  0.00  0.00    -0.229 NA
ATOM      3  C   UNL     1      34.947 -17.076 -23.977  0.00  0.00    +0.129 C 
ATOM      4  C   UNL     1      33.833 -15.008 -23.611  0.00  0.00    +0.043 C 
ATOM      5  C   UNL     1      34.604 -16.051 -23.110  0.00  0.00    +0.037 C 
ATOM      6  C   UNL     1      33.434 -15.022 -24.943  0.00  0.00    +0.024 C 
ATOM      7  C   UNL     1      33.830 -16.093 -25.728  0.00  0.00    +0.100 C 
ATOM      8  H   UNL     1      35.967 -18.844 -24.071  0.00  0.00    +0.149 HD
ENDROOT
BRANCH   4  10
ATOM      9  O   UNL     1      33.067 -14.124 -21.585  0.00  0.00    -0.287 OA
ATOM     10  C   UNL     1      33.445 -13.905 -22.745  0.00  0.00    +0.196 C 
BRANCH  10  11
ATOM     11  C   UNL     1      33.480 -12.481 -23.197  0.00  0.00    +0.039 C 
ATOM     12  C   UNL     1      34.359 -12.093 -24.209  0.00  0.00    -0.001 C 
ATOM     13  C   UNL     1      34.391 -10.764 -24.632  0.00  0.00    -0.022 C 
ATOM     14  C   UNL     1      32.634 -11.543 -22.610  0.00  0.00    +0.003 C 
ATOM     15  C   UNL     1      33.544  -9.824 -24.044  0.00  0.00    -0.004 C 
ATOM     16  C   UNL     1      32.665 -10.214 -23.034  0.00  0.00    -0.000 C 
ATOM     17  C   UNL     1      35.328 -10.348 -25.715  0.00  0.00    +0.031 C 
ENDBRANCH  10  11
ENDBRANCH   4  10
BRANCH   1  18
ATOM     18  C   UNL     1      36.170 -18.164 -22.094  0.00  0.00    +0.115 C 
BRANCH  18  19
ATOM     19  C   UNL     1      35.525 -19.294 -21.364  0.00  0.00    -0.003 C 
ATOM     20  C   UNL     1      34.146 -19.481 -21.448  0.00  0.00    -0.003 C 
ATOM     21  C   UNL     1      36.302 -20.163 -20.597  0.00  0.00    -0.003 C 
ATOM     22  C   UNL     1      34.319 -21.405 -19.997  0.00  0.00    +0.031 C 
ATOM     23  C   UNL     1      33.543 -20.536 -20.764  0.00  0.00    +0.002 C 
ATOM     24  C   UNL     1      35.698 -21.218 -19.913  0.00  0.00    +0.002 C 
BRANCH  22  27
ATOM     25  N   UNL     1      32.559 -22.305 -18.493  0.00  0.00    -0.343 N 
ATOM     26  N   UNL     1      34.191 -23.723 -19.379  0.00  0.00    -0.285 NA
ATOM     27  C   UNL     1      33.688 -22.505 -19.285  0.00  0.00    +0.117 C 
ATOM     28  H   UNL     1      32.148 -23.064 -18.020  0.00  0.00    +0.144 HD
ATOM     29  H   UNL     1      32.171 -21.403 -18.408  0.00  0.00    +0.144 HD
ATOM     30  H   UNL     1      33.766 -24.470 -18.898  0.00  0.00    +0.188 HD
ENDBRANCH  22  27
ENDBRANCH  18  19
ENDBRANCH   1  18
TORSDOF 5
ENDMDL
MODEL 4
REMARK VINA RESULT:     -11.3      3.506      9.364
REMARK  Name = 17758361
REMARK  5 active torsions:
REMARK  status: ('A' for Active; 'I' for Inactive)
REMARK    1  A    between atoms: N_1  and  C_18
REMARK    2  A    between atoms: C_4  and  C_10
REMARK    3  A    between atoms: C_10  and  C_11
REMARK    4  A    between atoms: C_18  and  C_19
REMARK    5  A    between atoms: C_22  and  C_27
REMARK                            x       y       z     vdW  Elec       q    Type
REMARK                         _______ _______ _______ _____ _____    ______ ____
ROOT
ATOM      1  N   UNL     1      34.692 -22.858 -17.753  0.00  0.00    -0.314 N 
ATOM      2  N   UNL     1      32.989 -22.165 -19.222  0.00  0.00    -0.229 NA
ATOM      3  C   UNL     1      34.273 -22.069 -18.811  0.00  0.00    +0.129 C 
ATOM      4  C   UNL     1      34.805 -20.430 -20.448  0.00  0.00    +0.043 C 
ATOM      5  C   UNL     1      35.212 -21.227 -19.384  0.00  0.00    +0.037 C 
ATOM      6  C   UNL     1      33.492 -20.499 -20.900  0.00  0.00    +0.024 C 
ATOM      7  C   UNL     1      32.630 -21.375 -20.259  0.00  0.00    +0.100 C 
ATOM      8  H   UNL     1      34.036 -23.462 -17.335  0.00  0.00    +0.149 HD
ENDROOT
BRANCH   4  10
ATOM      9  O   UNL     1      36.910 -19.434 -20.665  0.00  0.00    -0.287 OA
ATOM     10  C   UNL     1      35.749 -19.527 -21.088  0.00  0.00    +0.196 C 
BRANCH  10  11
ATOM     11  C   UNL     1      35.378 -18.683 -22.264  0.00  0.00    +0.039 C 
ATOM     12  C   UNL     1      34.835 -19.275 -23.405  0.00  0.00    -0.001 C 
ATOM     13  C   UNL     1      34.488 -18.487 -24.502  0.00  0.00    -0.022 C 
ATOM     14  C   UNL     1      35.573 -17.303 -22.220  0.00  0.00    +0.003 C 
ATOM     15  C   UNL     1      34.683 -17.106 -24.458  0.00  0.00    -0.004 C 
ATOM     16  C   UNL     1      35.224 -16.514 -23.317  0.00  0.00    -0.000 C 
ATOM     17  C   UNL     1      33.905 -19.119 -25.720  0.00  0.00    +0.031 C 
ENDBRANCH  10  11
ENDBRANCH   4  10
BRANCH   1  18
ATOM     18  C   UNL     1      36.040 -22.844 -17.228  0.00  0.00    +0.115 C 
BRANCH  18  19
ATOM     19  C   UNL     1      36.056 -23.229 -15.787  0.00  0.00    -0.003 C 
ATOM     20  C   UNL     1      37.262 -23.249 -15.085  0.00  0.00    -0.003 C 
ATOM     21  C   UNL     1      34.867 -23.571 -15.142  0.00  0.00    -0.003 C 
ATOM     22  C   UNL     1      36.089 -23.952 -13.093  0.00  0.00    +0.031 C 
ATOM     23  C   UNL     1      37.277 -23.611 -13.738  0.00  0.00    +0.002 C 
ATOM     24  C   UNL     1      34.884 -23.932 -13.795  0.00  0.00    +0.002 C 
BRANCH  22  27
ATOM     25  N   UNL     1      36.978 -23.722 -10.786  0.00  0.00    -0.343 N 
ATOM     26  N   UNL     1      35.288 -25.269 -11.250  0.00  0.00    -0.285 NA
ATOM     27  C   UNL     1      36.107 -24.329 -11.689  0.00  0.00    +0.117 C 
ATOM     28  H   UNL     1      36.973 -23.993  -9.839  0.00  0.00    +0.144 HD
ATOM     29  H   UNL     1      37.598 -23.022 -11.095  0.00  0.00    +0.144 HD
ATOM     30  H   UNL     1      35.298 -25.525 -10.299  0.00  0.00    +0.188 HD
ENDBRANCH  22  27
ENDBRANCH  18  19
ENDBRANCH   1  18
TORSDOF 5
ENDMDL
MODEL 5
REMARK VINA RESULT:     -11.2      3.856      7.170
REMARK  Name = 17758361
REMARK  5 active torsions:
REMARK  status: ('A' for Active; 'I' for Inactive)
REMARK    1  A    between atoms: N_1  and  C_18
REMARK    2  A    between atoms: C_4  and  C_10
REMARK    3  A    between atoms: C_10  and  C_11
REMARK    4  A    between atoms: C_18  and  C_19
REMARK    5  A    between atoms: C_22  and  C_27
REMARK                            x       y       z     vdW  Elec       q    Type
REMARK                         _______ _______ _______ _____ _____    ______ ____
ROOT
ATOM      1  N   UNL     1      34.415 -24.110 -13.018  0.00  0.00    -0.314 N 
ATOM      2  N   UNL     1      32.318 -25.165 -13.193  0.00  0.00    -0.229 NA
ATOM      3  C   UNL     1      33.230 -24.310 -13.707  0.00  0.00    +0.129 C 
ATOM      4  C   UNL     1      31.876 -23.805 -15.594  0.00  0.00    +0.043 C 
ATOM      5  C   UNL     1      33.060 -23.613 -14.892  0.00  0.00    +0.037 C 
ATOM      6  C   UNL     1      30.913 -24.677 -15.098  0.00  0.00    +0.024 C 
ATOM      7  C   UNL     1      31.180 -25.327 -13.904  0.00  0.00    +0.100 C 
ATOM      8  H   UNL     1      34.550 -24.598 -12.174  0.00  0.00    +0.149 HD
ENDROOT
BRANCH   4  10
ATOM      9  O   UNL     1      30.491 -22.825 -17.204  0.00  0.00    -0.287 OA
ATOM     10  C   UNL     1      31.645 -23.099 -16.845  0.00  0.00    +0.196 C 
BRANCH  10  11
ATOM     11  C   UNL     1      32.761 -22.676 -17.743  0.00  0.00    +0.039 C 
ATOM     12  C   UNL     1      32.503 -21.841 -18.831  0.00  0.00    -0.001 C 
ATOM     13  C   UNL     1      33.545 -21.445 -19.669  0.00  0.00    -0.022 C 
ATOM     14  C   UNL     1      34.061 -23.113 -17.493  0.00  0.00    +0.003 C 
ATOM     15  C   UNL     1      34.846 -21.883 -19.419  0.00  0.00    -0.004 C 
ATOM     16  C   UNL     1      35.104 -22.717 -18.331  0.00  0.00    -0.000 C 
ATOM     17  C   UNL     1      33.271 -20.551 -20.830  0.00  0.00    +0.031 C 
ENDBRANCH  10  11
ENDBRANCH   4  10
BRANCH   1  18
ATOM     18  C   UNL     1      35.463 -23.222 -13.470  0.00  0.00    +0.115 C 
BRANCH  18  19
ATOM     19  C   UNL     1      36.699 -23.986 -13.813  0.00  0.00    -0.003 C 
ATOM     20  C   UNL     1      37.402 -23.685 -14.979  0.00  0.00    -0.003 C 
ATOM     21  C   UNL     1      37.149 -25.001 -12.969  0.00  0.00    -0.003 C 
ATOM     22  C   UNL     1      39.006 -25.414 -14.457  0.00  0.00    +0.031 C 
ATOM     23  C   UNL     1      38.556 -24.399 -15.301  0.00  0.00    +0.002 C 
ATOM     24  C   UNL     1      38.302 -25.715 -13.291  0.00  0.00    +0.002 C 
BRANCH  22  27
ATOM     25  N   UNL     1      40.922 -26.862 -13.825  0.00  0.00    -0.343 N 
ATOM     26  N   UNL     1      40.647 -26.171 -16.040  0.00  0.00    -0.285 NA
ATOM     27  C   UNL     1      40.209 -26.158 -14.793  0.00  0.00    +0.117 C 
ATOM     28  H   UNL     1      41.734 -27.360 -14.074  0.00  0.00    +0.144 HD
ATOM     29  H   UNL     1      40.613 -26.862 -12.889  0.00  0.00    +0.144 HD
ATOM     30  H   UNL     1      41.462 -26.675 -16.270  0.00  0.00    +0.188 HD
ENDBRANCH  22  27
ENDBRANCH  18  19
ENDBRANCH   1  18
TORSDOF 5
ENDMDL
MODEL 6
REMARK VINA RESULT:     -11.0      6.246     10.104
REMARK  Name = 17758361
REMARK  5 active torsions:
REMARK  status: ('A' for Active; 'I' for Inactive)
REMARK    1  A    between atoms: N_1  and  C_18
REMARK    2  A    between atoms: C_4  and  C_10
REMARK    3  A    between atoms: C_10  and  C_11
REMARK    4  A    between atoms: C_18  and  C_19
REMARK    5  A    between atoms: C_22  and  C_27
REMARK                            x       y       z     vdW  Elec       q    Type
REMARK                         _______ _______ _______ _____ _____    ______ ____
ROOT
ATOM      1  N   UNL     1      33.732 -14.661 -24.211  0.00  0.00    -0.314 N 
ATOM      2  N   UNL     1      33.507 -16.613 -25.507  0.00  0.00    -0.229 NA
ATOM      3  C   UNL     1      33.975 -16.012 -24.390  0.00  0.00    +0.129 C 
ATOM      4  C   UNL     1      34.936 -18.024 -23.563  0.00  0.00    +0.043 C 
ATOM      5  C   UNL     1      34.687 -16.666 -23.397  0.00  0.00    +0.037 C 
ATOM      6  C   UNL     1      34.471 -18.677 -24.700  0.00  0.00    +0.024 C 
ATOM      7  C   UNL     1      33.768 -17.933 -25.633  0.00  0.00    +0.100 C 
ATOM      8  H   UNL     1      33.228 -14.183 -24.909  0.00  0.00    +0.149 HD
ENDROOT
BRANCH   4  10
ATOM      9  O   UNL     1      36.909 -18.638 -22.467  0.00  0.00    -0.287 OA
ATOM     10  C   UNL     1      35.679 -18.759 -22.552  0.00  0.00    +0.196 C 
BRANCH  10  11
ATOM     11  C   UNL     1      35.013 -19.681 -21.582  0.00  0.00    +0.039 C 
ATOM     12  C   UNL     1      35.781 -20.416 -20.678  0.00  0.00    -0.001 C 
ATOM     13  C   UNL     1      35.160 -21.276 -19.773  0.00  0.00    -0.022 C 
ATOM     14  C   UNL     1      33.625 -19.805 -21.580  0.00  0.00    +0.003 C 
ATOM     15  C   UNL     1      33.770 -21.400 -19.770  0.00  0.00    -0.004 C 
ATOM     16  C   UNL     1      33.003 -20.665 -20.673  0.00  0.00    -0.000 C 
ATOM     17  C   UNL     1      35.980 -22.059 -18.804  0.00  0.00    +0.031 C 
ENDBRANCH  10  11
ENDBRANCH   4  10
BRANCH   1  18
ATOM     18  C   UNL     1      34.181 -13.913 -23.057  0.00  0.00    +0.115 C 
BRANCH  18  19
ATOM     19  C   UNL     1      33.563 -12.555 -23.027  0.00  0.00    -0.003 C 
ATOM     20  C   UNL     1      34.038 -11.555 -23.875  0.00  0.00    -0.003 C 
ATOM     21  C   UNL     1      32.511 -12.286 -22.150  0.00  0.00    -0.003 C 
ATOM     22  C   UNL     1      32.411 -10.016 -22.970  0.00  0.00    +0.031 C 
ATOM     23  C   UNL     1      33.462 -10.285 -23.846  0.00  0.00    +0.002 C 
ATOM     24  C   UNL     1      31.936 -11.017 -22.122  0.00  0.00    +0.002 C 
BRANCH  22  27
ATOM     25  N   UNL     1      31.682  -7.979 -21.750  0.00  0.00    -0.343 N 
ATOM     26  N   UNL     1      31.371  -8.144 -24.060  0.00  0.00    -0.285 NA
ATOM     27  C   UNL     1      31.811  -8.692 -22.941  0.00  0.00    +0.117 C 
ATOM     28  H   UNL     1      31.272  -7.084 -21.753  0.00  0.00    +0.144 HD
ATOM     29  H   UNL     1      32.000  -8.372 -20.905  0.00  0.00    +0.144 HD
ATOM     30  H   UNL     1      30.965  -7.248 -24.043  0.00  0.00    +0.188 HD
ENDBRANCH  22  27
ENDBRANCH  18  19
ENDBRANCH   1  18
TORSDOF 5
ENDMDL
MODEL 7
REMARK VINA RESULT:     -11.0     11.140     16.136
REMARK  Name = 17758361
REMARK  5 active torsions:
REMARK  status: ('A' for Active; 'I' for Inactive)
REMARK    1  A    between atoms: N_1  and  C_18
REMARK    2  A    between atoms: C_4  and  C_10
REMARK    3  A    between atoms: C_10  and  C_11
REMARK    4  A    between atoms: C_18  and  C_19
REMARK    5  A    between atoms: C_22  and  C_27
REMARK                            x       y       z     vdW  Elec       q    Type
REMARK                         _______ _______ _______ _____ _____    ______ ____
ROOT
ATOM      1  N   UNL     1      31.708 -10.601 -20.514  0.00  0.00    -0.314 N 
ATOM      2  N   UNL     1      32.380  -8.469 -19.779  0.00  0.00    -0.229 NA
ATOM      3  C   UNL     1      31.935  -9.261 -20.779  0.00  0.00    +0.129 C 
ATOM      4  C   UNL     1      31.908  -7.474 -22.347  0.00  0.00    +0.043 C 
ATOM      5  C   UNL     1      31.685  -8.818 -22.068  0.00  0.00    +0.037 C 
ATOM      6  C   UNL     1      32.366  -6.627 -21.344  0.00  0.00    +0.024 C 
ATOM      7  C   UNL     1      32.584  -7.169 -20.087  0.00  0.00    +0.100 C 
ATOM      8  H   UNL     1      31.881 -10.931 -19.603  0.00  0.00    +0.149 HD
ENDROOT
BRANCH   4  10
ATOM      9  O   UNL     1      30.557  -7.114 -24.223  0.00  0.00    -0.287 OA
ATOM     10  C   UNL     1      31.661  -6.955 -23.684  0.00  0.00    +0.196 C 
BRANCH  10  11
ATOM     11  C   UNL     1      32.704  -6.219 -24.461  0.00  0.00    +0.039 C 
ATOM     12  C   UNL     1      32.345  -5.119 -25.242  0.00  0.00    -0.001 C 
ATOM     13  C   UNL     1      33.318  -4.432 -25.966  0.00  0.00    -0.022 C 
ATOM     14  C   UNL     1      34.035  -6.629 -24.404  0.00  0.00    +0.003 C 
ATOM     15  C   UNL     1      34.651  -4.842 -25.909  0.00  0.00    -0.004 C 
ATOM     16  C   UNL     1      35.009  -5.940 -25.128  0.00  0.00    -0.000 C 
ATOM     17  C   UNL     1      32.936  -3.255 -26.799  0.00  0.00    +0.031 C 
ENDBRANCH  10  11
ENDBRANCH   4  10
BRANCH   1  18
ATOM     18  C   UNL     1      31.231 -11.543 -21.503  0.00  0.00    +0.115 C 
BRANCH  18  19
ATOM     19  C   UNL     1      32.203 -12.659 -21.691  0.00  0.00    -0.003 C 
ATOM     20  C   UNL     1      32.903 -12.778 -22.891  0.00  0.00    -0.003 C 
ATOM     21  C   UNL     1      32.410 -13.584 -20.667  0.00  0.00    -0.003 C 
ATOM     22  C   UNL     1      34.018 -14.746 -22.044  0.00  0.00    +0.031 C 
ATOM     23  C   UNL     1      33.810 -13.822 -23.068  0.00  0.00    +0.002 C 
ATOM     24  C   UNL     1      33.318 -14.627 -20.844  0.00  0.00    +0.002 C 
BRANCH  22  27
ATOM     25  N   UNL     1      35.267 -16.718 -21.194  0.00  0.00    -0.343 N 
ATOM     26  N   UNL     1      35.560 -15.997 -23.398  0.00  0.00    -0.285 NA
ATOM     27  C   UNL     1      34.965 -15.834 -22.229  0.00  0.00    +0.117 C 
ATOM     28  H   UNL     1      35.911 -17.448 -21.342  0.00  0.00    +0.144 HD
ATOM     29  H   UNL     1      34.836 -16.611 -20.315  0.00  0.00    +0.144 HD
ATOM     30  H   UNL     1      36.201 -16.733 -23.526  0.00  0.00    +0.188 HD
ENDBRANCH  22  27
ENDBRANCH  18  19
ENDBRANCH   1  18
TORSDOF 5
ENDMDL
MODEL 8
REMARK VINA RESULT:     -11.0      2.560      3.425
REMARK  Name = 17758361
REMARK  5 active torsions:
REMARK  status: ('A' for Active; 'I' for Inactive)
REMARK    1  A    between atoms: N_1  and  C_18
REMARK    2  A    between atoms: C_4  and  C_10
REMARK    3  A    between atoms: C_10  and  C_11
REMARK    4  A    between atoms: C_18  and  C_19
REMARK    5  A    between atoms: C_22  and  C_27
REMARK                            x       y       z     vdW  Elec       q    Type
REMARK                         _______ _______ _______ _____ _____    ______ ____
ROOT
ATOM      1  N   UNL     1      34.602 -21.325 -20.089  0.00  0.00    -0.314 N 
ATOM      2  N   UNL     1      33.356 -22.714 -18.654  0.00  0.00    -0.229 NA
ATOM      3  C   UNL     1      34.514 -22.072 -18.927  0.00  0.00    +0.129 C 
ATOM      4  C   UNL     1      35.559 -22.855 -16.939  0.00  0.00    +0.043 C 
ATOM      5  C   UNL     1      35.634 -22.110 -18.111  0.00  0.00    +0.037 C 
ATOM      6  C   UNL     1      34.384 -23.530 -16.624  0.00  0.00    +0.024 C 
ATOM      7  C   UNL     1      33.321 -23.428 -17.507  0.00  0.00    +0.100 C 
ATOM      8  H   UNL     1      33.815 -21.290 -20.680  0.00  0.00    +0.149 HD
ENDROOT
BRANCH   4  10
ATOM      9  O   UNL     1      37.680 -22.186 -16.217  0.00  0.00    -0.287 OA
ATOM     10  C   UNL     1      36.704 -22.929 -16.045  0.00  0.00    +0.196 C 
BRANCH  10  11
ATOM     11  C   UNL     1      36.763 -23.883 -14.897  0.00  0.00    +0.039 C 
ATOM     12  C   UNL     1      36.623 -23.413 -13.590  0.00  0.00    -0.001 C 
ATOM     13  C   UNL     1      36.677 -24.304 -12.519  0.00  0.00    -0.022 C 
ATOM     14  C   UNL     1      36.956 -25.244 -15.131  0.00  0.00    +0.003 C 
ATOM     15  C   UNL     1      36.870 -25.666 -12.754  0.00  0.00    -0.004 C 
ATOM     16  C   UNL     1      37.009 -26.136 -14.059  0.00  0.00    -0.000 C 
ATOM     17  C   UNL     1      36.525 -23.803 -11.123  0.00  0.00    +0.031 C 
ENDBRANCH  10  11
ENDBRANCH   4  10
BRANCH   1  18
ATOM     18  C   UNL     1      35.787 -20.596 -20.484  0.00  0.00    +0.115 C 
BRANCH  18  19
ATOM     19  C   UNL     1      35.468 -19.588 -21.537  0.00  0.00    -0.003 C 
ATOM     20  C   UNL     1      35.802 -18.248 -21.343  0.00  0.00    -0.003 C 
ATOM     21  C   UNL     1      34.833 -19.985 -22.714  0.00  0.00    -0.003 C 
ATOM     22  C   UNL     1      34.869 -17.702 -23.503  0.00  0.00    +0.031 C 
ATOM     23  C   UNL     1      35.502 -17.305 -22.326  0.00  0.00    +0.002 C 
ATOM     24  C   UNL     1      34.534 -19.042 -23.697  0.00  0.00    +0.002 C 
BRANCH  22  27
ATOM     25  N   UNL     1      34.185 -15.417 -24.194  0.00  0.00    -0.343 N 
ATOM     26  N   UNL     1      34.620 -17.055 -25.803  0.00  0.00    -0.285 NA
ATOM     27  C   UNL     1      34.557 -16.718 -24.527  0.00  0.00    +0.117 C 
ATOM     28  H   UNL     1      33.978 -14.767 -24.904  0.00  0.00    +0.144 HD
ATOM     29  H   UNL     1      34.129 -15.148 -23.249  0.00  0.00    +0.144 HD
ATOM     30  H   UNL     1      34.410 -16.391 -26.499  0.00  0.00    +0.188 HD
ENDBRANCH  22  27
ENDBRANCH  18  19
ENDBRANCH   1  18
TORSDOF 5
ENDMDL
MODEL 9
REMARK VINA RESULT:     -11.0      1.704      4.161
REMARK  Name = 17758361
REMARK  5 active torsions:
REMARK  status: ('A' for Active; 'I' for Inactive)
REMARK    1  A    between atoms: N_1  and  C_18
REMARK    2  A    between atoms: C_4  and  C_10
REMARK    3  A    between atoms: C_10  and  C_11
REMARK    4  A    between atoms: C_18  and  C_19
REMARK    5  A    between atoms: C_22  and  C_27
REMARK                            x       y       z     vdW  Elec       q    Type
REMARK                         _______ _______ _______ _____ _____    ______ ____
ROOT
ATOM      1  N   UNL     1      36.056 -22.529 -17.569  0.00  0.00    -0.314 N 
ATOM      2  N   UNL     1      37.411 -22.954 -15.691  0.00  0.00    -0.229 NA
ATOM      3  C   UNL     1      36.184 -22.960 -16.259  0.00  0.00    +0.129 C 
ATOM      4  C   UNL     1      35.146 -23.813 -14.298  0.00  0.00    +0.043 C 
ATOM      5  C   UNL     1      35.032 -23.376 -15.613  0.00  0.00    +0.037 C 
ATOM      6  C   UNL     1      36.391 -23.821 -13.679  0.00  0.00    +0.024 C 
ATOM      7  C   UNL     1      37.483 -23.386 -14.412  0.00  0.00    +0.100 C 
ATOM      8  H   UNL     1      36.867 -22.230 -18.041  0.00  0.00    +0.149 HD
ENDROOT
BRANCH   4  10
ATOM      9  O   UNL     1      34.048 -24.556 -12.370  0.00  0.00    -0.287 OA
ATOM     10  C   UNL     1      33.968 -24.262 -13.571  0.00  0.00    +0.196 C 
BRANCH  10  11
ATOM     11  C   UNL     1      32.628 -24.389 -14.220  0.00  0.00    +0.039 C 
ATOM     12  C   UNL     1      32.263 -23.515 -15.246  0.00  0.00    -0.001 C 
ATOM     13  C   UNL     1      31.013 -23.634 -15.852  0.00  0.00    -0.022 C 
ATOM     14  C   UNL     1      31.743 -25.381 -13.802  0.00  0.00    +0.003 C 
ATOM     15  C   UNL     1      30.127 -24.628 -15.433  0.00  0.00    -0.004 C 
ATOM     16  C   UNL     1      30.492 -25.501 -14.409  0.00  0.00    -0.000 C 
ATOM     17  C   UNL     1      30.624 -22.703 -16.949  0.00  0.00    +0.031 C 
ENDBRANCH  10  11
ENDBRANCH   4  10
BRANCH   1  18
ATOM     18  C   UNL     1      34.798 -22.494 -18.280  0.00  0.00    +0.115 C 
BRANCH  18  19
ATOM     19  C   UNL     1      34.865 -21.556 -19.439  0.00  0.00    -0.003 C 
ATOM     20  C   UNL     1      33.691 -21.127 -20.057  0.00  0.00    -0.003 C 
ATOM     21  C   UNL     1      36.102 -21.109 -19.904  0.00  0.00    -0.003 C 
ATOM     22  C   UNL     1      34.989 -19.805 -21.606  0.00  0.00    +0.031 C 
ATOM     23  C   UNL     1      33.753 -20.252 -21.141  0.00  0.00    +0.002 C 
ATOM     24  C   UNL     1      36.164 -20.233 -20.987  0.00  0.00    +0.002 C 
BRANCH  22  27
ATOM     25  N   UNL     1      34.170 -19.001 -23.808  0.00  0.00    -0.343 N 
ATOM     26  N   UNL     1      35.966 -17.937 -22.759  0.00  0.00    -0.285 NA
ATOM     27  C   UNL     1      35.053 -18.892 -22.736  0.00  0.00    +0.117 C 
ATOM     28  H   UNL     1      34.230 -18.372 -24.563  0.00  0.00    +0.144 HD
ATOM     29  H   UNL     1      33.484 -19.708 -23.810  0.00  0.00    +0.144 HD
ATOM     30  H   UNL     1      36.011 -17.317 -23.523  0.00  0.00    +0.188 HD
ENDBRANCH  22  27
ENDBRANCH  18  19
ENDBRANCH   1  18
TORSDOF 5
ENDMDL
