MODEL 1
REMARK VINA RESULT:     -11.3      0.000      0.000
REMARK  Name = 71183216
REMARK  5 active torsions:
REMARK  status: ('A' for Active; 'I' for Inactive)
REMARK    1  A    between atoms: N_3  and  C_24
REMARK    2  A    between atoms: C_10  and  C_13
REMARK    3  A    between atoms: C_18  and  O_19
REMARK    4  A    between atoms: O_19  and  C_23
REMARK    5  A    between atoms: C_24  and  C_27
REMARK                            x       y       z     vdW  Elec       q    Type
REMARK                         _______ _______ _______ _____ _____    ______ ____
ROOT
ATOM      1  O   UNL     1      34.755 -16.625 -25.851  0.00  0.00    -0.473 OA
ATOM      2  O   UNL     1      35.575 -15.014 -22.358  0.00  0.00    -0.270 OA
ATOM      3  N   UNL     1      33.936 -14.640 -23.977  0.00  0.00    -0.259 N 
ATOM      4  C   UNL     1      32.930 -15.228 -24.858  0.00  0.00    +0.142 C 
ATOM      5  C   UNL     1      34.740 -16.895 -23.448  0.00  0.00    +0.087 C 
ATOM      6  C   UNL     1      33.571 -15.853 -26.092  0.00  0.00    +0.227 C 
ATOM      7  C   UNL     1      34.791 -15.433 -23.206  0.00  0.00    +0.253 C 
ATOM      8  C   UNL     1      34.688 -17.423 -24.744  0.00  0.00    +0.143 C 
ATOM      9  C   UNL     1      34.780 -17.757 -22.346  0.00  0.00    +0.008 C 
ATOM     10  C   UNL     1      34.758 -19.137 -22.546  0.00  0.00    +0.000 C 
ATOM     11  C   UNL     1      34.689 -18.804 -24.940  0.00  0.00    +0.037 C 
ATOM     12  C   UNL     1      34.713 -19.660 -23.839  0.00  0.00    +0.003 C 
ENDROOT
BRANCH  10  13
ATOM     13  C   UNL     1      34.790 -20.031 -21.408  0.00  0.00    +0.000 C 
ATOM     14  C   UNL     1      33.597 -20.491 -20.848  0.00  0.00    +0.003 C 
ATOM     15  C   UNL     1      36.013 -20.431 -20.870  0.00  0.00    +0.003 C 
ATOM     16  C   UNL     1      33.628 -21.351 -19.751  0.00  0.00    +0.037 C 
ATOM     17  C   UNL     1      36.044 -21.292 -19.773  0.00  0.00    +0.037 C 
ATOM     18  C   UNL     1      34.851 -21.751 -19.213  0.00  0.00    +0.147 C 
BRANCH  18  19
ATOM     19  O   UNL     1      34.881 -22.590 -18.141  0.00  0.00    -0.404 OA
BRANCH  19  23
ATOM     20  F   UNL     1      32.625 -22.735 -17.795  0.00  0.00    -0.133 F 
ATOM     21  F   UNL     1      33.960 -24.133 -16.775  0.00  0.00    -0.133 F 
ATOM     22  F   UNL     1      33.638 -24.341 -18.927  0.00  0.00    -0.133 F 
ATOM     23  C   UNL     1      33.765 -23.447 -17.924  0.00  0.00    +0.575 C 
ENDBRANCH  19  23
ENDBRANCH  18  19
ENDBRANCH  10  13
BRANCH   3  24
ATOM     24  C   UNL     1      33.994 -13.189 -23.899  0.00  0.00    +0.194 C 
BRANCH  24  27
ATOM     25  N   UNL     1      32.708 -11.354 -22.976  0.00  0.00    -0.217 NA
ATOM     26  N   UNL     1      32.690 -13.500 -21.880  0.00  0.00    -0.195 NA
ATOM     27  C   UNL     1      33.069 -12.645 -22.849  0.00  0.00    +0.028 C 
ATOM     28  C   UNL     1      31.877 -10.898 -22.015  0.00  0.00    +0.164 C 
ATOM     29  C   UNL     1      31.860 -12.979 -20.953  0.00  0.00    +0.107 C 
ATOM     30  C   UNL     1      31.416 -11.672 -20.970  0.00  0.00    +0.022 C 
ENDBRANCH  24  27
ENDBRANCH   3  24
TORSDOF 5
ENDMDL
MODEL 2
REMARK VINA RESULT:     -10.8      6.327     11.053
REMARK  Name = 71183216
REMARK  5 active torsions:
REMARK  status: ('A' for Active; 'I' for Inactive)
REMARK    1  A    between atoms: N_3  and  C_24
REMARK    2  A    between atoms: C_10  and  C_13
REMARK    3  A    between atoms: C_18  and  O_19
REMARK    4  A    between atoms: O_19  and  C_23
REMARK    5  A    between atoms: C_24  and  C_27
REMARK                            x       y       z     vdW  Elec       q    Type
REMARK                         _______ _______ _______ _____ _____    ______ ____
ROOT
ATOM      1  O   UNL     1      33.870 -24.417 -15.054  0.00  0.00    -0.473 OA
ATOM      2  O   UNL     1      37.153 -22.288 -15.457  0.00  0.00    -0.270 OA
ATOM      3  N   UNL     1      36.714 -24.563 -15.170  0.00  0.00    -0.259 N 
ATOM      4  C   UNL     1      35.936 -25.722 -15.598  0.00  0.00    +0.142 C 
ATOM      5  C   UNL     1      35.275 -23.132 -16.546  0.00  0.00    +0.087 C 
ATOM      6  C   UNL     1      34.527 -25.690 -15.017  0.00  0.00    +0.227 C 
ATOM      7  C   UNL     1      36.468 -23.284 -15.677  0.00  0.00    +0.253 C 
ATOM      8  C   UNL     1      34.050 -23.728 -16.221  0.00  0.00    +0.143 C 
ATOM      9  C   UNL     1      35.382 -22.344 -17.697  0.00  0.00    +0.008 C 
ATOM     10  C   UNL     1      34.270 -22.163 -18.518  0.00  0.00    +0.000 C 
ATOM     11  C   UNL     1      32.934 -23.527 -17.033  0.00  0.00    +0.037 C 
ATOM     12  C   UNL     1      33.048 -22.754 -18.188  0.00  0.00    +0.003 C 
ENDROOT
BRANCH  10  13
ATOM     13  C   UNL     1      34.379 -21.356 -19.715  0.00  0.00    +0.000 C 
ATOM     14  C   UNL     1      35.635 -21.064 -20.247  0.00  0.00    +0.003 C 
ATOM     15  C   UNL     1      33.228 -20.868 -20.334  0.00  0.00    +0.003 C 
ATOM     16  C   UNL     1      35.740 -20.285 -21.399  0.00  0.00    +0.037 C 
ATOM     17  C   UNL     1      33.334 -20.089 -21.486  0.00  0.00    +0.037 C 
ATOM     18  C   UNL     1      34.589 -19.797 -22.018  0.00  0.00    +0.147 C 
BRANCH  18  19
ATOM     19  O   UNL     1      34.692 -19.035 -23.142  0.00  0.00    -0.404 OA
BRANCH  19  23
ATOM     20  F   UNL     1      35.255 -17.082 -24.190  0.00  0.00    -0.133 F 
ATOM     21  F   UNL     1      36.720 -18.072 -22.906  0.00  0.00    -0.133 F 
ATOM     22  F   UNL     1      34.999 -17.081 -21.994  0.00  0.00    -0.133 F 
ATOM     23  C   UNL     1      35.404 -17.805 -23.059  0.00  0.00    +0.575 C 
ENDBRANCH  19  23
ENDBRANCH  18  19
ENDBRANCH  10  13
BRANCH   3  24
ATOM     24  C   UNL     1      37.788 -24.791 -14.216  0.00  0.00    +0.194 C 
BRANCH  24  27
ATOM     25  N   UNL     1      37.786 -23.232 -12.360  0.00  0.00    -0.217 NA
ATOM     26  N   UNL     1      36.650 -25.348 -12.149  0.00  0.00    -0.195 NA
ATOM     27  C   UNL     1      37.381 -24.433 -12.816  0.00  0.00    +0.028 C 
ATOM     28  C   UNL     1      37.403 -22.944 -11.098  0.00  0.00    +0.164 C 
ATOM     29  C   UNL     1      36.302 -24.994 -10.895  0.00  0.00    +0.107 C 
ATOM     30  C   UNL     1      36.653 -23.794 -10.311  0.00  0.00    +0.022 C 
ENDBRANCH  24  27
ENDBRANCH   3  24
TORSDOF 5
ENDMDL
MODEL 3
REMARK VINA RESULT:     -10.7      4.967      8.022
REMARK  Name = 71183216
REMARK  5 active torsions:
REMARK  status: ('A' for Active; 'I' for Inactive)
REMARK    1  A    between atoms: N_3  and  C_24
REMARK    2  A    between atoms: C_10  and  C_13
REMARK    3  A    between atoms: C_18  and  O_19
REMARK    4  A    between atoms: O_19  and  C_23
REMARK    5  A    between atoms: C_24  and  C_27
REMARK                            x       y       z     vdW  Elec       q    Type
REMARK                         _______ _______ _______ _____ _____    ______ ____
ROOT
ATOM      1  O   UNL     1      31.190  -9.515 -19.972  0.00  0.00    -0.473 OA
ATOM      2  O   UNL     1      31.340  -8.907 -23.855  0.00  0.00    -0.270 OA
ATOM      3  N   UNL     1      32.251  -7.819 -22.002  0.00  0.00    -0.259 N 
ATOM      4  C   UNL     1      32.984  -7.948 -20.746  0.00  0.00    +0.142 C 
ATOM      5  C   UNL     1      32.059 -10.261 -22.102  0.00  0.00    +0.087 C 
ATOM      6  C   UNL     1      32.078  -8.445 -19.624  0.00  0.00    +0.227 C 
ATOM      7  C   UNL     1      31.850  -8.937 -22.738  0.00  0.00    +0.253 C 
ATOM      8  C   UNL     1      31.758 -10.483 -20.752  0.00  0.00    +0.143 C 
ATOM      9  C   UNL     1      32.537 -11.314 -22.891  0.00  0.00    +0.008 C 
ATOM     10  C   UNL     1      32.719 -12.576 -22.325  0.00  0.00    +0.000 C 
ATOM     11  C   UNL     1      31.920 -11.751 -20.196  0.00  0.00    +0.037 C 
ATOM     12  C   UNL     1      32.412 -12.794 -20.980  0.00  0.00    +0.003 C 
ENDROOT
BRANCH  10  13
ATOM     13  C   UNL     1      33.222 -13.664 -23.135  0.00  0.00    +0.000 C 
ATOM     14  C   UNL     1      32.780 -13.818 -24.449  0.00  0.00    +0.003 C 
ATOM     15  C   UNL     1      34.147 -14.561 -22.600  0.00  0.00    +0.003 C 
ATOM     16  C   UNL     1      33.264 -14.869 -25.228  0.00  0.00    +0.037 C 
ATOM     17  C   UNL     1      34.631 -15.611 -23.380  0.00  0.00    +0.037 C 
ATOM     18  C   UNL     1      34.189 -15.766 -24.694  0.00  0.00    +0.147 C 
BRANCH  18  19
ATOM     19  O   UNL     1      34.660 -16.791 -25.454  0.00  0.00    -0.404 OA
BRANCH  19  23
ATOM     20  F   UNL     1      34.054 -18.555 -24.130  0.00  0.00    -0.133 F 
ATOM     21  F   UNL     1      34.611 -18.918 -26.211  0.00  0.00    -0.133 F 
ATOM     22  F   UNL     1      32.707 -17.939 -25.770  0.00  0.00    -0.133 F 
ATOM     23  C   UNL     1      33.994 -18.047 -25.379  0.00  0.00    +0.575 C 
ENDBRANCH  19  23
ENDBRANCH  18  19
ENDBRANCH  10  13
BRANCH   3  24
ATOM     24  C   UNL     1      31.982  -6.474 -22.486  0.00  0.00    +0.194 C 
BRANCH  24  27
ATOM     25  N   UNL     1      32.249  -5.418 -24.651  0.00  0.00    -0.217 NA
ATOM     26  N   UNL     1      34.122  -6.534 -23.623  0.00  0.00    -0.195 NA
ATOM     27  C   UNL     1      32.841  -6.118 -23.665  0.00  0.00    +0.028 C 
ATOM     28  C   UNL     1      33.050  -5.116 -25.695  0.00  0.00    +0.164 C 
ATOM     29  C   UNL     1      34.864  -6.198 -24.698  0.00  0.00    +0.107 C 
ATOM     30  C   UNL     1      34.377  -5.483 -25.774  0.00  0.00    +0.022 C 
ENDBRANCH  24  27
ENDBRANCH   3  24
TORSDOF 5
ENDMDL
MODEL 4
REMARK VINA RESULT:     -10.6      5.949      9.988
REMARK  Name = 71183216
REMARK  5 active torsions:
REMARK  status: ('A' for Active; 'I' for Inactive)
REMARK    1  A    between atoms: N_3  and  C_24
REMARK    2  A    between atoms: C_10  and  C_13
REMARK    3  A    between atoms: C_18  and  O_19
REMARK    4  A    between atoms: O_19  and  C_23
REMARK    5  A    between atoms: C_24  and  C_27
REMARK                            x       y       z     vdW  Elec       q    Type
REMARK                         _______ _______ _______ _____ _____    ______ ____
ROOT
ATOM      1  O   UNL     1      36.126 -23.886 -15.829  0.00  0.00    -0.473 OA
ATOM      2  O   UNL     1      32.693 -24.357 -17.691  0.00  0.00    -0.270 OA
ATOM      3  N   UNL     1      33.295 -23.792 -15.508  0.00  0.00    -0.259 N 
ATOM      4  C   UNL     1      34.125 -22.955 -14.646  0.00  0.00    +0.142 C 
ATOM      5  C   UNL     1      34.565 -22.993 -17.447  0.00  0.00    +0.087 C 
ATOM      6  C   UNL     1      35.556 -23.476 -14.579  0.00  0.00    +0.227 C 
ATOM      7  C   UNL     1      33.431 -23.776 -16.899  0.00  0.00    +0.253 C 
ATOM      8  C   UNL     1      35.842 -23.052 -16.874  0.00  0.00    +0.143 C 
ATOM      9  C   UNL     1      34.348 -22.208 -18.585  0.00  0.00    +0.008 C 
ATOM     10  C   UNL     1      35.403 -21.482 -19.137  0.00  0.00    +0.000 C 
ATOM     11  C   UNL     1      36.899 -22.342 -17.442  0.00  0.00    +0.037 C 
ATOM     12  C   UNL     1      36.676 -21.547 -18.566  0.00  0.00    +0.003 C 
ENDROOT
BRANCH  10  13
ATOM     13  C   UNL     1      35.180 -20.661 -20.308  0.00  0.00    +0.000 C 
ATOM     14  C   UNL     1      36.243 -19.968 -20.887  0.00  0.00    +0.003 C 
ATOM     15  C   UNL     1      33.901 -20.562 -20.855  0.00  0.00    +0.003 C 
ATOM     16  C   UNL     1      36.027 -19.176 -22.015  0.00  0.00    +0.037 C 
ATOM     17  C   UNL     1      33.685 -19.770 -21.983  0.00  0.00    +0.037 C 
ATOM     18  C   UNL     1      34.748 -19.076 -22.562  0.00  0.00    +0.147 C 
BRANCH  18  19
ATOM     19  O   UNL     1      34.537 -18.302 -23.662  0.00  0.00    -0.404 OA
BRANCH  19  23
ATOM     20  F   UNL     1      34.791 -20.157 -24.976  0.00  0.00    -0.133 F 
ATOM     21  F   UNL     1      34.642 -18.189 -25.914  0.00  0.00    -0.133 F 
ATOM     22  F   UNL     1      32.861 -19.079 -25.011  0.00  0.00    -0.133 F 
ATOM     23  C   UNL     1      34.199 -18.947 -24.885  0.00  0.00    +0.575 C 
ENDBRANCH  19  23
ENDBRANCH  18  19
ENDBRANCH  10  13
BRANCH   3  24
ATOM     24  C   UNL     1      32.289 -24.623 -14.868  0.00  0.00    +0.194 C 
BRANCH  24  27
ATOM     25  N   UNL     1      30.107 -25.105 -15.807  0.00  0.00    -0.217 NA
ATOM     26  N   UNL     1      30.566 -22.918 -14.903  0.00  0.00    -0.195 NA
ATOM     27  C   UNL     1      30.895 -24.187 -15.216  0.00  0.00    +0.028 C 
ATOM     28  C   UNL     1      28.862 -24.679 -16.106  0.00  0.00    +0.164 C 
ATOM     29  C   UNL     1      29.307 -22.560 -15.230  0.00  0.00    +0.107 C 
ATOM     30  C   UNL     1      28.402 -23.406 -15.839  0.00  0.00    +0.022 C 
ENDBRANCH  24  27
ENDBRANCH   3  24
TORSDOF 5
ENDMDL
MODEL 5
REMARK VINA RESULT:     -10.5      4.337      7.334
REMARK  Name = 71183216
REMARK  5 active torsions:
REMARK  status: ('A' for Active; 'I' for Inactive)
REMARK    1  A    between atoms: N_3  and  C_24
REMARK    2  A    between atoms: C_10  and  C_13
REMARK    3  A    between atoms: C_18  and  O_19
REMARK    4  A    between atoms: O_19  and  C_23
REMARK    5  A    between atoms: C_24  and  C_27
REMARK                            x       y       z     vdW  Elec       q    Type
REMARK                         _______ _______ _______ _____ _____    ______ ____
ROOT
ATOM      1  O   UNL     1      31.343  -9.168 -22.012  0.00  0.00    -0.473 OA
ATOM      2  O   UNL     1      34.064  -9.235 -24.852  0.00  0.00    -0.270 OA
ATOM      3  N   UNL     1      33.861  -8.104 -22.821  0.00  0.00    -0.259 N 
ATOM      4  C   UNL     1      33.567  -8.196 -21.393  0.00  0.00    +0.142 C 
ATOM      5  C   UNL     1      33.109 -10.422 -23.090  0.00  0.00    +0.087 C 
ATOM      6  C   UNL     1      32.066  -8.287 -21.141  0.00  0.00    +0.227 C 
ATOM      7  C   UNL     1      33.723  -9.203 -23.672  0.00  0.00    +0.253 C 
ATOM      8  C   UNL     1      31.979 -10.351 -22.265  0.00  0.00    +0.143 C 
ATOM      9  C   UNL     1      33.660 -11.667 -23.410  0.00  0.00    +0.008 C 
ATOM     10  C   UNL     1      33.087 -12.830 -22.897  0.00  0.00    +0.000 C 
ATOM     11  C   UNL     1      31.396 -11.518 -21.772  0.00  0.00    +0.037 C 
ATOM     12  C   UNL     1      31.958 -12.757 -22.079  0.00  0.00    +0.003 C 
ENDROOT
BRANCH  10  13
ATOM     13  C   UNL     1      33.661 -14.120 -23.218  0.00  0.00    +0.000 C 
ATOM     14  C   UNL     1      34.481 -14.768 -22.295  0.00  0.00    +0.003 C 
ATOM     15  C   UNL     1      33.395 -14.712 -24.453  0.00  0.00    +0.003 C 
ATOM     16  C   UNL     1      35.035 -16.010 -22.606  0.00  0.00    +0.037 C 
ATOM     17  C   UNL     1      33.950 -15.954 -24.763  0.00  0.00    +0.037 C 
ATOM     18  C   UNL     1      34.770 -16.603 -23.840  0.00  0.00    +0.147 C 
BRANCH  18  19
ATOM     19  O   UNL     1      35.312 -17.814 -24.144  0.00  0.00    -0.404 OA
BRANCH  19  23
ATOM     20  F   UNL     1      34.305 -19.078 -22.524  0.00  0.00    -0.133 F 
ATOM     21  F   UNL     1      35.274 -20.070 -24.213  0.00  0.00    -0.133 F 
ATOM     22  F   UNL     1      33.396 -19.000 -24.538  0.00  0.00    -0.133 F 
ATOM     23  C   UNL     1      34.556 -18.984 -23.848  0.00  0.00    +0.575 C 
ENDBRANCH  19  23
ENDBRANCH  18  19
ENDBRANCH  10  13
BRANCH   3  24
ATOM     24  C   UNL     1      34.342  -6.827 -23.325  0.00  0.00    +0.194 C 
BRANCH  24  27
ATOM     25  N   UNL     1      33.069  -5.495 -24.900  0.00  0.00    -0.217 NA
ATOM     26  N   UNL     1      32.460  -5.500 -22.568  0.00  0.00    -0.195 NA
ATOM     27  C   UNL     1      33.216  -5.878 -23.617  0.00  0.00    +0.028 C 
ATOM     28  C   UNL     1      32.048  -4.642 -25.126  0.00  0.00    +0.164 C 
ATOM     29  C   UNL     1      31.458  -4.648 -22.865  0.00  0.00    +0.107 C 
ATOM     30  C   UNL     1      31.202  -4.180 -24.139  0.00  0.00    +0.022 C 
ENDBRANCH  24  27
ENDBRANCH   3  24
TORSDOF 5
ENDMDL
MODEL 6
REMARK VINA RESULT:      -9.8      4.110      6.799
REMARK  Name = 71183216
REMARK  5 active torsions:
REMARK  status: ('A' for Active; 'I' for Inactive)
REMARK    1  A    between atoms: N_3  and  C_24
REMARK    2  A    between atoms: C_10  and  C_13
REMARK    3  A    between atoms: C_18  and  O_19
REMARK    4  A    between atoms: O_19  and  C_23
REMARK    5  A    between atoms: C_24  and  C_27
REMARK                            x       y       z     vdW  Elec       q    Type
REMARK                         _______ _______ _______ _____ _____    ______ ____
ROOT
ATOM      1  O   UNL     1      33.272 -21.309 -20.908  0.00  0.00    -0.473 OA
ATOM      2  O   UNL     1      37.195 -21.450 -20.666  0.00  0.00    -0.270 OA
ATOM      3  N   UNL     1      35.648 -19.738 -21.015  0.00  0.00    -0.259 N 
ATOM      4  C   UNL     1      34.408 -19.102 -20.578  0.00  0.00    +0.142 C 
ATOM      5  C   UNL     1      35.200 -21.592 -19.474  0.00  0.00    +0.087 C 
ATOM      6  C   UNL     1      33.188 -19.885 -21.049  0.00  0.00    +0.227 C 
ATOM      7  C   UNL     1      36.109 -20.924 -20.437  0.00  0.00    +0.253 C 
ATOM      8  C   UNL     1      33.829 -21.723 -19.730  0.00  0.00    +0.143 C 
ATOM      9  C   UNL     1      35.743 -22.129 -18.303  0.00  0.00    +0.008 C 
ATOM     10  C   UNL     1      34.915 -22.785 -17.392  0.00  0.00    +0.000 C 
ATOM     11  C   UNL     1      33.008 -22.399 -18.828  0.00  0.00    +0.037 C 
ATOM     12  C   UNL     1      33.550 -22.919 -17.653  0.00  0.00    +0.003 C 
ENDROOT
BRANCH  10  13
ATOM     13  C   UNL     1      35.473 -23.334 -16.175  0.00  0.00    +0.000 C 
ATOM     14  C   UNL     1      36.832 -23.184 -15.900  0.00  0.00    +0.003 C 
ATOM     15  C   UNL     1      34.651 -24.015 -15.277  0.00  0.00    +0.003 C 
ATOM     16  C   UNL     1      37.369 -23.715 -14.727  0.00  0.00    +0.037 C 
ATOM     17  C   UNL     1      35.188 -24.545 -14.104  0.00  0.00    +0.037 C 
ATOM     18  C   UNL     1      36.547 -24.396 -13.829  0.00  0.00    +0.147 C 
BRANCH  18  19
ATOM     19  O   UNL     1      37.072 -24.915 -12.686  0.00  0.00    -0.404 OA
BRANCH  19  23
ATOM     20  F   UNL     1      37.264 -26.913 -13.782  0.00  0.00    -0.133 F 
ATOM     21  F   UNL     1      37.513 -26.851 -11.612  0.00  0.00    -0.133 F 
ATOM     22  F   UNL     1      39.072 -26.006 -12.889  0.00  0.00    -0.133 F 
ATOM     23  C   UNL     1      37.738 -26.171 -12.759  0.00  0.00    +0.575 C 
ENDBRANCH  19  23
ENDBRANCH  18  19
ENDBRANCH  10  13
BRANCH   3  24
ATOM     24  C   UNL     1      36.413 -19.071 -22.057  0.00  0.00    +0.194 C 
BRANCH  24  27
ATOM     25  N   UNL     1      34.957 -19.565 -23.931  0.00  0.00    -0.217 NA
ATOM     26  N   UNL     1      35.420 -17.273 -23.344  0.00  0.00    -0.195 NA
ATOM     27  C   UNL     1      35.539 -18.606 -23.185  0.00  0.00    +0.028 C 
ATOM     28  C   UNL     1      34.179 -19.111 -24.936  0.00  0.00    +0.164 C 
ATOM     29  C   UNL     1      34.628 -16.890 -24.366  0.00  0.00    +0.107 C 
ATOM     30  C   UNL     1      33.975 -17.773 -25.204  0.00  0.00    +0.022 C 
ENDBRANCH  24  27
ENDBRANCH   3  24
TORSDOF 5
ENDMDL
MODEL 7
REMARK VINA RESULT:      -9.4      5.482      9.450
REMARK  Name = 71183216
REMARK  5 active torsions:
REMARK  status: ('A' for Active; 'I' for Inactive)
REMARK    1  A    between atoms: N_3  and  C_24
REMARK    2  A    between atoms: C_10  and  C_13
REMARK    3  A    between atoms: C_18  and  O_19
REMARK    4  A    between atoms: O_19  and  C_23
REMARK    5  A    between atoms: C_24  and  C_27
REMARK                            x       y       z     vdW  Elec       q    Type
REMARK                         _______ _______ _______ _____ _____    ______ ____
ROOT
ATOM      1  O   UNL     1      36.948 -22.799 -17.790  0.00  0.00    -0.473 OA
ATOM      2  O   UNL     1      33.562 -23.433 -19.688  0.00  0.00    -0.270 OA
ATOM      3  N   UNL     1      34.144 -23.179 -17.442  0.00  0.00    -0.259 N 
ATOM      4  C   UNL     1      34.872 -22.395 -16.449  0.00  0.00    +0.142 C 
ATOM      5  C   UNL     1      35.225 -21.874 -19.215  0.00  0.00    +0.087 C 
ATOM      6  C   UNL     1      36.365 -22.703 -16.484  0.00  0.00    +0.227 C 
ATOM      7  C   UNL     1      34.233 -22.899 -18.808  0.00  0.00    +0.253 C 
ATOM      8  C   UNL     1      36.515 -21.845 -18.668  0.00  0.00    +0.143 C 
ATOM      9  C   UNL     1      34.863 -20.942 -20.193  0.00  0.00    +0.008 C 
ATOM     10  C   UNL     1      35.785 -19.983 -20.611  0.00  0.00    +0.000 C 
ATOM     11  C   UNL     1      37.441 -20.899 -19.106  0.00  0.00    +0.037 C 
ATOM     12  C   UNL     1      37.071 -19.961 -20.069  0.00  0.00    +0.003 C 
ENDROOT
BRANCH  10  13
ATOM     13  C   UNL     1      35.410 -19.011 -21.616  0.00  0.00    +0.000 C 
ATOM     14  C   UNL     1      35.582 -17.649 -21.368  0.00  0.00    +0.003 C 
ATOM     15  C   UNL     1      34.874 -19.437 -22.831  0.00  0.00    +0.003 C 
ATOM     16  C   UNL     1      35.218 -16.713 -22.336  0.00  0.00    +0.037 C 
ATOM     17  C   UNL     1      34.511 -18.500 -23.799  0.00  0.00    +0.037 C 
ATOM     18  C   UNL     1      34.682 -17.138 -23.551  0.00  0.00    +0.147 C 
BRANCH  18  19
ATOM     19  O   UNL     1      34.327 -16.225 -24.495  0.00  0.00    -0.404 OA
BRANCH  19  23
ATOM     20  F   UNL     1      32.645 -17.317 -25.595  0.00  0.00    -0.133 F 
ATOM     21  F   UNL     1      34.713 -17.605 -26.239  0.00  0.00    -0.133 F 
ATOM     22  F   UNL     1      33.726 -15.695 -26.638  0.00  0.00    -0.133 F 
ATOM     23  C   UNL     1      33.837 -16.701 -25.744  0.00  0.00    +0.575 C 
ENDBRANCH  19  23
ENDBRANCH  18  19
ENDBRANCH  10  13
BRANCH   3  24
ATOM     24  C   UNL     1      33.288 -24.249 -16.955  0.00  0.00    +0.194 C 
BRANCH  24  27
ATOM     25  N   UNL     1      32.069 -23.794 -14.910  0.00  0.00    -0.217 NA
ATOM     26  N   UNL     1      31.096 -23.218 -17.039  0.00  0.00    -0.195 NA
ATOM     27  C   UNL     1      32.070 -23.719 -16.255  0.00  0.00    +0.028 C 
ATOM     28  C   UNL     1      30.959 -23.310 -14.314  0.00  0.00    +0.164 C 
ATOM     29  C   UNL     1      30.017 -22.752 -16.378  0.00  0.00    +0.107 C 
ATOM     30  C   UNL     1      29.892 -22.771 -15.003  0.00  0.00    +0.022 C 
ENDBRANCH  24  27
ENDBRANCH   3  24
TORSDOF 5
ENDMDL
MODEL 8
REMARK VINA RESULT:      -9.1      5.826      9.640
REMARK  Name = 71183216
REMARK  5 active torsions:
REMARK  status: ('A' for Active; 'I' for Inactive)
REMARK    1  A    between atoms: N_3  and  C_24
REMARK    2  A    between atoms: C_10  and  C_13
REMARK    3  A    between atoms: C_18  and  O_19
REMARK    4  A    between atoms: O_19  and  C_23
REMARK    5  A    between atoms: C_24  and  C_27
REMARK                            x       y       z     vdW  Elec       q    Type
REMARK                         _______ _______ _______ _____ _____    ______ ____
ROOT
ATOM      1  O   UNL     1      34.010 -17.936 -24.088  0.00  0.00    -0.473 OA
ATOM      2  O   UNL     1      34.750 -16.222 -20.625  0.00  0.00    -0.270 OA
ATOM      3  N   UNL     1      35.964 -17.632 -22.034  0.00  0.00    -0.259 N 
ATOM      4  C   UNL     1      36.416 -17.907 -23.395  0.00  0.00    +0.142 C 
ATOM      5  C   UNL     1      34.495 -15.877 -22.914  0.00  0.00    +0.087 C 
ATOM      6  C   UNL     1      35.306 -18.531 -24.234  0.00  0.00    +0.227 C 
ATOM      7  C   UNL     1      35.079 -16.588 -21.751  0.00  0.00    +0.253 C 
ATOM      8  C   UNL     1      34.024 -16.570 -24.037  0.00  0.00    +0.143 C 
ATOM      9  C   UNL     1      34.388 -14.483 -22.861  0.00  0.00    +0.008 C 
ATOM     10  C   UNL     1      33.819 -13.791 -23.931  0.00  0.00    +0.000 C 
ATOM     11  C   UNL     1      33.436 -15.876 -25.094  0.00  0.00    +0.037 C 
ATOM     12  C   UNL     1      33.345 -14.486 -25.045  0.00  0.00    +0.003 C 
ENDROOT
BRANCH  10  13
ATOM     13  C   UNL     1      33.716 -12.349 -23.883  0.00  0.00    +0.000 C 
ATOM     14  C   UNL     1      32.762 -11.744 -23.064  0.00  0.00    +0.003 C 
ATOM     15  C   UNL     1      34.567 -11.563 -24.660  0.00  0.00    +0.003 C 
ATOM     16  C   UNL     1      32.662 -10.353 -23.020  0.00  0.00    +0.037 C 
ATOM     17  C   UNL     1      34.467 -10.172 -24.616  0.00  0.00    +0.037 C 
ATOM     18  C   UNL     1      33.514  -9.568 -23.796  0.00  0.00    +0.147 C 
BRANCH  18  19
ATOM     19  O   UNL     1      33.414  -8.211 -23.754  0.00  0.00    -0.404 OA
BRANCH  19  23
ATOM     20  F   UNL     1      33.768  -8.129 -21.496  0.00  0.00    -0.133 F 
ATOM     21  F   UNL     1      33.537  -6.266 -22.615  0.00  0.00    -0.133 F 
ATOM     22  F   UNL     1      35.368  -7.435 -22.854  0.00  0.00    -0.133 F 
ATOM     23  C   UNL     1      34.033  -7.523 -22.673  0.00  0.00    +0.575 C 
ENDBRANCH  19  23
ENDBRANCH  18  19
ENDBRANCH  10  13
BRANCH   3  24
ATOM     24  C   UNL     1      36.498 -18.466 -20.969  0.00  0.00    +0.194 C 
BRANCH  24  27
ATOM     25  N   UNL     1      34.312 -19.510 -21.057  0.00  0.00    -0.217 NA
ATOM     26  N   UNL     1      36.145 -20.655 -19.989  0.00  0.00    -0.195 NA
ATOM     27  C   UNL     1      35.591 -19.620 -20.651  0.00  0.00    +0.028 C 
ATOM     28  C   UNL     1      33.526 -20.564 -20.754  0.00  0.00    +0.164 C 
ATOM     29  C   UNL     1      35.302 -21.673 -19.720  0.00  0.00    +0.107 C 
ATOM     30  C   UNL     1      33.970 -21.683 -20.081  0.00  0.00    +0.022 C 
ENDBRANCH  24  27
ENDBRANCH   3  24
TORSDOF 5
ENDMDL
MODEL 9
REMARK VINA RESULT:      -9.1      9.321     14.056
REMARK  Name = 71183216
REMARK  5 active torsions:
REMARK  status: ('A' for Active; 'I' for Inactive)
REMARK    1  A    between atoms: N_3  and  C_24
REMARK    2  A    between atoms: C_10  and  C_13
REMARK    3  A    between atoms: C_18  and  O_19
REMARK    4  A    between atoms: O_19  and  C_23
REMARK    5  A    between atoms: C_24  and  C_27
REMARK                            x       y       z     vdW  Elec       q    Type
REMARK                         _______ _______ _______ _____ _____    ______ ____
ROOT
ATOM      1  O   UNL     1      32.488  -8.970 -20.840  0.00  0.00    -0.473 OA
ATOM      2  O   UNL     1      35.060  -9.839 -23.687  0.00  0.00    -0.270 OA
ATOM      3  N   UNL     1      33.109 -10.846 -22.895  0.00  0.00    -0.259 N 
ATOM      4  C   UNL     1      31.712 -10.670 -22.507  0.00  0.00    +0.142 C 
ATOM      5  C   UNL     1      33.342  -8.409 -23.033  0.00  0.00    +0.087 C 
ATOM      6  C   UNL     1      31.596 -10.057 -21.116  0.00  0.00    +0.227 C 
ATOM      7  C   UNL     1      33.919  -9.760 -23.238  0.00  0.00    +0.253 C 
ATOM      8  C   UNL     1      32.628  -8.085 -21.872  0.00  0.00    +0.143 C 
ATOM      9  C   UNL     1      33.553  -7.435 -24.015  0.00  0.00    +0.008 C 
ATOM     10  C   UNL     1      33.043  -6.149 -23.836  0.00  0.00    +0.000 C 
ATOM     11  C   UNL     1      32.139  -6.792 -21.687  0.00  0.00    +0.037 C 
ATOM     12  C   UNL     1      32.337  -5.828 -22.675  0.00  0.00    +0.003 C 
ENDROOT
BRANCH  10  13
ATOM     13  C   UNL     1      33.252  -5.142 -24.854  0.00  0.00    +0.000 C 
ATOM     14  C   UNL     1      32.349  -4.087 -24.987  0.00  0.00    +0.003 C 
ATOM     15  C   UNL     1      34.354  -5.229 -25.705  0.00  0.00    +0.003 C 
ATOM     16  C   UNL     1      32.550  -3.117 -25.970  0.00  0.00    +0.037 C 
ATOM     17  C   UNL     1      34.554  -4.260 -26.688  0.00  0.00    +0.037 C 
ATOM     18  C   UNL     1      33.652  -3.204 -26.821  0.00  0.00    +0.147 C 
BRANCH  18  19
ATOM     19  O   UNL     1      33.847  -2.259 -27.781  0.00  0.00    -0.404 OA
BRANCH  19  23
ATOM     20  F   UNL     1      33.320  -3.784 -29.402  0.00  0.00    -0.133 F 
ATOM     21  F   UNL     1      33.994  -1.789 -29.984  0.00  0.00    -0.133 F 
ATOM     22  F   UNL     1      32.004  -2.032 -29.115  0.00  0.00    -0.133 F 
ATOM     23  C   UNL     1      33.277  -2.477 -29.067  0.00  0.00    +0.575 C 
ENDBRANCH  19  23
ENDBRANCH  18  19
ENDBRANCH  10  13
BRANCH   3  24
ATOM     24  C   UNL     1      33.624 -12.205 -22.947  0.00  0.00    +0.194 C 
BRANCH  24  27
ATOM     25  N   UNL     1      33.624 -11.967 -25.360  0.00  0.00    -0.217 NA
ATOM     26  N   UNL     1      33.230 -14.128 -24.369  0.00  0.00    -0.195 NA
ATOM     27  C   UNL     1      33.483 -12.806 -24.316  0.00  0.00    +0.028 C 
ATOM     28  C   UNL     1      33.491 -12.541 -26.574  0.00  0.00    +0.164 C 
ATOM     29  C   UNL     1      33.110 -14.635 -25.613  0.00  0.00    +0.107 C 
ATOM     30  C   UNL     1      33.232 -13.882 -26.763  0.00  0.00    +0.022 C 
ENDBRANCH  24  27
ENDBRANCH   3  24
TORSDOF 5
ENDMDL
