MODEL 1
REMARK VINA RESULT:     -11.8      0.000      0.000
REMARK  Name = 42642648
REMARK  5 active torsions:
REMARK  status: ('A' for Active; 'I' for Inactive)
REMARK    1  A    between atoms: N_1  and  C_22
REMARK    2  A    between atoms: C_4  and  N_15
REMARK    3  A    between atoms: C_25  and  O_28
REMARK    4  A    between atoms: O_28  and  C_29
REMARK    5  A    between atoms: C_29  and  C_32
REMARK                            x       y       z     vdW  Elec       q    Type
REMARK                         _______ _______ _______ _____ _____    ______ ____
ROOT
ATOM      1  N   UNL     1      33.688 -22.978 -18.224  0.00  0.00    -0.301 N 
ATOM      2  N   UNL     1      30.552 -23.368 -15.552  0.00  0.00    -0.248 NA
ATOM      3  N   UNL     1      31.441 -22.584 -17.650  0.00  0.00    -0.233 NA
ATOM      4  C   UNL     1      34.250 -25.002 -14.539  0.00  0.00    +0.048 C 
ATOM      5  C   UNL     1      32.847 -23.791 -16.099  0.00  0.00    +0.117 C 
ATOM      6  C   UNL     1      34.094 -24.344 -15.754  0.00  0.00    +0.001 C 
ATOM      7  C   UNL     1      31.747 -23.892 -15.232  0.00  0.00    +0.067 C 
ATOM      8  C   UNL     1      32.625 -23.120 -17.298  0.00  0.00    +0.115 C 
ATOM      9  C   UNL     1      33.168 -25.108 -13.672  0.00  0.00    +0.016 C 
ATOM     10  C   UNL     1      31.933 -24.556 -14.021  0.00  0.00    +0.016 C 
ATOM     11  C   UNL     1      30.463 -22.742 -16.742  0.00  0.00    +0.251 C 
ATOM     12  H   UNL     1      34.341 -23.715 -18.195  0.00  0.00    +0.153 HD
ENDROOT
BRANCH   4  15
ATOM     13  O   UNL     1      37.528 -25.838 -13.183  0.00  0.00    -0.448 OA
ATOM     14  N   UNL     1      36.318 -24.001 -12.568  0.00  0.00    -0.222 NA
ATOM     15  N   UNL     1      35.496 -25.558 -14.188  0.00  0.00    -0.269 N 
ATOM     16  C   UNL     1      37.533 -24.038 -11.739  0.00  0.00    +0.151 C 
ATOM     17  C   UNL     1      38.431 -25.043 -12.427  0.00  0.00    +0.233 C 
ATOM     18  C   UNL     1      36.402 -25.075 -13.292  0.00  0.00    +0.284 C 
ATOM     19  C   UNL     1      38.147 -22.655 -11.640  0.00  0.00    +0.030 C 
ATOM     20  H   UNL     1      35.742 -26.396 -14.644  0.00  0.00    +0.157 HD
ENDBRANCH   4  15
BRANCH   1  22
ATOM     21 CL   UNL     1      37.262 -20.190 -20.593  0.00  0.00    -0.079 Cl
ATOM     22  C   UNL     1      33.990 -21.990 -19.175  0.00  0.00    +0.050 C 
ATOM     23  C   UNL     1      35.315 -21.616 -19.395  0.00  0.00    +0.029 C 
ATOM     24  C   UNL     1      32.964 -21.384 -19.899  0.00  0.00    +0.018 C 
ATOM     25  C   UNL     1      34.588 -20.028 -21.065  0.00  0.00    +0.150 C 
ATOM     26  C   UNL     1      35.615 -20.635 -20.341  0.00  0.00    +0.093 C 
ATOM     27  C   UNL     1      33.263 -20.403 -20.844  0.00  0.00    +0.039 C 
BRANCH  25  28
ATOM     28  O   UNL     1      34.851 -19.066 -21.995  0.00  0.00    -0.468 OA
BRANCH  28  29
ATOM     29  C   UNL     1      34.924 -19.486 -23.357  0.00  0.00    +0.257 C 
BRANCH  29  32
ATOM     30  S   UNL     1      34.937 -16.768 -23.917  0.00  0.00    -0.067 S 
ATOM     31  N   UNL     1      33.622 -18.541 -25.261  0.00  0.00    -0.237 NA
ATOM     32  C   UNL     1      34.431 -18.376 -24.238  0.00  0.00    +0.132 C 
ATOM     33  C   UNL     1      34.004 -16.234 -25.252  0.00  0.00    +0.057 C 
ATOM     34  C   UNL     1      33.378 -17.312 -25.841  0.00  0.00    +0.106 C 
ENDBRANCH  29  32
ENDBRANCH  28  29
ENDBRANCH  25  28
ENDBRANCH   1  22
TORSDOF 5
ENDMDL
MODEL 2
REMARK VINA RESULT:     -11.7      5.996     10.297
REMARK  Name = 42642648
REMARK  5 active torsions:
REMARK  status: ('A' for Active; 'I' for Inactive)
REMARK    1  A    between atoms: N_1  and  C_22
REMARK    2  A    between atoms: C_4  and  N_15
REMARK    3  A    between atoms: C_25  and  O_28
REMARK    4  A    between atoms: O_28  and  C_29
REMARK    5  A    between atoms: C_29  and  C_32
REMARK                            x       y       z     vdW  Elec       q    Type
REMARK                         _______ _______ _______ _____ _____    ______ ____
ROOT
ATOM      1  N   UNL     1      34.298 -14.712 -23.218  0.00  0.00    -0.301 N 
ATOM      2  N   UNL     1      33.520 -17.581 -26.099  0.00  0.00    -0.248 NA
ATOM      3  N   UNL     1      33.359 -15.317 -25.289  0.00  0.00    -0.233 NA
ATOM      4  C   UNL     1      35.625 -18.705 -22.681  0.00  0.00    +0.048 C 
ATOM      5  C   UNL     1      34.491 -17.006 -23.983  0.00  0.00    +0.117 C 
ATOM      6  C   UNL     1      35.202 -17.389 -22.832  0.00  0.00    +0.001 C 
ATOM      7  C   UNL     1      34.198 -17.936 -24.994  0.00  0.00    +0.067 C 
ATOM      8  C   UNL     1      34.040 -15.707 -24.195  0.00  0.00    +0.115 C 
ATOM      9  C   UNL     1      35.340 -19.635 -23.674  0.00  0.00    +0.016 C 
ATOM     10  C   UNL     1      34.633 -19.248 -24.816  0.00  0.00    +0.016 C 
ATOM     11  C   UNL     1      33.137 -16.291 -26.187  0.00  0.00    +0.251 C 
ATOM     12  H   UNL     1      35.129 -14.860 -22.712  0.00  0.00    +0.153 HD
ENDROOT
BRANCH   4  15
ATOM     13  O   UNL     1      36.956 -20.266 -19.669  0.00  0.00    -0.448 OA
ATOM     14  N   UNL     1      35.155 -21.055 -20.831  0.00  0.00    -0.222 NA
ATOM     15  N   UNL     1      36.337 -19.095 -21.529  0.00  0.00    -0.269 N 
ATOM     16  C   UNL     1      35.437 -22.001 -19.740  0.00  0.00    +0.151 C 
ATOM     17  C   UNL     1      36.383 -21.254 -18.824  0.00  0.00    +0.233 C 
ATOM     18  C   UNL     1      36.093 -20.164 -20.721  0.00  0.00    +0.284 C 
ATOM     19  C   UNL     1      34.149 -22.420 -19.058  0.00  0.00    +0.030 C 
ATOM     20  H   UNL     1      37.102 -18.527 -21.279  0.00  0.00    +0.157 HD
ENDBRANCH   4  15
BRANCH   1  22
ATOM     21 CL   UNL     1      33.414  -9.731 -23.967  0.00  0.00    -0.079 Cl
ATOM     22  C   UNL     1      33.598 -13.557 -22.835  0.00  0.00    +0.050 C 
ATOM     23  C   UNL     1      33.818 -12.354 -23.504  0.00  0.00    +0.029 C 
ATOM     24  C   UNL     1      32.683 -13.614 -21.785  0.00  0.00    +0.018 C 
ATOM     25  C   UNL     1      32.206 -11.263 -22.072  0.00  0.00    +0.150 C 
ATOM     26  C   UNL     1      33.122 -11.207 -23.123  0.00  0.00    +0.093 C 
ATOM     27  C   UNL     1      31.987 -12.467 -21.403  0.00  0.00    +0.039 C 
BRANCH  25  28
ATOM     28  O   UNL     1      31.512 -10.158 -21.678  0.00  0.00    -0.468 OA
BRANCH  28  29
ATOM     29  C   UNL     1      31.903  -9.554 -20.447  0.00  0.00    +0.257 C 
BRANCH  29  32
ATOM     30  S   UNL     1      31.607  -7.385 -22.152  0.00  0.00    -0.067 S 
ATOM     31  N   UNL     1      32.636  -7.266 -19.784  0.00  0.00    -0.237 NA
ATOM     32  C   UNL     1      32.101  -8.082 -20.664  0.00  0.00    +0.132 C 
ATOM     33  C   UNL     1      32.146  -5.859 -21.588  0.00  0.00    +0.057 C 
ATOM     34  C   UNL     1      32.662  -5.991 -20.315  0.00  0.00    +0.106 C 
ENDBRANCH  29  32
ENDBRANCH  28  29
ENDBRANCH  25  28
ENDBRANCH   1  22
TORSDOF 5
ENDMDL
MODEL 3
REMARK VINA RESULT:     -11.6      1.672      2.191
REMARK  Name = 42642648
REMARK  5 active torsions:
REMARK  status: ('A' for Active; 'I' for Inactive)
REMARK    1  A    between atoms: N_1  and  C_22
REMARK    2  A    between atoms: C_4  and  N_15
REMARK    3  A    between atoms: C_25  and  O_28
REMARK    4  A    between atoms: O_28  and  C_29
REMARK    5  A    between atoms: C_29  and  C_32
REMARK                            x       y       z     vdW  Elec       q    Type
REMARK                         _______ _______ _______ _____ _____    ______ ____
ROOT
ATOM      1  N   UNL     1      33.882 -23.118 -17.497  0.00  0.00    -0.301 N 
ATOM      2  N   UNL     1      30.212 -23.461 -15.614  0.00  0.00    -0.248 NA
ATOM      3  N   UNL     1      31.535 -22.961 -17.565  0.00  0.00    -0.233 NA
ATOM      4  C   UNL     1      33.661 -24.311 -13.433  0.00  0.00    +0.048 C 
ATOM      5  C   UNL     1      32.601 -23.635 -15.503  0.00  0.00    +0.117 C 
ATOM      6  C   UNL     1      33.763 -23.923 -14.764  0.00  0.00    +0.001 C 
ATOM      7  C   UNL     1      31.329 -23.733 -14.917  0.00  0.00    +0.067 C 
ATOM      8  C   UNL     1      32.634 -23.241 -16.837  0.00  0.00    +0.115 C 
ATOM      9  C   UNL     1      32.407 -24.412 -12.841  0.00  0.00    +0.016 C 
ATOM     10  C   UNL     1      31.257 -24.124 -13.582  0.00  0.00    +0.016 C 
ATOM     11  C   UNL     1      30.376 -23.089 -16.900  0.00  0.00    +0.251 C 
ATOM     12  H   UNL     1      34.573 -23.731 -17.156  0.00  0.00    +0.153 HD
ENDROOT
BRANCH   4  15
ATOM     13  O   UNL     1      36.934 -25.291 -12.165  0.00  0.00    -0.448 OA
ATOM     14  N   UNL     1      36.314 -25.438 -14.359  0.00  0.00    -0.222 NA
ATOM     15  N   UNL     1      34.821 -24.601 -12.687  0.00  0.00    -0.269 N 
ATOM     16  C   UNL     1      37.727 -25.837 -14.262  0.00  0.00    +0.151 C 
ATOM     17  C   UNL     1      37.959 -26.058 -12.783  0.00  0.00    +0.233 C 
ATOM     18  C   UNL     1      35.999 -25.109 -13.142  0.00  0.00    +0.284 C 
ATOM     19  C   UNL     1      37.983 -27.076 -15.099  0.00  0.00    +0.030 C 
ATOM     20  H   UNL     1      34.774 -24.413 -11.721  0.00  0.00    +0.157 HD
ENDBRANCH   4  15
BRANCH   1  22
ATOM     21 CL   UNL     1      32.668 -20.091 -21.437  0.00  0.00    -0.079 Cl
ATOM     22  C   UNL     1      34.324 -22.292 -18.543  0.00  0.00    +0.050 C 
ATOM     23  C   UNL     1      33.397 -21.670 -19.378  0.00  0.00    +0.029 C 
ATOM     24  C   UNL     1      35.689 -22.095 -18.746  0.00  0.00    +0.018 C 
ATOM     25  C   UNL     1      35.203 -20.651 -20.620  0.00  0.00    +0.150 C 
ATOM     26  C   UNL     1      33.836 -20.848 -20.417  0.00  0.00    +0.093 C 
ATOM     27  C   UNL     1      36.128 -21.274 -19.784  0.00  0.00    +0.039 C 
BRANCH  25  28
ATOM     28  O   UNL     1      35.660 -19.854 -21.627  0.00  0.00    -0.468 OA
BRANCH  28  29
ATOM     29  C   UNL     1      35.941 -18.494 -21.299  0.00  0.00    +0.257 C 
BRANCH  29  32
ATOM     30  S   UNL     1      34.872 -18.327 -23.855  0.00  0.00    -0.067 S 
ATOM     31  N   UNL     1      35.387 -16.298 -22.339  0.00  0.00    -0.237 NA
ATOM     32  C   UNL     1      35.435 -17.610 -22.401  0.00  0.00    +0.132 C 
ATOM     33  C   UNL     1      34.531 -16.762 -24.466  0.00  0.00    +0.057 C 
ATOM     34  C   UNL     1      34.869 -15.813 -23.524  0.00  0.00    +0.106 C 
ENDBRANCH  29  32
ENDBRANCH  28  29
ENDBRANCH  25  28
ENDBRANCH   1  22
TORSDOF 5
ENDMDL
MODEL 4
REMARK VINA RESULT:     -11.3      6.103     10.643
REMARK  Name = 42642648
REMARK  5 active torsions:
REMARK  status: ('A' for Active; 'I' for Inactive)
REMARK    1  A    between atoms: N_1  and  C_22
REMARK    2  A    between atoms: C_4  and  N_15
REMARK    3  A    between atoms: C_25  and  O_28
REMARK    4  A    between atoms: O_28  and  C_29
REMARK    5  A    between atoms: C_29  and  C_32
REMARK                            x       y       z     vdW  Elec       q    Type
REMARK                         _______ _______ _______ _____ _____    ______ ____
ROOT
ATOM      1  N   UNL     1      34.377 -14.279 -23.635  0.00  0.00    -0.301 N 
ATOM      2  N   UNL     1      33.286 -17.359 -26.175  0.00  0.00    -0.248 NA
ATOM      3  N   UNL     1      33.277 -15.025 -25.577  0.00  0.00    -0.233 NA
ATOM      4  C   UNL     1      35.562 -18.265 -22.803  0.00  0.00    +0.048 C 
ATOM      5  C   UNL     1      34.419 -16.640 -24.188  0.00  0.00    +0.117 C 
ATOM      6  C   UNL     1      35.187 -16.949 -23.052  0.00  0.00    +0.001 C 
ATOM      7  C   UNL     1      34.020 -17.644 -25.085  0.00  0.00    +0.067 C 
ATOM      8  C   UNL     1      34.012 -15.345 -24.494  0.00  0.00    +0.115 C 
ATOM      9  C   UNL     1      35.172 -19.268 -23.683  0.00  0.00    +0.016 C 
ATOM     10  C   UNL     1      34.408 -18.953 -24.810  0.00  0.00    +0.016 C 
ATOM     11  C   UNL     1      32.954 -16.066 -26.362  0.00  0.00    +0.251 C 
ATOM     12  H   UNL     1      35.232 -14.420 -23.169  0.00  0.00    +0.153 HD
ENDROOT
BRANCH   4  15
ATOM     13  O   UNL     1      37.129 -19.707 -19.845  0.00  0.00    -0.448 OA
ATOM     14  N   UNL     1      35.457 -20.716 -21.029  0.00  0.00    -0.222 NA
ATOM     15  N   UNL     1      36.331 -18.582 -21.665  0.00  0.00    -0.269 N 
ATOM     16  C   UNL     1      35.883 -21.645 -19.970  0.00  0.00    +0.151 C 
ATOM     17  C   UNL     1      36.713 -20.795 -19.031  0.00  0.00    +0.233 C 
ATOM     18  C   UNL     1      36.253 -19.700 -20.891  0.00  0.00    +0.284 C 
ATOM     19  C   UNL     1      34.675 -22.271 -19.300  0.00  0.00    +0.030 C 
ATOM     20  H   UNL     1      37.005 -17.915 -21.398  0.00  0.00    +0.157 HD
ENDBRANCH   4  15
BRANCH   1  22
ATOM     21 CL   UNL     1      31.075 -11.736 -20.669  0.00  0.00    -0.079 Cl
ATOM     22  C   UNL     1      33.754 -13.060 -23.321  0.00  0.00    +0.050 C 
ATOM     23  C   UNL     1      32.832 -12.997 -22.277  0.00  0.00    +0.029 C 
ATOM     24  C   UNL     1      34.059 -11.913 -24.052  0.00  0.00    +0.018 C 
ATOM     25  C   UNL     1      32.519 -10.638 -22.697  0.00  0.00    +0.150 C 
ATOM     26  C   UNL     1      32.214 -11.786 -21.964  0.00  0.00    +0.093 C 
ATOM     27  C   UNL     1      33.441 -10.702 -23.741  0.00  0.00    +0.039 C 
BRANCH  25  28
ATOM     28  O   UNL     1      31.930  -9.442 -22.414  0.00  0.00    -0.468 OA
BRANCH  28  29
ATOM     29  C   UNL     1      32.787  -8.385 -21.985  0.00  0.00    +0.257 C 
BRANCH  29  32
ATOM     30  S   UNL     1      31.372  -7.030 -23.951  0.00  0.00    -0.067 S 
ATOM     31  N   UNL     1      32.349  -5.936 -21.823  0.00  0.00    -0.237 NA
ATOM     32  C   UNL     1      32.229  -7.077 -22.465  0.00  0.00    +0.132 C 
ATOM     33  C   UNL     1      31.132  -5.347 -23.731  0.00  0.00    +0.057 C 
ATOM     34  C   UNL     1      31.720  -4.945 -22.550  0.00  0.00    +0.106 C 
ENDBRANCH  29  32
ENDBRANCH  28  29
ENDBRANCH  25  28
ENDBRANCH   1  22
TORSDOF 5
ENDMDL
MODEL 5
REMARK VINA RESULT:     -10.6      9.827     16.868
REMARK  Name = 42642648
REMARK  5 active torsions:
REMARK  status: ('A' for Active; 'I' for Inactive)
REMARK    1  A    between atoms: N_1  and  C_22
REMARK    2  A    between atoms: C_4  and  N_15
REMARK    3  A    between atoms: C_25  and  O_28
REMARK    4  A    between atoms: O_28  and  C_29
REMARK    5  A    between atoms: C_29  and  C_32
REMARK                            x       y       z     vdW  Elec       q    Type
REMARK                         _______ _______ _______ _____ _____    ______ ____
ROOT
ATOM      1  N   UNL     1      33.573  -8.910 -23.602  0.00  0.00    -0.301 N 
ATOM      2  N   UNL     1      31.850  -6.260 -20.929  0.00  0.00    -0.248 NA
ATOM      3  N   UNL     1      32.766  -8.429 -21.444  0.00  0.00    -0.233 NA
ATOM      4  C   UNL     1      32.556  -4.981 -24.833  0.00  0.00    +0.048 C 
ATOM      5  C   UNL     1      32.662  -6.710 -23.140  0.00  0.00    +0.117 C 
ATOM      6  C   UNL     1      32.900  -6.275 -24.456  0.00  0.00    +0.001 C 
ATOM      7  C   UNL     1      32.080  -5.855 -22.191  0.00  0.00    +0.067 C 
ATOM      8  C   UNL     1      32.982  -7.990 -22.699  0.00  0.00    +0.115 C 
ATOM      9  C   UNL     1      31.978  -4.125 -23.902  0.00  0.00    +0.016 C 
ATOM     10  C   UNL     1      31.745  -4.565 -22.596  0.00  0.00    +0.016 C 
ATOM     11  C   UNL     1      32.204  -7.524 -20.625  0.00  0.00    +0.251 C 
ATOM     12  H   UNL     1      34.125  -8.485 -24.296  0.00  0.00    +0.153 HD
ENDROOT
BRANCH   4  15
ATOM     13  O   UNL     1      33.876  -4.025 -28.093  0.00  0.00    -0.448 OA
ATOM     14  N   UNL     1      35.137  -4.925 -26.414  0.00  0.00    -0.222 NA
ATOM     15  N   UNL     1      32.790  -4.539 -26.151  0.00  0.00    -0.269 N 
ATOM     16  C   UNL     1      36.004  -4.764 -27.592  0.00  0.00    +0.151 C 
ATOM     17  C   UNL     1      35.221  -3.857 -28.518  0.00  0.00    +0.233 C 
ATOM     18  C   UNL     1      33.971  -4.531 -26.829  0.00  0.00    +0.284 C 
ATOM     19  C   UNL     1      37.346  -4.187 -27.184  0.00  0.00    +0.030 C 
ATOM     20  H   UNL     1      32.007  -4.195 -26.639  0.00  0.00    +0.157 HD
ENDBRANCH   4  15
BRANCH   1  22
ATOM     21 CL   UNL     1      32.057 -13.340 -21.542  0.00  0.00    -0.079 Cl
ATOM     22  C   UNL     1      33.523 -10.310 -23.695  0.00  0.00    +0.050 C 
ATOM     23  C   UNL     1      32.892 -11.053 -22.698  0.00  0.00    +0.029 C 
ATOM     24  C   UNL     1      34.103 -10.957 -24.786  0.00  0.00    +0.018 C 
ATOM     25  C   UNL     1      33.422 -13.092 -23.883  0.00  0.00    +0.150 C 
ATOM     26  C   UNL     1      32.841 -12.444 -22.791  0.00  0.00    +0.093 C 
ATOM     27  C   UNL     1      34.053 -12.347 -24.879  0.00  0.00    +0.039 C 
BRANCH  25  28
ATOM     28  O   UNL     1      33.388 -14.449 -23.999  0.00  0.00    -0.468 OA
BRANCH  28  29
ATOM     29  C   UNL     1      33.399 -14.985 -25.322  0.00  0.00    +0.257 C 
BRANCH  29  32
ATOM     30  S   UNL     1      34.765 -17.089 -24.135  0.00  0.00    -0.067 S 
ATOM     31  N   UNL     1      32.979 -17.350 -25.986  0.00  0.00    -0.237 NA
ATOM     32  C   UNL     1      33.615 -16.468 -25.248  0.00  0.00    +0.132 C 
ATOM     33  C   UNL     1      34.392 -18.674 -24.673  0.00  0.00    +0.057 C 
ATOM     34  C   UNL     1      33.426 -18.615 -25.655  0.00  0.00    +0.106 C 
ENDBRANCH  29  32
ENDBRANCH  28  29
ENDBRANCH  25  28
ENDBRANCH   1  22
TORSDOF 5
ENDMDL
MODEL 6
REMARK VINA RESULT:     -10.0     10.724     17.732
REMARK  Name = 42642648
REMARK  5 active torsions:
REMARK  status: ('A' for Active; 'I' for Inactive)
REMARK    1  A    between atoms: N_1  and  C_22
REMARK    2  A    between atoms: C_4  and  N_15
REMARK    3  A    between atoms: C_25  and  O_28
REMARK    4  A    between atoms: O_28  and  C_29
REMARK    5  A    between atoms: C_29  and  C_32
REMARK                            x       y       z     vdW  Elec       q    Type
REMARK                         _______ _______ _______ _____ _____    ______ ____
ROOT
ATOM      1  N   UNL     1      33.521  -7.838 -23.798  0.00  0.00    -0.301 N 
ATOM      2  N   UNL     1      31.329  -4.582 -22.486  0.00  0.00    -0.248 NA
ATOM      3  N   UNL     1      32.167  -6.818 -22.166  0.00  0.00    -0.233 NA
ATOM      4  C   UNL     1      33.241  -4.342 -26.182  0.00  0.00    +0.048 C 
ATOM      5  C   UNL     1      32.706  -5.585 -24.173  0.00  0.00    +0.117 C 
ATOM      6  C   UNL     1      33.350  -5.500 -25.421  0.00  0.00    +0.001 C 
ATOM      7  C   UNL     1      31.948  -4.512 -23.677  0.00  0.00    +0.067 C 
ATOM      8  C   UNL     1      32.775  -6.714 -23.363  0.00  0.00    +0.115 C 
ATOM      9  C   UNL     1      32.493  -3.273 -25.702  0.00  0.00    +0.016 C 
ATOM     10  C   UNL     1      31.855  -3.364 -24.462  0.00  0.00    +0.016 C 
ATOM     11  C   UNL     1      31.471  -5.730 -21.795  0.00  0.00    +0.251 C 
ATOM     12  H   UNL     1      34.285  -7.608 -24.374  0.00  0.00    +0.153 HD
ENDROOT
BRANCH   4  15
ATOM     13  O   UNL     1      35.530  -4.217 -29.016  0.00  0.00    -0.448 OA
ATOM     14  N   UNL     1      36.182  -4.588 -26.858  0.00  0.00    -0.222 NA
ATOM     15  N   UNL     1      33.884  -4.251 -27.433  0.00  0.00    -0.269 N 
ATOM     16  C   UNL     1      37.373  -4.703 -27.714  0.00  0.00    +0.151 C 
ATOM     17  C   UNL     1      36.946  -4.107 -29.039  0.00  0.00    +0.233 C 
ATOM     18  C   UNL     1      35.215  -4.369 -27.696  0.00  0.00    +0.284 C 
ATOM     19  C   UNL     1      38.547  -3.981 -27.084  0.00  0.00    +0.030 C 
ATOM     20  H   UNL     1      33.301  -4.083 -28.209  0.00  0.00    +0.157 HD
ENDBRANCH   4  15
BRANCH   1  22
ATOM     21 CL   UNL     1      31.088 -11.588 -21.311  0.00  0.00    -0.079 Cl
ATOM     22  C   UNL     1      33.381  -9.216 -23.564  0.00  0.00    +0.050 C 
ATOM     23  C   UNL     1      32.422  -9.676 -22.663  0.00  0.00    +0.029 C 
ATOM     24  C   UNL     1      34.203 -10.122 -24.233  0.00  0.00    +0.018 C 
ATOM     25  C   UNL     1      33.105 -11.953 -23.101  0.00  0.00    +0.150 C 
ATOM     26  C   UNL     1      32.283 -11.045 -22.431  0.00  0.00    +0.093 C 
ATOM     27  C   UNL     1      34.064 -11.491 -24.001  0.00  0.00    +0.039 C 
BRANCH  25  28
ATOM     28  O   UNL     1      32.991 -13.295 -22.894  0.00  0.00    -0.468 OA
BRANCH  28  29
ATOM     29  C   UNL     1      34.199 -14.055 -22.905  0.00  0.00    +0.257 C 
BRANCH  29  32
ATOM     30  S   UNL     1      34.962 -16.592 -23.734  0.00  0.00    -0.067 S 
ATOM     31  N   UNL     1      33.367 -15.034 -25.042  0.00  0.00    -0.237 NA
ATOM     32  C   UNL     1      34.092 -15.128 -23.949  0.00  0.00    +0.132 C 
ATOM     33  C   UNL     1      34.326 -17.160 -25.221  0.00  0.00    +0.057 C 
ATOM     34  C   UNL     1      33.503 -16.199 -25.770  0.00  0.00    +0.106 C 
ENDBRANCH  29  32
ENDBRANCH  28  29
ENDBRANCH  25  28
ENDBRANCH   1  22
TORSDOF 5
ENDMDL
MODEL 7
REMARK VINA RESULT:      -9.5     10.038     17.682
REMARK  Name = 42642648
REMARK  5 active torsions:
REMARK  status: ('A' for Active; 'I' for Inactive)
REMARK    1  A    between atoms: N_1  and  C_22
REMARK    2  A    between atoms: C_4  and  N_15
REMARK    3  A    between atoms: C_25  and  O_28
REMARK    4  A    between atoms: O_28  and  C_29
REMARK    5  A    between atoms: C_29  and  C_32
REMARK                            x       y       z     vdW  Elec       q    Type
REMARK                         _______ _______ _______ _____ _____    ______ ____
ROOT
ATOM      1  N   UNL     1      33.573  -8.712 -23.553  0.00  0.00    -0.301 N 
ATOM      2  N   UNL     1      31.586  -5.838 -21.335  0.00  0.00    -0.248 NA
ATOM      3  N   UNL     1      32.443  -8.075 -21.590  0.00  0.00    -0.233 NA
ATOM      4  C   UNL     1      33.018  -4.807 -25.112  0.00  0.00    +0.048 C 
ATOM      5  C   UNL     1      32.732  -6.446 -23.351  0.00  0.00    +0.117 C 
ATOM      6  C   UNL     1      33.214  -6.094 -24.625  0.00  0.00    +0.001 C 
ATOM      7  C   UNL     1      32.051  -5.512 -22.554  0.00  0.00    +0.067 C 
ATOM      8  C   UNL     1      32.895  -7.716 -22.807  0.00  0.00    +0.115 C 
ATOM      9  C   UNL     1      32.344  -3.874 -24.332  0.00  0.00    +0.016 C 
ATOM     10  C   UNL     1      31.867  -4.230 -23.068  0.00  0.00    +0.016 C 
ATOM     11  C   UNL     1      31.807  -7.101 -20.919  0.00  0.00    +0.251 C 
ATOM     12  H   UNL     1      34.260  -8.354 -24.161  0.00  0.00    +0.153 HD
ENDROOT
BRANCH   4  15
ATOM     13  O   UNL     1      33.655  -3.433 -28.427  0.00  0.00    -0.448 OA
ATOM     14  N   UNL     1      31.892  -2.828 -27.107  0.00  0.00    -0.222 NA
ATOM     15  N   UNL     1      33.498  -4.448 -26.387  0.00  0.00    -0.269 N 
ATOM     16  C   UNL     1      31.856  -1.993 -28.318  0.00  0.00    +0.151 C 
ATOM     17  C   UNL     1      32.806  -2.675 -29.278  0.00  0.00    +0.233 C 
ATOM     18  C   UNL     1      32.960  -3.550 -27.258  0.00  0.00    +0.284 C 
ATOM     19  C   UNL     1      30.438  -1.894 -28.848  0.00  0.00    +0.030 C 
ATOM     20  H   UNL     1      34.320  -4.902 -26.685  0.00  0.00    +0.157 HD
ENDBRANCH   4  15
BRANCH   1  22
ATOM     21 CL   UNL     1      31.800 -12.976 -21.354  0.00  0.00    -0.079 Cl
ATOM     22  C   UNL     1      33.455 -10.111 -23.593  0.00  0.00    +0.050 C 
ATOM     23  C   UNL     1      32.770 -10.781 -22.580  0.00  0.00    +0.029 C 
ATOM     24  C   UNL     1      34.022 -10.828 -24.645  0.00  0.00    +0.018 C 
ATOM     25  C   UNL     1      33.220 -12.889 -23.673  0.00  0.00    +0.150 C 
ATOM     26  C   UNL     1      32.652 -12.171 -22.620  0.00  0.00    +0.093 C 
ATOM     27  C   UNL     1      33.905 -12.217 -24.685  0.00  0.00    +0.039 C 
BRANCH  25  28
ATOM     28  O   UNL     1      33.120 -14.247 -23.738  0.00  0.00    -0.468 OA
BRANCH  28  29
ATOM     29  C   UNL     1      34.014 -14.919 -24.624  0.00  0.00    +0.257 C 
BRANCH  29  32
ATOM     30  S   UNL     1      34.478 -17.655 -24.638  0.00  0.00    -0.067 S 
ATOM     31  N   UNL     1      35.229 -16.045 -22.761  0.00  0.00    -0.237 NA
ATOM     32  C   UNL     1      34.606 -16.104 -23.917  0.00  0.00    +0.132 C 
ATOM     33  C   UNL     1      35.324 -18.318 -23.303  0.00  0.00    +0.057 C 
ATOM     34  C   UNL     1      35.640 -17.316 -22.410  0.00  0.00    +0.106 C 
ENDBRANCH  29  32
ENDBRANCH  28  29
ENDBRANCH  25  28
ENDBRANCH   1  22
TORSDOF 5
ENDMDL
MODEL 8
REMARK VINA RESULT:      -9.5      9.128     16.564
REMARK  Name = 42642648
REMARK  5 active torsions:
REMARK  status: ('A' for Active; 'I' for Inactive)
REMARK    1  A    between atoms: N_1  and  C_22
REMARK    2  A    between atoms: C_4  and  N_15
REMARK    3  A    between atoms: C_25  and  O_28
REMARK    4  A    between atoms: O_28  and  C_29
REMARK    5  A    between atoms: C_29  and  C_32
REMARK                            x       y       z     vdW  Elec       q    Type
REMARK                         _______ _______ _______ _____ _____    ______ ____
ROOT
ATOM      1  N   UNL     1      33.523  -9.449 -23.759  0.00  0.00    -0.301 N 
ATOM      2  N   UNL     1      31.988  -6.998 -20.797  0.00  0.00    -0.248 NA
ATOM      3  N   UNL     1      32.814  -9.137 -21.536  0.00  0.00    -0.233 NA
ATOM      4  C   UNL     1      32.586  -5.398 -24.599  0.00  0.00    +0.048 C 
ATOM      5  C   UNL     1      32.701  -7.273 -23.069  0.00  0.00    +0.117 C 
ATOM      6  C   UNL     1      32.902  -6.730 -24.351  0.00  0.00    +0.001 C 
ATOM      7  C   UNL     1      32.183  -6.489 -22.026  0.00  0.00    +0.067 C 
ATOM      8  C   UNL     1      32.996  -8.596 -22.756  0.00  0.00    +0.115 C 
ATOM      9  C   UNL     1      32.072  -4.612 -23.574  0.00  0.00    +0.016 C 
ATOM     10  C   UNL     1      31.874  -5.159 -22.303  0.00  0.00    +0.016 C 
ATOM     11  C   UNL     1      32.313  -8.294 -20.619  0.00  0.00    +0.251 C 
ATOM     12  H   UNL     1      34.061  -8.979 -24.435  0.00  0.00    +0.153 HD
ENDROOT
BRANCH   4  15
ATOM     13  O   UNL     1      33.816  -4.169 -27.802  0.00  0.00    -0.448 OA
ATOM     14  N   UNL     1      35.124  -5.196 -26.236  0.00  0.00    -0.222 NA
ATOM     15  N   UNL     1      32.784  -4.848 -25.882  0.00  0.00    -0.269 N 
ATOM     16  C   UNL     1      35.960  -4.932 -27.418  0.00  0.00    +0.151 C 
ATOM     17  C   UNL     1      35.150  -3.957 -28.246  0.00  0.00    +0.233 C 
ATOM     18  C   UNL     1      33.947  -4.776 -26.587  0.00  0.00    +0.284 C 
ATOM     19  C   UNL     1      37.309  -4.382 -26.998  0.00  0.00    +0.030 C 
ATOM     20  H   UNL     1      31.987  -4.471 -26.320  0.00  0.00    +0.157 HD
ENDBRANCH   4  15
BRANCH   1  22
ATOM     21 CL   UNL     1      33.691 -13.347 -27.065  0.00  0.00    -0.079 Cl
ATOM     22  C   UNL     1      33.424 -10.833 -23.972  0.00  0.00    +0.050 C 
ATOM     23  C   UNL     1      33.585 -11.354 -25.255  0.00  0.00    +0.029 C 
ATOM     24  C   UNL     1      33.164 -11.686 -22.900  0.00  0.00    +0.018 C 
ATOM     25  C   UNL     1      33.228 -13.583 -24.394  0.00  0.00    +0.150 C 
ATOM     26  C   UNL     1      33.488 -12.729 -25.467  0.00  0.00    +0.093 C 
ATOM     27  C   UNL     1      33.066 -13.061 -23.111  0.00  0.00    +0.039 C 
BRANCH  25  28
ATOM     28  O   UNL     1      33.126 -14.931 -24.572  0.00  0.00    -0.468 OA
BRANCH  28  29
ATOM     29  C   UNL     1      34.278 -15.605 -25.078  0.00  0.00    +0.257 C 
BRANCH  29  32
ATOM     30  S   UNL     1      34.497 -18.268 -24.330  0.00  0.00    -0.067 S 
ATOM     31  N   UNL     1      35.371 -16.271 -22.940  0.00  0.00    -0.237 NA
ATOM     32  C   UNL     1      34.756 -16.593 -24.056  0.00  0.00    +0.132 C 
ATOM     33  C   UNL     1      35.270 -18.606 -22.837  0.00  0.00    +0.057 C 
ATOM     34  C   UNL     1      35.665 -17.426 -22.242  0.00  0.00    +0.106 C 
ENDBRANCH  29  32
ENDBRANCH  28  29
ENDBRANCH  25  28
ENDBRANCH   1  22
TORSDOF 5
ENDMDL
MODEL 9
REMARK VINA RESULT:      -9.2      4.086     11.793
REMARK  Name = 42642648
REMARK  5 active torsions:
REMARK  status: ('A' for Active; 'I' for Inactive)
REMARK    1  A    between atoms: N_1  and  C_22
REMARK    2  A    between atoms: C_4  and  N_15
REMARK    3  A    between atoms: C_25  and  O_28
REMARK    4  A    between atoms: O_28  and  C_29
REMARK    5  A    between atoms: C_29  and  C_32
REMARK                            x       y       z     vdW  Elec       q    Type
REMARK                         _______ _______ _______ _____ _____    ______ ____
ROOT
ATOM      1  N   UNL     1      34.406 -18.951 -22.007  0.00  0.00    -0.301 N 
ATOM      2  N   UNL     1      34.388 -18.903 -26.146  0.00  0.00    -0.248 NA
ATOM      3  N   UNL     1      34.571 -20.092 -24.058  0.00  0.00    -0.233 NA
ATOM      4  C   UNL     1      33.853 -15.307 -24.107  0.00  0.00    +0.048 C 
ATOM      5  C   UNL     1      34.213 -17.702 -24.078  0.00  0.00    +0.117 C 
ATOM      6  C   UNL     1      34.032 -16.487 -23.393  0.00  0.00    +0.001 C 
ATOM      7  C   UNL     1      34.217 -17.747 -25.482  0.00  0.00    +0.067 C 
ATOM      8  C   UNL     1      34.397 -18.917 -23.424  0.00  0.00    +0.115 C 
ATOM      9  C   UNL     1      33.855 -15.339 -25.497  0.00  0.00    +0.016 C 
ATOM     10  C   UNL     1      34.037 -16.550 -26.171  0.00  0.00    +0.016 C 
ATOM     11  C   UNL     1      34.557 -20.013 -25.399  0.00  0.00    +0.251 C 
ATOM     12  H   UNL     1      33.847 -18.256 -21.591  0.00  0.00    +0.153 HD
ENDROOT
BRANCH   4  15
ATOM     13  O   UNL     1      33.604 -11.844 -22.999  0.00  0.00    -0.448 OA
ATOM     14  N   UNL     1      34.220 -12.474 -25.107  0.00  0.00    -0.222 NA
ATOM     15  N   UNL     1      33.672 -14.086 -23.427  0.00  0.00    -0.269 N 
ATOM     16  C   UNL     1      34.149 -11.004 -25.078  0.00  0.00    +0.151 C 
ATOM     17  C   UNL     1      34.092 -10.655 -23.606  0.00  0.00    +0.233 C 
ATOM     18  C   UNL     1      33.848 -12.827 -23.915  0.00  0.00    +0.284 C 
ATOM     19  C   UNL     1      35.347 -10.404 -25.789  0.00  0.00    +0.030 C 
ATOM     20  H   UNL     1      33.384 -14.152 -22.487  0.00  0.00    +0.157 HD
ENDBRANCH   4  15
BRANCH   1  22
ATOM     21 CL   UNL     1      34.087 -22.839 -18.700  0.00  0.00    -0.079 Cl
ATOM     22  C   UNL     1      35.057 -19.784 -21.084  0.00  0.00    +0.050 C 
ATOM     23  C   UNL     1      34.345 -20.783 -20.422  0.00  0.00    +0.029 C 
ATOM     24  C   UNL     1      36.417 -19.611 -20.829  0.00  0.00    +0.018 C 
ATOM     25  C   UNL     1      36.354 -21.439 -19.250  0.00  0.00    +0.150 C 
ATOM     26  C   UNL     1      34.993 -21.611 -19.505  0.00  0.00    +0.093 C 
ATOM     27  C   UNL     1      37.065 -20.439 -19.912  0.00  0.00    +0.039 C 
BRANCH  25  28
ATOM     28  O   UNL     1      37.012 -22.233 -18.359  0.00  0.00    -0.468 OA
BRANCH  28  29
ATOM     29  C   UNL     1      37.152 -21.734 -17.029  0.00  0.00    +0.257 C 
BRANCH  29  32
ATOM     30  S   UNL     1      35.681 -23.447 -15.415  0.00  0.00    -0.067 S 
ATOM     31  N   UNL     1      38.250 -23.525 -15.688  0.00  0.00    -0.237 NA
ATOM     32  C   UNL     1      37.166 -22.890 -16.072  0.00  0.00    +0.132 C 
ATOM     33  C   UNL     1      36.546 -24.641 -14.539  0.00  0.00    +0.057 C 
ATOM     34  C   UNL     1      37.893 -24.528 -14.808  0.00  0.00    +0.106 C 
ENDBRANCH  29  32
ENDBRANCH  28  29
ENDBRANCH  25  28
ENDBRANCH   1  22
TORSDOF 5
ENDMDL
