MODEL 1
REMARK VINA RESULT:     -10.9      0.000      0.000
REMARK  Name = 153241
REMARK  8 active torsions:
REMARK  status: ('A' for Active; 'I' for Inactive)
REMARK    1  A    between atoms: N_2  and  C_9
REMARK    2  A    between atoms: N_3  and  C_24
REMARK    3  A    between atoms: C_7  and  C_13
REMARK    4  A    between atoms: C_13  and  N_15
REMARK    5  A    between atoms: C_16  and  O_18
REMARK    6  A    between atoms: O_18  and  C_20
REMARK    7  A    between atoms: C_25  and  C_32
REMARK    8  A    between atoms: C_26  and  O_35
REMARK                            x       y       z     vdW  Elec       q    Type
REMARK                         _______ _______ _______ _____ _____    ______ ____
ROOT
ATOM      1  O   UNL     1      34.168 -19.273 -20.398  0.00  0.00    -0.252 OA
ATOM      2  N   UNL     1      35.515 -21.171 -20.667  0.00  0.00    -0.268 N 
ATOM      3  N   UNL     1      35.300 -19.667 -22.405  0.00  0.00    -0.268 N 
ATOM      4  C   UNL     1      34.914 -19.959 -21.088  0.00  0.00    +0.308 C 
ATOM      5  H   UNL     1      36.092 -21.615 -21.330  0.00  0.00    +0.156 HD
ATOM      6  H   UNL     1      35.907 -20.314 -22.832  0.00  0.00    +0.156 HD
ENDROOT
BRANCH   2   9
ATOM      7  C   UNL     1      36.334 -22.445 -17.308  0.00  0.00    -0.001 C 
ATOM      8  C   UNL     1      36.460 -21.797 -18.532  0.00  0.00    +0.012 C 
ATOM      9  C   UNL     1      35.398 -21.819 -19.436  0.00  0.00    +0.051 C 
ATOM     10  C   UNL     1      35.161 -23.113 -16.976  0.00  0.00    -0.003 C 
ATOM     11  C   UNL     1      34.217 -22.487 -19.110  0.00  0.00    +0.015 C 
ATOM     12  C   UNL     1      34.099 -23.133 -17.880  0.00  0.00    +0.001 C 
BRANCH   7  13
ATOM     13  C   UNL     1      37.477 -22.424 -16.336  0.00  0.00    +0.119 C 
BRANCH  13  15
ATOM     14  O   UNL     1      38.938 -24.556 -15.010  0.00  0.00    -0.226 OA
ATOM     15  N   UNL     1      37.144 -23.087 -15.096  0.00  0.00    -0.267 N 
ATOM     16  C   UNL     1      37.903 -24.095 -14.540  0.00  0.00    +0.402 C 
ATOM     17  H   UNL     1      36.330 -22.803 -14.622  0.00  0.00    +0.153 HD
BRANCH  16  18
ATOM     18  O   UNL     1      37.331 -24.520 -13.369  0.00  0.00    -0.436 OA
BRANCH  18  20
ATOM     19  O   UNL     1      36.847 -24.123 -10.400  0.00  0.00    -0.350 OA
ATOM     20  C   UNL     1      36.528 -23.566 -12.682  0.00  0.00    +0.202 C 
ATOM     21  C   UNL     1      35.272 -24.224 -12.167  0.00  0.00    +0.078 C 
ATOM     22  C   UNL     1      37.229 -23.164 -11.401  0.00  0.00    +0.186 C 
ATOM     23  C   UNL     1      35.765 -24.914 -10.911  0.00  0.00    +0.146 C 
ENDBRANCH  18  20
ENDBRANCH  16  18
ENDBRANCH  13  15
ENDBRANCH   7  13
ENDBRANCH   2   9
BRANCH   3  24
ATOM     24  C   UNL     1      34.925 -18.555 -23.197  0.00  0.00    +0.055 C 
ATOM     25  C   UNL     1      34.190 -16.378 -24.745  0.00  0.00    +0.070 C 
ATOM     26  C   UNL     1      34.820 -16.180 -23.516  0.00  0.00    +0.143 C 
ATOM     27  C   UNL     1      35.190 -17.275 -22.736  0.00  0.00    +0.052 C 
ATOM     28  C   UNL     1      34.301 -18.769 -24.414  0.00  0.00    +0.015 C 
ATOM     29  C   UNL     1      33.930 -17.673 -25.194  0.00  0.00    +0.007 C 
BRANCH  25  32
ATOM     30  O   UNL     1      34.233 -15.284 -26.852  0.00  0.00    -0.431 OA
ATOM     31  N   UNL     1      33.020 -13.401 -26.540  0.00  0.00    -0.203 NA
ATOM     32  C   UNL     1      33.799 -15.257 -25.568  0.00  0.00    +0.169 C 
ATOM     33  C   UNL     1      33.067 -14.122 -25.376  0.00  0.00    +0.140 C 
ATOM     34  C   UNL     1      33.724 -14.133 -27.373  0.00  0.00    +0.285 C 
ENDBRANCH  25  32
BRANCH  26  35
ATOM     35  O   UNL     1      35.085 -14.925 -23.054  0.00  0.00    -0.471 OA
ATOM     36  C   UNL     1      34.407 -14.516 -21.869  0.00  0.00    +0.252 C 
ENDBRANCH  26  35
ENDBRANCH   3  24
TORSDOF 8
ENDMDL
MODEL 2
REMARK VINA RESULT:     -10.8      4.188      7.525
REMARK  Name = 153241
REMARK  8 active torsions:
REMARK  status: ('A' for Active; 'I' for Inactive)
REMARK    1  A    between atoms: N_2  and  C_9
REMARK    2  A    between atoms: N_3  and  C_24
REMARK    3  A    between atoms: C_7  and  C_13
REMARK    4  A    between atoms: C_13  and  N_15
REMARK    5  A    between atoms: C_16  and  O_18
REMARK    6  A    between atoms: O_18  and  C_20
REMARK    7  A    between atoms: C_25  and  C_32
REMARK    8  A    between atoms: C_26  and  O_35
REMARK                            x       y       z     vdW  Elec       q    Type
REMARK                         _______ _______ _______ _____ _____    ______ ____
ROOT
ATOM      1  O   UNL     1      33.706 -14.413 -22.265  0.00  0.00    -0.252 OA
ATOM      2  N   UNL     1      34.374 -15.254 -24.347  0.00  0.00    -0.268 N 
ATOM      3  N   UNL     1      33.846 -13.016 -24.135  0.00  0.00    -0.268 N 
ATOM      4  C   UNL     1      33.948 -14.239 -23.455  0.00  0.00    +0.308 C 
ATOM      5  H   UNL     1      34.531 -14.967 -25.276  0.00  0.00    +0.156 HD
ATOM      6  H   UNL     1      34.074 -13.033 -25.092  0.00  0.00    +0.156 HD
ENDROOT
BRANCH   2   9
ATOM      7  C   UNL     1      35.595 -18.331 -22.730  0.00  0.00    -0.001 C 
ATOM      8  C   UNL     1      35.373 -16.982 -22.984  0.00  0.00    +0.012 C 
ATOM      9  C   UNL     1      34.603 -16.605 -24.084  0.00  0.00    +0.051 C 
ATOM     10  C   UNL     1      35.055 -19.308 -23.559  0.00  0.00    -0.003 C 
ATOM     11  C   UNL     1      34.057 -17.579 -24.921  0.00  0.00    +0.015 C 
ATOM     12  C   UNL     1      34.284 -18.930 -24.658  0.00  0.00    +0.001 C 
BRANCH   7  13
ATOM     13  C   UNL     1      36.426 -18.737 -21.548  0.00  0.00    +0.119 C 
BRANCH  13  15
ATOM     14  O   UNL     1      37.282 -21.223 -20.314  0.00  0.00    -0.226 OA
ATOM     15  N   UNL     1      35.686 -19.569 -20.628  0.00  0.00    -0.267 N 
ATOM     16  C   UNL     1      36.178 -20.740 -20.090  0.00  0.00    +0.402 C 
ATOM     17  H   UNL     1      34.779 -19.284 -20.370  0.00  0.00    +0.153 HD
BRANCH  16  18
ATOM     18  O   UNL     1      35.245 -21.300 -19.256  0.00  0.00    -0.436 OA
BRANCH  18  20
ATOM     19  O   UNL     1      32.305 -21.824 -18.719  0.00  0.00    -0.350 OA
ATOM     20  C   UNL     1      34.345 -22.228 -19.855  0.00  0.00    +0.202 C 
ATOM     21  C   UNL     1      34.085 -23.376 -18.912  0.00  0.00    +0.078 C 
ATOM     22  C   UNL     1      32.978 -21.585 -19.967  0.00  0.00    +0.186 C 
ATOM     23  C   UNL     1      33.058 -22.785 -17.966  0.00  0.00    +0.146 C 
ENDBRANCH  18  20
ENDBRANCH  16  18
ENDBRANCH  13  15
ENDBRANCH   7  13
ENDBRANCH   2   9
BRANCH   3  24
ATOM     24  C   UNL     1      33.454 -11.760 -23.614  0.00  0.00    +0.055 C 
ATOM     25  C   UNL     1      32.687  -9.301 -22.594  0.00  0.00    +0.070 C 
ATOM     26  C   UNL     1      32.094 -10.470 -22.117  0.00  0.00    +0.143 C 
ATOM     27  C   UNL     1      32.479 -11.708 -22.631  0.00  0.00    +0.052 C 
ATOM     28  C   UNL     1      34.054 -10.608 -24.098  0.00  0.00    +0.015 C 
ATOM     29  C   UNL     1      33.667  -9.371 -23.584  0.00  0.00    +0.007 C 
BRANCH  25  32
ATOM     30  O   UNL     1      32.847  -7.661 -20.884  0.00  0.00    -0.431 OA
ATOM     31  N   UNL     1      31.503  -5.980 -21.580  0.00  0.00    -0.203 NA
ATOM     32  C   UNL     1      32.301  -8.009 -22.076  0.00  0.00    +0.169 C 
ATOM     33  C   UNL     1      31.489  -6.998 -22.498  0.00  0.00    +0.140 C 
ATOM     34  C   UNL     1      32.319  -6.427 -20.652  0.00  0.00    +0.285 C 
ENDBRANCH  25  32
BRANCH  26  35
ATOM     35  O   UNL     1      31.133 -10.431 -21.150  0.00  0.00    -0.471 OA
ATOM     36  C   UNL     1      31.546 -10.718 -19.816  0.00  0.00    +0.252 C 
ENDBRANCH  26  35
ENDBRANCH   3  24
TORSDOF 8
ENDMDL
MODEL 3
REMARK VINA RESULT:     -10.6      3.574      5.581
REMARK  Name = 153241
REMARK  8 active torsions:
REMARK  status: ('A' for Active; 'I' for Inactive)
REMARK    1  A    between atoms: N_2  and  C_9
REMARK    2  A    between atoms: N_3  and  C_24
REMARK    3  A    between atoms: C_7  and  C_13
REMARK    4  A    between atoms: C_13  and  N_15
REMARK    5  A    between atoms: C_16  and  O_18
REMARK    6  A    between atoms: O_18  and  C_20
REMARK    7  A    between atoms: C_25  and  C_32
REMARK    8  A    between atoms: C_26  and  O_35
REMARK                            x       y       z     vdW  Elec       q    Type
REMARK                         _______ _______ _______ _____ _____    ______ ____
ROOT
ATOM      1  O   UNL     1      34.553 -15.391 -20.956  0.00  0.00    -0.252 OA
ATOM      2  N   UNL     1      34.911 -16.928 -22.688  0.00  0.00    -0.268 N 
ATOM      3  N   UNL     1      34.115 -14.816 -23.180  0.00  0.00    -0.268 N 
ATOM      4  C   UNL     1      34.527 -15.675 -22.149  0.00  0.00    +0.308 C 
ATOM      5  H   UNL     1      34.837 -17.013 -23.666  0.00  0.00    +0.156 HD
ATOM      6  H   UNL     1      34.149 -15.188 -24.091  0.00  0.00    +0.156 HD
ENDROOT
BRANCH   2   9
ATOM      7  C   UNL     1      34.958 -20.121 -20.851  0.00  0.00    -0.001 C 
ATOM      8  C   UNL     1      34.480 -18.998 -21.518  0.00  0.00    +0.012 C 
ATOM      9  C   UNL     1      35.381 -18.058 -22.017  0.00  0.00    +0.051 C 
ATOM     10  C   UNL     1      36.324 -20.316 -20.677  0.00  0.00    -0.003 C 
ATOM     11  C   UNL     1      36.753 -18.246 -21.847  0.00  0.00    +0.015 C 
ATOM     12  C   UNL     1      37.224 -19.375 -21.178  0.00  0.00    +0.001 C 
BRANCH   7  13
ATOM     13  C   UNL     1      33.989 -21.133 -20.312  0.00  0.00    +0.119 C 
BRANCH  13  15
ATOM     14  O   UNL     1      32.681 -22.739 -18.276  0.00  0.00    -0.226 OA
ATOM     15  N   UNL     1      34.607 -22.011 -19.345  0.00  0.00    -0.267 N 
ATOM     16  C   UNL     1      33.900 -22.738 -18.411  0.00  0.00    +0.402 C 
ATOM     17  H   UNL     1      35.588 -22.094 -19.353  0.00  0.00    +0.153 HD
BRANCH  16  18
ATOM     18  O   UNL     1      34.762 -23.473 -17.639  0.00  0.00    -0.436 OA
BRANCH  18  20
ATOM     19  O   UNL     1      36.639 -24.466 -15.472  0.00  0.00    -0.350 OA
ATOM     20  C   UNL     1      34.999 -22.983 -16.323  0.00  0.00    +0.202 C 
ATOM     21  C   UNL     1      34.346 -23.891 -15.310  0.00  0.00    +0.078 C 
ATOM     22  C   UNL     1      36.470 -23.138 -15.997  0.00  0.00    +0.186 C 
ATOM     23  C   UNL     1      35.345 -25.027 -15.211  0.00  0.00    +0.146 C 
ENDBRANCH  18  20
ENDBRANCH  16  18
ENDBRANCH  13  15
ENDBRANCH   7  13
ENDBRANCH   2   9
BRANCH   3  24
ATOM     24  C   UNL     1      33.656 -13.482 -23.071  0.00  0.00    +0.055 C 
ATOM     25  C   UNL     1      32.757 -10.870 -22.859  0.00  0.00    +0.070 C 
ATOM     26  C   UNL     1      33.750 -11.194 -23.784  0.00  0.00    +0.143 C 
ATOM     27  C   UNL     1      34.203 -12.509 -23.891  0.00  0.00    +0.052 C 
ATOM     28  C   UNL     1      32.670 -13.178 -22.147  0.00  0.00    +0.015 C 
ATOM     29  C   UNL     1      32.218 -11.863 -22.041  0.00  0.00    +0.007 C 
BRANCH  25  32
ATOM     30  O   UNL     1      32.340  -8.976 -21.489  0.00  0.00    -0.431 OA
ATOM     31  N   UNL     1      31.462  -7.438 -22.897  0.00  0.00    -0.203 NA
ATOM     32  C   UNL     1      32.275  -9.515 -22.732  0.00  0.00    +0.169 C 
ATOM     33  C   UNL     1      31.744  -8.590 -23.583  0.00  0.00    +0.140 C 
ATOM     34  C   UNL     1      31.834  -7.725 -21.669  0.00  0.00    +0.285 C 
ENDBRANCH  25  32
BRANCH  26  35
ATOM     35  O   UNL     1      34.295 -10.244 -24.596  0.00  0.00    -0.471 OA
ATOM     36  C   UNL     1      35.221 -10.690 -25.583  0.00  0.00    +0.252 C 
ENDBRANCH  26  35
ENDBRANCH   3  24
TORSDOF 8
ENDMDL
MODEL 4
REMARK VINA RESULT:     -10.5      3.220      5.521
REMARK  Name = 153241
REMARK  8 active torsions:
REMARK  status: ('A' for Active; 'I' for Inactive)
REMARK    1  A    between atoms: N_2  and  C_9
REMARK    2  A    between atoms: N_3  and  C_24
REMARK    3  A    between atoms: C_7  and  C_13
REMARK    4  A    between atoms: C_13  and  N_15
REMARK    5  A    between atoms: C_16  and  O_18
REMARK    6  A    between atoms: O_18  and  C_20
REMARK    7  A    between atoms: C_25  and  C_32
REMARK    8  A    between atoms: C_26  and  O_35
REMARK                            x       y       z     vdW  Elec       q    Type
REMARK                         _______ _______ _______ _____ _____    ______ ____
ROOT
ATOM      1  O   UNL     1      35.280 -22.474 -18.189  0.00  0.00    -0.252 OA
ATOM      2  N   UNL     1      37.208 -22.251 -16.876  0.00  0.00    -0.268 N 
ATOM      3  N   UNL     1      36.959 -20.954 -18.770  0.00  0.00    -0.268 N 
ATOM      4  C   UNL     1      36.365 -21.946 -17.974  0.00  0.00    +0.308 C 
ATOM      5  H   UNL     1      38.052 -21.746 -16.831  0.00  0.00    +0.156 HD
ATOM      6  H   UNL     1      37.836 -20.625 -18.468  0.00  0.00    +0.156 HD
ENDROOT
BRANCH   2   9
ATOM      7  C   UNL     1      35.581 -24.123 -14.151  0.00  0.00    -0.001 C 
ATOM      8  C   UNL     1      35.780 -23.201 -15.173  0.00  0.00    +0.012 C 
ATOM      9  C   UNL     1      36.999 -23.173 -15.849  0.00  0.00    +0.051 C 
ATOM     10  C   UNL     1      36.585 -25.018 -13.798  0.00  0.00    -0.003 C 
ATOM     11  C   UNL     1      38.011 -24.068 -15.500  0.00  0.00    +0.015 C 
ATOM     12  C   UNL     1      37.804 -24.990 -14.475  0.00  0.00    +0.001 C 
BRANCH   7  13
ATOM     13  C   UNL     1      34.270 -24.153 -13.423  0.00  0.00    +0.119 C 
BRANCH  13  15
ATOM     14  O   UNL     1      31.505 -23.739 -12.634  0.00  0.00    -0.226 OA
ATOM     15  N   UNL     1      33.202 -23.577 -14.207  0.00  0.00    -0.267 N 
ATOM     16  C   UNL     1      31.912 -23.420 -13.745  0.00  0.00    +0.402 C 
ATOM     17  H   UNL     1      33.406 -23.281 -15.124  0.00  0.00    +0.153 HD
BRANCH  16  18
ATOM     18  O   UNL     1      31.133 -22.848 -14.718  0.00  0.00    -0.436 OA
BRANCH  18  20
ATOM     19  O   UNL     1      29.105 -22.390 -16.928  0.00  0.00    -0.350 OA
ATOM     20  C   UNL     1      30.667 -23.721 -15.742  0.00  0.00    +0.202 C 
ATOM     21  C   UNL     1      29.276 -24.205 -15.414  0.00  0.00    +0.078 C 
ATOM     22  C   UNL     1      30.440 -22.919 -17.007  0.00  0.00    +0.186 C 
ATOM     23  C   UNL     1      28.421 -23.028 -15.841  0.00  0.00    +0.146 C 
ENDBRANCH  18  20
ENDBRANCH  16  18
ENDBRANCH  13  15
ENDBRANCH   7  13
ENDBRANCH   2   9
BRANCH   3  24
ATOM     24  C   UNL     1      36.452 -20.369 -19.954  0.00  0.00    +0.055 C 
ATOM     25  C   UNL     1      35.458 -19.223 -22.273  0.00  0.00    +0.070 C 
ATOM     26  C   UNL     1      34.618 -19.975 -21.451  0.00  0.00    +0.143 C 
ATOM     27  C   UNL     1      35.118 -20.552 -20.283  0.00  0.00    +0.052 C 
ATOM     28  C   UNL     1      37.298 -19.625 -20.760  0.00  0.00    +0.015 C 
ATOM     29  C   UNL     1      36.798 -19.049 -21.927  0.00  0.00    +0.007 C 
BRANCH  25  32
ATOM     30  O   UNL     1      35.108 -17.273 -23.582  0.00  0.00    -0.431 OA
ATOM     31  N   UNL     1      34.095 -18.023 -25.461  0.00  0.00    -0.203 NA
ATOM     32  C   UNL     1      34.960 -18.618 -23.486  0.00  0.00    +0.169 C 
ATOM     33  C   UNL     1      34.348 -19.074 -24.617  0.00  0.00    +0.140 C 
ATOM     34  C   UNL     1      34.564 -16.990 -24.798  0.00  0.00    +0.285 C 
ENDBRANCH  25  32
BRANCH  26  35
ATOM     35  O   UNL     1      33.304 -20.162 -21.765  0.00  0.00    -0.471 OA
ATOM     36  C   UNL     1      32.443 -20.591 -20.713  0.00  0.00    +0.252 C 
ENDBRANCH  26  35
ENDBRANCH   3  24
TORSDOF 8
ENDMDL
MODEL 5
REMARK VINA RESULT:     -10.4      3.584      5.489
REMARK  Name = 153241
REMARK  8 active torsions:
REMARK  status: ('A' for Active; 'I' for Inactive)
REMARK    1  A    between atoms: N_2  and  C_9
REMARK    2  A    between atoms: N_3  and  C_24
REMARK    3  A    between atoms: C_7  and  C_13
REMARK    4  A    between atoms: C_13  and  N_15
REMARK    5  A    between atoms: C_16  and  O_18
REMARK    6  A    between atoms: O_18  and  C_20
REMARK    7  A    between atoms: C_25  and  C_32
REMARK    8  A    between atoms: C_26  and  O_35
REMARK                            x       y       z     vdW  Elec       q    Type
REMARK                         _______ _______ _______ _____ _____    ______ ____
ROOT
ATOM      1  O   UNL     1      34.600 -15.395 -21.016  0.00  0.00    -0.252 OA
ATOM      2  N   UNL     1      34.924 -16.978 -22.713  0.00  0.00    -0.268 N 
ATOM      3  N   UNL     1      34.164 -14.864 -23.251  0.00  0.00    -0.268 N 
ATOM      4  C   UNL     1      34.564 -15.706 -22.201  0.00  0.00    +0.308 C 
ATOM      5  H   UNL     1      34.846 -17.083 -23.689  0.00  0.00    +0.156 HD
ATOM      6  H   UNL     1      34.189 -15.257 -24.153  0.00  0.00    +0.156 HD
ENDROOT
BRANCH   2   9
ATOM      7  C   UNL     1      34.922 -20.135 -20.815  0.00  0.00    -0.001 C 
ATOM      8  C   UNL     1      34.462 -19.020 -21.506  0.00  0.00    +0.012 C 
ATOM      9  C   UNL     1      35.377 -18.100 -22.017  0.00  0.00    +0.051 C 
ATOM     10  C   UNL     1      36.284 -20.343 -20.628  0.00  0.00    -0.003 C 
ATOM     11  C   UNL     1      36.745 -18.301 -21.835  0.00  0.00    +0.015 C 
ATOM     12  C   UNL     1      37.199 -19.422 -21.141  0.00  0.00    +0.001 C 
BRANCH   7  13
ATOM     13  C   UNL     1      33.938 -21.125 -20.263  0.00  0.00    +0.119 C 
BRANCH  13  15
ATOM     14  O   UNL     1      32.626 -22.708 -18.212  0.00  0.00    -0.226 OA
ATOM     15  N   UNL     1      34.550 -22.022 -19.310  0.00  0.00    -0.267 N 
ATOM     16  C   UNL     1      33.841 -22.736 -18.367  0.00  0.00    +0.402 C 
ATOM     17  H   UNL     1      35.529 -22.129 -19.335  0.00  0.00    +0.153 HD
BRANCH  16  18
ATOM     18  O   UNL     1      34.698 -23.494 -17.613  0.00  0.00    -0.436 OA
BRANCH  18  20
ATOM     19  O   UNL     1      36.612 -24.524 -15.495  0.00  0.00    -0.350 OA
ATOM     20  C   UNL     1      34.981 -23.007 -16.305  0.00  0.00    +0.202 C 
ATOM     21  C   UNL     1      34.338 -23.899 -15.272  0.00  0.00    +0.078 C 
ATOM     22  C   UNL     1      36.457 -23.193 -16.018  0.00  0.00    +0.186 C 
ATOM     23  C   UNL     1      35.315 -25.056 -15.198  0.00  0.00    +0.146 C 
ENDBRANCH  18  20
ENDBRANCH  16  18
ENDBRANCH  13  15
ENDBRANCH   7  13
ENDBRANCH   2   9
BRANCH   3  24
ATOM     24  C   UNL     1      33.729 -13.520 -23.172  0.00  0.00    +0.055 C 
ATOM     25  C   UNL     1      32.876 -10.889 -23.016  0.00  0.00    +0.070 C 
ATOM     26  C   UNL     1      32.343 -11.847 -22.154  0.00  0.00    +0.143 C 
ATOM     27  C   UNL     1      32.772 -13.173 -22.232  0.00  0.00    +0.052 C 
ATOM     28  C   UNL     1      34.269 -12.581 -24.035  0.00  0.00    +0.015 C 
ATOM     29  C   UNL     1      33.839 -11.256 -23.956  0.00  0.00    +0.007 C 
BRANCH  25  32
ATOM     30  O   UNL     1      33.383  -8.614 -22.559  0.00  0.00    -0.431 OA
ATOM     31  N   UNL     1      31.453  -7.508 -22.965  0.00  0.00    -0.203 NA
ATOM     32  C   UNL     1      32.445  -9.512 -22.951  0.00  0.00    +0.169 C 
ATOM     33  C   UNL     1      31.279  -8.848 -23.196  0.00  0.00    +0.140 C 
ATOM     34  C   UNL     1      32.710  -7.431 -22.593  0.00  0.00    +0.285 C 
ENDBRANCH  25  32
BRANCH  26  35
ATOM     35  O   UNL     1      31.401 -11.516 -21.225  0.00  0.00    -0.471 OA
ATOM     36  C   UNL     1      31.872 -11.038 -19.968  0.00  0.00    +0.252 C 
ENDBRANCH  26  35
ENDBRANCH   3  24
TORSDOF 8
ENDMDL
MODEL 6
REMARK VINA RESULT:     -10.3      4.474      8.228
REMARK  Name = 153241
REMARK  8 active torsions:
REMARK  status: ('A' for Active; 'I' for Inactive)
REMARK    1  A    between atoms: N_2  and  C_9
REMARK    2  A    between atoms: N_3  and  C_24
REMARK    3  A    between atoms: C_7  and  C_13
REMARK    4  A    between atoms: C_13  and  N_15
REMARK    5  A    between atoms: C_16  and  O_18
REMARK    6  A    between atoms: O_18  and  C_20
REMARK    7  A    between atoms: C_25  and  C_32
REMARK    8  A    between atoms: C_26  and  O_35
REMARK                            x       y       z     vdW  Elec       q    Type
REMARK                         _______ _______ _______ _____ _____    ______ ____
ROOT
ATOM      1  O   UNL     1      33.365 -14.114 -22.672  0.00  0.00    -0.252 OA
ATOM      2  N   UNL     1      33.932 -14.711 -24.866  0.00  0.00    -0.268 N 
ATOM      3  N   UNL     1      33.585 -12.489 -24.340  0.00  0.00    -0.268 N 
ATOM      4  C   UNL     1      33.601 -13.798 -23.834  0.00  0.00    +0.308 C 
ATOM      5  H   UNL     1      34.096 -14.313 -25.752  0.00  0.00    +0.156 HD
ATOM      6  H   UNL     1      33.796 -12.393 -25.296  0.00  0.00    +0.156 HD
ENDROOT
BRANCH   2   9
ATOM      7  C   UNL     1      35.090 -18.056 -23.848  0.00  0.00    -0.001 C 
ATOM      8  C   UNL     1      34.973 -16.672 -23.913  0.00  0.00    +0.012 C 
ATOM      9  C   UNL     1      34.057 -16.099 -24.794  0.00  0.00    +0.051 C 
ATOM     10  C   UNL     1      34.303 -18.874 -24.651  0.00  0.00    -0.003 C 
ATOM     11  C   UNL     1      33.263 -16.912 -25.604  0.00  0.00    +0.015 C 
ATOM     12  C   UNL     1      33.386 -18.300 -25.532  0.00  0.00    +0.001 C 
BRANCH   7  13
ATOM     13  C   UNL     1      36.078 -18.674 -22.902  0.00  0.00    +0.119 C 
BRANCH  13  15
ATOM     14  O   UNL     1      37.218 -19.470 -20.352  0.00  0.00    -0.226 OA
ATOM     15  N   UNL     1      35.424 -19.373 -21.819  0.00  0.00    -0.267 N 
ATOM     16  C   UNL     1      36.051 -19.710 -20.638  0.00  0.00    +0.402 C 
ATOM     17  H   UNL     1      34.478 -19.622 -21.931  0.00  0.00    +0.153 HD
BRANCH  16  18
ATOM     18  O   UNL     1      35.173 -20.363 -19.812  0.00  0.00    -0.436 OA
BRANCH  18  20
ATOM     19  O   UNL     1      32.631 -21.732 -18.879  0.00  0.00    -0.350 OA
ATOM     20  C   UNL     1      34.412 -21.409 -20.408  0.00  0.00    +0.202 C 
ATOM     21  C   UNL     1      34.643 -22.703 -19.667  0.00  0.00    +0.078 C 
ATOM     22  C   UNL     1      32.940 -21.152 -20.158  0.00  0.00    +0.186 C 
ATOM     23  C   UNL     1      33.735 -22.546 -18.463  0.00  0.00    +0.146 C 
ENDBRANCH  18  20
ENDBRANCH  16  18
ENDBRANCH  13  15
ENDBRANCH   7  13
ENDBRANCH   2   9
BRANCH   3  24
ATOM     24  C   UNL     1      33.302 -11.290 -23.644  0.00  0.00    +0.055 C 
ATOM     25  C   UNL     1      32.748  -8.942 -22.281  0.00  0.00    +0.070 C 
ATOM     26  C   UNL     1      33.821  -8.996 -23.170  0.00  0.00    +0.143 C 
ATOM     27  C   UNL     1      34.101 -10.179 -23.856  0.00  0.00    +0.052 C 
ATOM     28  C   UNL     1      32.232 -11.253 -22.764  0.00  0.00    +0.015 C 
ATOM     29  C   UNL     1      31.954 -10.071 -22.078  0.00  0.00    +0.007 C 
BRANCH  25  32
ATOM     30  O   UNL     1      31.760  -6.783 -22.253  0.00  0.00    -0.431 OA
ATOM     31  N   UNL     1      32.140  -6.010 -20.162  0.00  0.00    -0.203 NA
ATOM     32  C   UNL     1      32.442  -7.728 -21.561  0.00  0.00    +0.169 C 
ATOM     33  C   UNL     1      32.675  -7.264 -20.299  0.00  0.00    +0.140 C 
ATOM     34  C   UNL     1      31.616  -5.779 -21.345  0.00  0.00    +0.285 C 
ENDBRANCH  25  32
BRANCH  26  35
ATOM     35  O   UNL     1      34.614  -7.908 -23.387  0.00  0.00    -0.471 OA
ATOM     36  C   UNL     1      34.251  -7.048 -24.464  0.00  0.00    +0.252 C 
ENDBRANCH  26  35
ENDBRANCH   3  24
TORSDOF 8
ENDMDL
MODEL 7
REMARK VINA RESULT:     -10.1      2.165     12.749
REMARK  Name = 153241
REMARK  8 active torsions:
REMARK  status: ('A' for Active; 'I' for Inactive)
REMARK    1  A    between atoms: N_2  and  C_9
REMARK    2  A    between atoms: N_3  and  C_24
REMARK    3  A    between atoms: C_7  and  C_13
REMARK    4  A    between atoms: C_13  and  N_15
REMARK    5  A    between atoms: C_16  and  O_18
REMARK    6  A    between atoms: O_18  and  C_20
REMARK    7  A    between atoms: C_25  and  C_32
REMARK    8  A    between atoms: C_26  and  O_35
REMARK                            x       y       z     vdW  Elec       q    Type
REMARK                         _______ _______ _______ _____ _____    ______ ____
ROOT
ATOM      1  O   UNL     1      36.872 -21.056 -18.432  0.00  0.00    -0.252 OA
ATOM      2  N   UNL     1      35.123 -21.085 -19.991  0.00  0.00    -0.268 N 
ATOM      3  N   UNL     1      34.994 -22.409 -18.103  0.00  0.00    -0.268 N 
ATOM      4  C   UNL     1      35.779 -21.476 -18.797  0.00  0.00    +0.308 C 
ATOM      5  H   UNL     1      34.249 -21.506 -20.155  0.00  0.00    +0.156 HD
ATOM      6  H   UNL     1      34.137 -22.650 -18.524  0.00  0.00    +0.156 HD
ENDROOT
BRANCH   2   9
ATOM      7  C   UNL     1      35.158 -18.967 -23.005  0.00  0.00    -0.001 C 
ATOM      8  C   UNL     1      34.723 -19.869 -22.041  0.00  0.00    +0.012 C 
ATOM      9  C   UNL     1      35.552 -20.181 -20.964  0.00  0.00    +0.051 C 
ATOM     10  C   UNL     1      36.411 -18.372 -22.907  0.00  0.00    -0.003 C 
ATOM     11  C   UNL     1      36.811 -19.588 -20.857  0.00  0.00    +0.015 C 
ATOM     12  C   UNL     1      37.240 -18.684 -21.829  0.00  0.00    +0.001 C 
BRANCH   7  13
ATOM     13  C   UNL     1      34.267 -18.632 -24.165  0.00  0.00    +0.119 C 
BRANCH  13  15
ATOM     14  O   UNL     1      32.898 -17.270 -26.334  0.00  0.00    -0.226 OA
ATOM     15  N   UNL     1      34.371 -17.241 -24.543  0.00  0.00    -0.267 N 
ATOM     16  C   UNL     1      33.677 -16.680 -25.595  0.00  0.00    +0.402 C 
ATOM     17  H   UNL     1      34.971 -16.662 -24.020  0.00  0.00    +0.153 HD
BRANCH  16  18
ATOM     18  O   UNL     1      33.986 -15.349 -25.701  0.00  0.00    -0.436 OA
BRANCH  18  20
ATOM     19  O   UNL     1      33.960 -12.317 -25.589  0.00  0.00    -0.350 OA
ATOM     20  C   UNL     1      32.907 -14.439 -25.516  0.00  0.00    +0.202 C 
ATOM     21  C   UNL     1      32.943 -13.872 -24.119  0.00  0.00    +0.078 C 
ATOM     22  C   UNL     1      33.147 -13.210 -26.370  0.00  0.00    +0.186 C 
ATOM     23  C   UNL     1      34.006 -12.797 -24.239  0.00  0.00    +0.146 C 
ENDBRANCH  18  20
ENDBRANCH  16  18
ENDBRANCH  13  15
ENDBRANCH   7  13
ENDBRANCH   2   9
BRANCH   3  24
ATOM     24  C   UNL     1      35.282 -23.048 -16.874  0.00  0.00    +0.055 C 
ATOM     25  C   UNL     1      35.846 -24.298 -14.467  0.00  0.00    +0.070 C 
ATOM     26  C   UNL     1      34.544 -24.303 -14.967  0.00  0.00    +0.143 C 
ATOM     27  C   UNL     1      34.259 -23.673 -16.179  0.00  0.00    +0.052 C 
ATOM     28  C   UNL     1      36.581 -23.035 -16.392  0.00  0.00    +0.015 C 
ATOM     29  C   UNL     1      36.864 -23.664 -15.180  0.00  0.00    +0.007 C 
BRANCH  25  32
ATOM     30  O   UNL     1      37.183 -25.836 -13.247  0.00  0.00    -0.431 OA
ATOM     31  N   UNL     1      36.377 -25.740 -11.136  0.00  0.00    -0.203 NA
ATOM     32  C   UNL     1      36.162 -24.944 -13.214  0.00  0.00    +0.169 C 
ATOM     33  C   UNL     1      35.672 -24.885 -11.942  0.00  0.00    +0.140 C 
ATOM     34  C   UNL     1      37.252 -26.272 -11.959  0.00  0.00    +0.285 C 
ENDBRANCH  25  32
BRANCH  26  35
ATOM     35  O   UNL     1      33.530 -24.914 -14.291  0.00  0.00    -0.471 OA
ATOM     36  C   UNL     1      32.218 -24.388 -14.478  0.00  0.00    +0.252 C 
ENDBRANCH  26  35
ENDBRANCH   3  24
TORSDOF 8
ENDMDL
MODEL 8
REMARK VINA RESULT:      -9.9      2.595     11.774
REMARK  Name = 153241
REMARK  8 active torsions:
REMARK  status: ('A' for Active; 'I' for Inactive)
REMARK    1  A    between atoms: N_2  and  C_9
REMARK    2  A    between atoms: N_3  and  C_24
REMARK    3  A    between atoms: C_7  and  C_13
REMARK    4  A    between atoms: C_13  and  N_15
REMARK    5  A    between atoms: C_16  and  O_18
REMARK    6  A    between atoms: O_18  and  C_20
REMARK    7  A    between atoms: C_25  and  C_32
REMARK    8  A    between atoms: C_26  and  O_35
REMARK                            x       y       z     vdW  Elec       q    Type
REMARK                         _______ _______ _______ _____ _____    ______ ____
ROOT
ATOM      1  O   UNL     1      33.304 -20.082 -20.729  0.00  0.00    -0.252 OA
ATOM      2  N   UNL     1      35.246 -20.054 -22.040  0.00  0.00    -0.268 N 
ATOM      3  N   UNL     1      35.170 -21.363 -20.139  0.00  0.00    -0.268 N 
ATOM      4  C   UNL     1      34.451 -20.463 -20.941  0.00  0.00    +0.308 C 
ATOM      5  H   UNL     1      36.150 -20.442 -22.081  0.00  0.00    +0.156 HD
ATOM      6  H   UNL     1      36.083 -21.574 -20.439  0.00  0.00    +0.156 HD
ENDROOT
BRANCH   2   9
ATOM      7  C   UNL     1      34.876 -16.944 -23.981  0.00  0.00    -0.001 C 
ATOM      8  C   UNL     1      35.206 -17.814 -22.948  0.00  0.00    +0.012 C 
ATOM      9  C   UNL     1      34.918 -19.173 -23.072  0.00  0.00    +0.051 C 
ATOM     10  C   UNL     1      34.264 -17.415 -25.137  0.00  0.00    -0.003 C 
ATOM     11  C   UNL     1      34.304 -19.654 -24.228  0.00  0.00    +0.015 C 
ATOM     12  C   UNL     1      33.977 -18.775 -25.261  0.00  0.00    +0.001 C 
BRANCH   7  13
ATOM     13  C   UNL     1      35.184 -15.482 -23.848  0.00  0.00    +0.119 C 
BRANCH  13  15
ATOM     14  O   UNL     1      33.146 -13.890 -25.171  0.00  0.00    -0.226 OA
ATOM     15  N   UNL     1      34.096 -14.753 -23.238  0.00  0.00    -0.267 N 
ATOM     16  C   UNL     1      33.171 -14.021 -23.952  0.00  0.00    +0.402 C 
ATOM     17  H   UNL     1      34.010 -14.781 -22.258  0.00  0.00    +0.153 HD
BRANCH  16  18
ATOM     18  O   UNL     1      32.267 -13.448 -23.096  0.00  0.00    -0.436 OA
BRANCH  18  20
ATOM     19  O   UNL     1      30.883 -11.564 -21.161  0.00  0.00    -0.350 OA
ATOM     20  C   UNL     1      32.806 -12.579 -22.104  0.00  0.00    +0.202 C 
ATOM     21  C   UNL     1      32.736 -11.149 -22.578  0.00  0.00    +0.078 C 
ATOM     22  C   UNL     1      31.881 -12.568 -20.905  0.00  0.00    +0.186 C 
ATOM     23  C   UNL     1      31.290 -10.791 -22.298  0.00  0.00    +0.146 C 
ENDBRANCH  18  20
ENDBRANCH  16  18
ENDBRANCH  13  15
ENDBRANCH   7  13
ENDBRANCH   2   9
BRANCH   3  24
ATOM     24  C   UNL     1      34.743 -22.004 -18.952  0.00  0.00    +0.055 C 
ATOM     25  C   UNL     1      33.909 -23.260 -16.628  0.00  0.00    +0.070 C 
ATOM     26  C   UNL     1      35.242 -22.876 -16.773  0.00  0.00    +0.143 C 
ATOM     27  C   UNL     1      35.662 -22.244 -17.944  0.00  0.00    +0.052 C 
ATOM     28  C   UNL     1      33.416 -22.379 -18.823  0.00  0.00    +0.015 C 
ATOM     29  C   UNL     1      32.996 -23.012 -17.653  0.00  0.00    +0.007 C 
BRANCH  25  32
ATOM     30  O   UNL     1      32.122 -23.839 -15.174  0.00  0.00    -0.431 OA
ATOM     31  N   UNL     1      33.101 -25.024 -13.514  0.00  0.00    -0.203 NA
ATOM     32  C   UNL     1      33.453 -23.916 -15.424  0.00  0.00    +0.169 C 
ATOM     33  C   UNL     1      34.046 -24.629 -14.424  0.00  0.00    +0.140 C 
ATOM     34  C   UNL     1      31.988 -24.530 -14.008  0.00  0.00    +0.285 C 
ENDBRANCH  25  32
BRANCH  26  35
ATOM     35  O   UNL     1      36.155 -23.107 -15.787  0.00  0.00    -0.471 OA
ATOM     36  C   UNL     1      37.463 -22.575 -15.980  0.00  0.00    +0.252 C 
ENDBRANCH  26  35
ENDBRANCH   3  24
TORSDOF 8
ENDMDL
MODEL 9
REMARK VINA RESULT:      -9.9      1.326      1.843
REMARK  Name = 153241
REMARK  8 active torsions:
REMARK  status: ('A' for Active; 'I' for Inactive)
REMARK    1  A    between atoms: N_2  and  C_9
REMARK    2  A    between atoms: N_3  and  C_24
REMARK    3  A    between atoms: C_7  and  C_13
REMARK    4  A    between atoms: C_13  and  N_15
REMARK    5  A    between atoms: C_16  and  O_18
REMARK    6  A    between atoms: O_18  and  C_20
REMARK    7  A    between atoms: C_25  and  C_32
REMARK    8  A    between atoms: C_26  and  O_35
REMARK                            x       y       z     vdW  Elec       q    Type
REMARK                         _______ _______ _______ _____ _____    ______ ____
ROOT
ATOM      1  O   UNL     1      35.118 -18.739 -20.603  0.00  0.00    -0.252 OA
ATOM      2  N   UNL     1      35.252 -21.050 -20.963  0.00  0.00    -0.268 N 
ATOM      3  N   UNL     1      34.793 -19.642 -22.735  0.00  0.00    -0.268 N 
ATOM      4  C   UNL     1      35.059 -19.703 -21.358  0.00  0.00    +0.308 C 
ATOM      5  H   UNL     1      35.175 -21.721 -21.679  0.00  0.00    +0.156 HD
ATOM      6  H   UNL     1      34.779 -20.504 -23.211  0.00  0.00    +0.156 HD
ENDROOT
BRANCH   2   9
ATOM      7  C   UNL     1      34.863 -22.767 -17.727  0.00  0.00    -0.001 C 
ATOM      8  C   UNL     1      34.569 -22.270 -18.992  0.00  0.00    +0.012 C 
ATOM      9  C   UNL     1      35.538 -21.552 -19.692  0.00  0.00    +0.051 C 
ATOM     10  C   UNL     1      36.113 -22.556 -17.154  0.00  0.00    -0.003 C 
ATOM     11  C   UNL     1      36.794 -21.336 -19.125  0.00  0.00    +0.015 C 
ATOM     12  C   UNL     1      37.081 -21.839 -17.856  0.00  0.00    +0.001 C 
BRANCH   7  13
ATOM     13  C   UNL     1      33.821 -23.539 -16.971  0.00  0.00    +0.119 C 
BRANCH  13  15
ATOM     14  O   UNL     1      35.373 -25.621 -15.669  0.00  0.00    -0.226 OA
ATOM     15  N   UNL     1      34.146 -23.654 -15.568  0.00  0.00    -0.267 N 
ATOM     16  C   UNL     1      34.893 -24.685 -15.038  0.00  0.00    +0.402 C 
ATOM     17  H   UNL     1      33.814 -22.959 -14.956  0.00  0.00    +0.153 HD
BRANCH  16  18
ATOM     18  O   UNL     1      35.029 -24.518 -13.685  0.00  0.00    -0.436 OA
BRANCH  18  20
ATOM     19  O   UNL     1      36.437 -25.821 -11.334  0.00  0.00    -0.350 OA
ATOM     20  C   UNL     1      36.360 -24.364 -13.202  0.00  0.00    +0.202 C 
ATOM     21  C   UNL     1      36.359 -23.533 -11.943  0.00  0.00    +0.078 C 
ATOM     22  C   UNL     1      36.860 -25.704 -12.704  0.00  0.00    +0.186 C 
ATOM     23  C   UNL     1      35.952 -24.546 -10.892  0.00  0.00    +0.146 C 
ENDBRANCH  18  20
ENDBRANCH  16  18
ENDBRANCH  13  15
ENDBRANCH   7  13
ENDBRANCH   2   9
BRANCH   3  24
ATOM     24  C   UNL     1      34.543 -18.494 -23.524  0.00  0.00    +0.055 C 
ATOM     25  C   UNL     1      34.052 -16.247 -25.067  0.00  0.00    +0.070 C 
ATOM     26  C   UNL     1      34.655 -16.116 -23.816  0.00  0.00    +0.143 C 
ATOM     27  C   UNL     1      34.902 -17.248 -23.038  0.00  0.00    +0.052 C 
ATOM     28  C   UNL     1      33.943 -18.641 -24.764  0.00  0.00    +0.015 C 
ATOM     29  C   UNL     1      33.696 -17.510 -25.540  0.00  0.00    +0.007 C 
BRANCH  25  32
ATOM     30  O   UNL     1      32.985 -14.142 -25.338  0.00  0.00    -0.431 OA
ATOM     31  N   UNL     1      33.593 -13.457 -27.406  0.00  0.00    -0.203 NA
ATOM     32  C   UNL     1      33.787 -15.088 -25.887  0.00  0.00    +0.169 C 
ATOM     33  C   UNL     1      34.155 -14.678 -27.136  0.00  0.00    +0.140 C 
ATOM     34  C   UNL     1      32.915 -13.193 -26.312  0.00  0.00    +0.285 C 
ENDBRANCH  25  32
BRANCH  26  35
ATOM     35  O   UNL     1      35.013 -14.894 -23.329  0.00  0.00    -0.471 OA
ATOM     36  C   UNL     1      34.432 -14.496 -22.090  0.00  0.00    +0.252 C 
ENDBRANCH  26  35
ENDBRANCH   3  24
TORSDOF 8
ENDMDL
