MODEL 1
REMARK VINA RESULT:     -13.1      0.000      0.000
REMARK  Name = 4887
REMARK  9 active torsions:
REMARK  status: ('A' for Active; 'I' for Inactive)
REMARK    1  A    between atoms: N_2  and  C_8
REMARK    2  A    between atoms: C_3  and  C_23
REMARK    3  A    between atoms: C_14  and  C_20
REMARK    4  A    between atoms: C_22  and  O_28
REMARK    5  A    between atoms: O_28  and  C_29
REMARK    6  A    between atoms: C_29  and  C_30
REMARK    7  A    between atoms: C_30  and  C_31
REMARK    8  A    between atoms: C_31  and  C_32
REMARK    9  A    between atoms: C_32  and  C_33
REMARK                            x       y       z     vdW  Elec       q    Type
REMARK                         _______ _______ _______ _____ _____    ______ ____
ROOT
ATOM      1  O   UNL     1      33.845 -24.219 -18.671  0.00  0.00    -0.270 OA
ATOM      2  N   UNL     1      33.991 -22.583 -16.990  0.00  0.00    -0.278 N 
ATOM      3  C   UNL     1      33.942 -23.052 -18.308  0.00  0.00    +0.250 C 
ATOM      4  H   UNL     1      34.070 -21.608 -16.881  0.00  0.00    +0.155 HD
ENDROOT
BRANCH   2   8
ATOM      5  O   UNL     1      31.602 -23.544 -16.045  0.00  0.00    -0.442 OA
ATOM      6  O   UNL     1      31.328 -25.736 -12.625  0.00  0.00    -0.286 OA
ATOM      7  C   UNL     1      32.732 -23.825 -15.320  0.00  0.00    +0.163 C 
ATOM      8  C   UNL     1      33.942 -23.330 -15.810  0.00  0.00    +0.086 C 
ATOM      9  C   UNL     1      32.711 -24.568 -14.142  0.00  0.00    +0.075 C 
ATOM     10  C   UNL     1      35.126 -23.582 -15.117  0.00  0.00    +0.018 C 
ATOM     11  C   UNL     1      33.894 -24.823 -13.445  0.00  0.00    +0.006 C 
ATOM     12  C   UNL     1      31.423 -25.076 -13.650  0.00  0.00    +0.202 C 
ATOM     13  C   UNL     1      35.102 -24.327 -13.937  0.00  0.00    +0.002 C 
ATOM     14  C   UNL     1      30.378 -24.019 -15.587  0.00  0.00    +0.213 C 
ATOM     15  C   UNL     1      30.238 -24.746 -14.466  0.00  0.00    +0.090 C 
BRANCH  14  20
ATOM     16  N   UNL     1      28.967 -22.416 -16.855  0.00  0.00    -0.107 NA
ATOM     17  N   UNL     1      28.434 -24.617 -16.908  0.00  0.00    -0.084 NA
ATOM     18  N   UNL     1      27.887 -22.699 -17.596  0.00  0.00    -0.140 N 
ATOM     19  N   UNL     1      27.535 -23.990 -17.657  0.00  0.00    -0.022 NA
ATOM     20  C   UNL     1      29.276 -23.649 -16.444  0.00  0.00    +0.109 C 
ATOM     21  H   UNL     1      27.382 -21.999 -18.069  0.00  0.00    +0.197 HD
ENDBRANCH  14  20
ENDBRANCH   2   8
BRANCH   3  23
ATOM     22  C   UNL     1      34.238 -20.042 -21.330  0.00  0.00    +0.139 C 
ATOM     23  C   UNL     1      34.044 -22.006 -19.359  0.00  0.00    +0.054 C 
ATOM     24  C   UNL     1      35.393 -20.640 -20.826  0.00  0.00    +0.037 C 
ATOM     25  C   UNL     1      32.986 -20.425 -20.848  0.00  0.00    +0.037 C 
ATOM     26  C   UNL     1      35.296 -21.622 -19.840  0.00  0.00    +0.008 C 
ATOM     27  C   UNL     1      32.889 -21.407 -19.863  0.00  0.00    +0.008 C 
BRANCH  22  28
ATOM     28  O   UNL     1      34.332 -19.086 -22.294  0.00  0.00    -0.475 OA
BRANCH  28  29
ATOM     29  C   UNL     1      35.261 -19.319 -23.351  0.00  0.00    +0.205 C 
BRANCH  29  30
ATOM     30  C   UNL     1      34.489 -19.526 -24.647  0.00  0.00    +0.048 C 
BRANCH  30  31
ATOM     31  C   UNL     1      33.736 -18.263 -25.062  0.00  0.00    +0.009 C 
BRANCH  31  32
ATOM     32  C   UNL     1      34.696 -17.088 -25.264  0.00  0.00    +0.026 C 
BRANCH  32  33
ATOM     33  C   UNL     1      34.307 -15.900 -24.420  0.00  0.00    -0.022 C 
ATOM     34  C   UNL     1      33.392 -14.968 -24.909  0.00  0.00    -0.004 C 
ATOM     35  C   UNL     1      34.862 -15.733 -23.153  0.00  0.00    -0.004 C 
ATOM     36  C   UNL     1      33.032 -13.869 -24.130  0.00  0.00    -0.000 C 
ATOM     37  C   UNL     1      34.502 -14.635 -22.372  0.00  0.00    -0.000 C 
ATOM     38  C   UNL     1      33.587 -13.702 -22.861  0.00  0.00    -0.000 C 
ENDBRANCH  32  33
ENDBRANCH  31  32
ENDBRANCH  30  31
ENDBRANCH  29  30
ENDBRANCH  28  29
ENDBRANCH  22  28
ENDBRANCH   3  23
TORSDOF 9
ENDMDL
MODEL 2
REMARK VINA RESULT:     -12.7      1.005      1.709
REMARK  Name = 4887
REMARK  9 active torsions:
REMARK  status: ('A' for Active; 'I' for Inactive)
REMARK    1  A    between atoms: N_2  and  C_8
REMARK    2  A    between atoms: C_3  and  C_23
REMARK    3  A    between atoms: C_14  and  C_20
REMARK    4  A    between atoms: C_22  and  O_28
REMARK    5  A    between atoms: O_28  and  C_29
REMARK    6  A    between atoms: C_29  and  C_30
REMARK    7  A    between atoms: C_30  and  C_31
REMARK    8  A    between atoms: C_31  and  C_32
REMARK    9  A    between atoms: C_32  and  C_33
REMARK                            x       y       z     vdW  Elec       q    Type
REMARK                         _______ _______ _______ _____ _____    ______ ____
ROOT
ATOM      1  O   UNL     1      33.832 -24.300 -18.509  0.00  0.00    -0.270 OA
ATOM      2  N   UNL     1      34.006 -22.641 -16.852  0.00  0.00    -0.278 N 
ATOM      3  C   UNL     1      33.962 -23.130 -18.163  0.00  0.00    +0.250 C 
ATOM      4  H   UNL     1      34.115 -21.668 -16.757  0.00  0.00    +0.155 HD
ENDROOT
BRANCH   2   8
ATOM      5  O   UNL     1      31.582 -23.568 -15.965  0.00  0.00    -0.442 OA
ATOM      6  O   UNL     1      31.185 -25.697 -12.517  0.00  0.00    -0.286 OA
ATOM      7  C   UNL     1      32.687 -23.844 -15.201  0.00  0.00    +0.163 C 
ATOM      8  C   UNL     1      33.915 -23.367 -15.661  0.00  0.00    +0.086 C 
ATOM      9  C   UNL     1      32.623 -24.566 -14.011  0.00  0.00    +0.075 C 
ATOM     10  C   UNL     1      35.075 -23.615 -14.927  0.00  0.00    +0.018 C 
ATOM     11  C   UNL     1      33.782 -24.817 -13.273  0.00  0.00    +0.006 C 
ATOM     12  C   UNL     1      31.316 -25.056 -13.550  0.00  0.00    +0.202 C 
ATOM     13  C   UNL     1      35.008 -24.338 -13.735  0.00  0.00    +0.002 C 
ATOM     14  C   UNL     1      30.340 -24.026 -15.538  0.00  0.00    +0.213 C 
ATOM     15  C   UNL     1      30.159 -24.731 -14.409  0.00  0.00    +0.090 C 
BRANCH  14  20
ATOM     16  N   UNL     1      29.003 -22.441 -16.903  0.00  0.00    -0.107 NA
ATOM     17  N   UNL     1      28.411 -24.628 -16.878  0.00  0.00    -0.084 NA
ATOM     18  N   UNL     1      27.932 -22.726 -17.658  0.00  0.00    -0.140 N 
ATOM     19  N   UNL     1      27.546 -24.010 -17.673  0.00  0.00    -0.022 NA
ATOM     20  C   UNL     1      29.268 -23.664 -16.435  0.00  0.00    +0.109 C 
ATOM     21  H   UNL     1      27.457 -22.034 -18.171  0.00  0.00    +0.197 HD
ENDBRANCH  14  20
ENDBRANCH   2   8
BRANCH   3  23
ATOM     22  C   UNL     1      34.399 -20.183 -21.229  0.00  0.00    +0.139 C 
ATOM     23  C   UNL     1      34.115 -22.106 -19.229  0.00  0.00    +0.054 C 
ATOM     24  C   UNL     1      33.128 -20.526 -20.768  0.00  0.00    +0.037 C 
ATOM     25  C   UNL     1      35.528 -20.801 -20.691  0.00  0.00    +0.037 C 
ATOM     26  C   UNL     1      32.986 -21.488 -19.768  0.00  0.00    +0.008 C 
ATOM     27  C   UNL     1      35.386 -21.762 -19.690  0.00  0.00    +0.008 C 
BRANCH  22  28
ATOM     28  O   UNL     1      34.538 -19.243 -22.204  0.00  0.00    -0.475 OA
BRANCH  28  29
ATOM     29  C   UNL     1      35.336 -18.101 -21.895  0.00  0.00    +0.205 C 
BRANCH  29  30
ATOM     30  C   UNL     1      35.683 -17.379 -23.189  0.00  0.00    +0.048 C 
BRANCH  30  31
ATOM     31  C   UNL     1      34.917 -16.064 -23.324  0.00  0.00    +0.009 C 
BRANCH  31  32
ATOM     32  C   UNL     1      34.800 -15.351 -21.975  0.00  0.00    +0.026 C 
BRANCH  32  33
ATOM     33  C   UNL     1      33.859 -14.175 -22.047  0.00  0.00    -0.022 C 
ATOM     34  C   UNL     1      33.913 -13.305 -23.136  0.00  0.00    -0.004 C 
ATOM     35  C   UNL     1      32.936 -13.956 -21.026  0.00  0.00    -0.004 C 
ATOM     36  C   UNL     1      33.044 -12.216 -23.204  0.00  0.00    -0.000 C 
ATOM     37  C   UNL     1      32.066 -12.868 -21.092  0.00  0.00    -0.000 C 
ATOM     38  C   UNL     1      32.120 -11.998 -22.181  0.00  0.00    -0.000 C 
ENDBRANCH  32  33
ENDBRANCH  31  32
ENDBRANCH  30  31
ENDBRANCH  29  30
ENDBRANCH  28  29
ENDBRANCH  22  28
ENDBRANCH   3  23
TORSDOF 9
ENDMDL
MODEL 3
REMARK VINA RESULT:     -12.7      1.890      4.127
REMARK  Name = 4887
REMARK  9 active torsions:
REMARK  status: ('A' for Active; 'I' for Inactive)
REMARK    1  A    between atoms: N_2  and  C_8
REMARK    2  A    between atoms: C_3  and  C_23
REMARK    3  A    between atoms: C_14  and  C_20
REMARK    4  A    between atoms: C_22  and  O_28
REMARK    5  A    between atoms: O_28  and  C_29
REMARK    6  A    between atoms: C_29  and  C_30
REMARK    7  A    between atoms: C_30  and  C_31
REMARK    8  A    between atoms: C_31  and  C_32
REMARK    9  A    between atoms: C_32  and  C_33
REMARK                            x       y       z     vdW  Elec       q    Type
REMARK                         _______ _______ _______ _____ _____    ______ ____
ROOT
ATOM      1  O   UNL     1      33.666 -24.061 -18.708  0.00  0.00    -0.270 OA
ATOM      2  N   UNL     1      32.409 -22.343 -17.711  0.00  0.00    -0.278 N 
ATOM      3  C   UNL     1      33.343 -22.883 -18.603  0.00  0.00    +0.250 C 
ATOM      4  H   UNL     1      32.273 -21.369 -17.765  0.00  0.00    +0.155 HD
ENDROOT
BRANCH   2   8
ATOM      5  O   UNL     1      33.621 -23.599 -15.596  0.00  0.00    -0.442 OA
ATOM      6  O   UNL     1      31.513 -25.593 -12.739  0.00  0.00    -0.286 OA
ATOM      7  C   UNL     1      32.253 -23.660 -15.673  0.00  0.00    +0.163 C 
ATOM      8  C   UNL     1      31.647 -23.017 -16.753  0.00  0.00    +0.086 C 
ATOM      9  C   UNL     1      31.470 -24.324 -14.731  0.00  0.00    +0.075 C 
ATOM     10  C   UNL     1      30.259 -23.043 -16.887  0.00  0.00    +0.018 C 
ATOM     11  C   UNL     1      30.080 -24.353 -14.860  0.00  0.00    +0.006 C 
ATOM     12  C   UNL     1      32.136 -24.992 -13.604  0.00  0.00    +0.202 C 
ATOM     13  C   UNL     1      29.477 -23.710 -15.942  0.00  0.00    +0.002 C 
ATOM     14  C   UNL     1      34.260 -24.229 -14.534  0.00  0.00    +0.213 C 
ATOM     15  C   UNL     1      33.609 -24.898 -13.568  0.00  0.00    +0.090 C 
BRANCH  14  20
ATOM     16  N   UNL     1      36.532 -24.712 -15.415  0.00  0.00    -0.107 NA
ATOM     17  N   UNL     1      36.315 -23.246 -13.702  0.00  0.00    -0.084 NA
ATOM     18  N   UNL     1      37.692 -24.194 -14.988  0.00  0.00    -0.140 N 
ATOM     19  N   UNL     1      37.611 -23.321 -13.975  0.00  0.00    -0.022 NA
ATOM     20  C   UNL     1      35.697 -24.087 -14.579  0.00  0.00    +0.109 C 
ATOM     21  H   UNL     1      38.554 -24.441 -15.396  0.00  0.00    +0.197 HD
ENDBRANCH  14  20
ENDBRANCH   2   8
BRANCH   3  23
ATOM     22  C   UNL     1      35.286 -20.051 -21.151  0.00  0.00    +0.139 C 
ATOM     23  C   UNL     1      34.018 -21.898 -19.489  0.00  0.00    +0.054 C 
ATOM     24  C   UNL     1      36.046 -20.931 -20.379  0.00  0.00    +0.037 C 
ATOM     25  C   UNL     1      33.893 -20.095 -21.092  0.00  0.00    +0.037 C 
ATOM     26  C   UNL     1      35.411 -21.854 -19.547  0.00  0.00    +0.008 C 
ATOM     27  C   UNL     1      33.259 -21.019 -20.261  0.00  0.00    +0.008 C 
BRANCH  22  28
ATOM     28  O   UNL     1      35.905 -19.152 -21.964  0.00  0.00    -0.475 OA
BRANCH  28  29
ATOM     29  C   UNL     1      35.349 -17.839 -22.021  0.00  0.00    +0.205 C 
BRANCH  29  30
ATOM     30  C   UNL     1      35.229 -17.419 -23.479  0.00  0.00    +0.048 C 
BRANCH  30  31
ATOM     31  C   UNL     1      34.684 -15.998 -23.613  0.00  0.00    +0.009 C 
BRANCH  31  32
ATOM     32  C   UNL     1      34.864 -15.211 -22.312  0.00  0.00    +0.026 C 
BRANCH  32  33
ATOM     33  C   UNL     1      33.840 -14.112 -22.181  0.00  0.00    -0.022 C 
ATOM     34  C   UNL     1      33.728 -13.141 -23.175  0.00  0.00    -0.004 C 
ATOM     35  C   UNL     1      33.006 -14.066 -21.065  0.00  0.00    -0.004 C 
ATOM     36  C   UNL     1      32.782 -12.124 -23.054  0.00  0.00    -0.000 C 
ATOM     37  C   UNL     1      32.058 -13.050 -20.942  0.00  0.00    -0.000 C 
ATOM     38  C   UNL     1      31.946 -12.078 -21.937  0.00  0.00    -0.000 C 
ENDBRANCH  32  33
ENDBRANCH  31  32
ENDBRANCH  30  31
ENDBRANCH  29  30
ENDBRANCH  28  29
ENDBRANCH  22  28
ENDBRANCH   3  23
TORSDOF 9
ENDMDL
MODEL 4
REMARK VINA RESULT:     -12.3      1.274      1.983
REMARK  Name = 4887
REMARK  9 active torsions:
REMARK  status: ('A' for Active; 'I' for Inactive)
REMARK    1  A    between atoms: N_2  and  C_8
REMARK    2  A    between atoms: C_3  and  C_23
REMARK    3  A    between atoms: C_14  and  C_20
REMARK    4  A    between atoms: C_22  and  O_28
REMARK    5  A    between atoms: O_28  and  C_29
REMARK    6  A    between atoms: C_29  and  C_30
REMARK    7  A    between atoms: C_30  and  C_31
REMARK    8  A    between atoms: C_31  and  C_32
REMARK    9  A    between atoms: C_32  and  C_33
REMARK                            x       y       z     vdW  Elec       q    Type
REMARK                         _______ _______ _______ _____ _____    ______ ____
ROOT
ATOM      1  O   UNL     1      34.214 -23.773 -18.321  0.00  0.00    -0.270 OA
ATOM      2  N   UNL     1      35.578 -22.210 -17.216  0.00  0.00    -0.278 N 
ATOM      3  C   UNL     1      34.770 -22.682 -18.257  0.00  0.00    +0.250 C 
ATOM      4  H   UNL     1      35.945 -21.304 -17.331  0.00  0.00    +0.155 HD
ENDROOT
BRANCH   2   8
ATOM      5  O   UNL     1      33.642 -23.147 -15.516  0.00  0.00    -0.442 OA
ATOM      6  O   UNL     1      34.532 -25.085 -12.047  0.00  0.00    -0.286 OA
ATOM      7  C   UNL     1      34.951 -23.350 -15.162  0.00  0.00    +0.163 C 
ATOM      8  C   UNL     1      35.928 -22.869 -16.034  0.00  0.00    +0.086 C 
ATOM      9  C   UNL     1      35.327 -24.004 -13.991  0.00  0.00    +0.075 C 
ATOM     10  C   UNL     1      37.278 -23.044 -15.730  0.00  0.00    +0.018 C 
ATOM     11  C   UNL     1      36.677 -24.183 -13.682  0.00  0.00    +0.006 C 
ATOM     12  C   UNL     1      34.276 -24.501 -13.091  0.00  0.00    +0.202 C 
ATOM     13  C   UNL     1      37.652 -23.700 -14.556  0.00  0.00    +0.002 C 
ATOM     14  C   UNL     1      32.640 -23.612 -14.670  0.00  0.00    +0.213 C 
ATOM     15  C   UNL     1      32.884 -24.256 -13.516  0.00  0.00    +0.090 C 
BRANCH  14  20
ATOM     16  N   UNL     1      30.239 -23.026 -14.428  0.00  0.00    -0.107 NA
ATOM     17  N   UNL     1      31.076 -23.362 -16.506  0.00  0.00    -0.084 NA
ATOM     18  N   UNL     1      29.339 -22.877 -15.410  0.00  0.00    -0.140 N 
ATOM     19  N   UNL     1      29.791 -23.067 -16.657  0.00  0.00    -0.022 NA
ATOM     20  C   UNL     1      31.313 -23.329 -15.163  0.00  0.00    +0.109 C 
ATOM     21  H   UNL     1      28.401 -22.643 -15.226  0.00  0.00    +0.197 HD
ENDBRANCH  14  20
ENDBRANCH   2   8
BRANCH   3  23
ATOM     22  C   UNL     1      34.290 -20.006 -21.558  0.00  0.00    +0.139 C 
ATOM     23  C   UNL     1      34.604 -21.751 -19.405  0.00  0.00    +0.054 C 
ATOM     24  C   UNL     1      33.168 -20.510 -20.900  0.00  0.00    +0.037 C 
ATOM     25  C   UNL     1      35.569 -20.374 -21.139  0.00  0.00    +0.037 C 
ATOM     26  C   UNL     1      33.325 -21.383 -19.823  0.00  0.00    +0.008 C 
ATOM     27  C   UNL     1      35.726 -21.247 -20.063  0.00  0.00    +0.008 C 
BRANCH  22  28
ATOM     28  O   UNL     1      34.137 -19.152 -22.606  0.00  0.00    -0.475 OA
BRANCH  28  29
ATOM     29  C   UNL     1      35.061 -19.279 -23.687  0.00  0.00    +0.205 C 
BRANCH  29  30
ATOM     30  C   UNL     1      34.283 -19.338 -24.994  0.00  0.00    +0.048 C 
BRANCH  30  31
ATOM     31  C   UNL     1      33.543 -18.029 -25.268  0.00  0.00    +0.009 C 
BRANCH  31  32
ATOM     32  C   UNL     1      34.521 -16.863 -25.425  0.00  0.00    +0.026 C 
BRANCH  32  33
ATOM     33  C   UNL     1      34.220 -15.749 -24.454  0.00  0.00    -0.022 C 
ATOM     34  C   UNL     1      33.342 -14.728 -24.815  0.00  0.00    -0.004 C 
ATOM     35  C   UNL     1      34.819 -15.741 -23.195  0.00  0.00    -0.004 C 
ATOM     36  C   UNL     1      33.064 -13.697 -23.917  0.00  0.00    -0.000 C 
ATOM     37  C   UNL     1      34.541 -14.711 -22.296  0.00  0.00    -0.000 C 
ATOM     38  C   UNL     1      33.664 -13.689 -22.657  0.00  0.00    -0.000 C 
ENDBRANCH  32  33
ENDBRANCH  31  32
ENDBRANCH  30  31
ENDBRANCH  29  30
ENDBRANCH  28  29
ENDBRANCH  22  28
ENDBRANCH   3  23
TORSDOF 9
ENDMDL
MODEL 5
REMARK VINA RESULT:     -10.8      1.941      2.989
REMARK  Name = 4887
REMARK  9 active torsions:
REMARK  status: ('A' for Active; 'I' for Inactive)
REMARK    1  A    between atoms: N_2  and  C_8
REMARK    2  A    between atoms: C_3  and  C_23
REMARK    3  A    between atoms: C_14  and  C_20
REMARK    4  A    between atoms: C_22  and  O_28
REMARK    5  A    between atoms: O_28  and  C_29
REMARK    6  A    between atoms: C_29  and  C_30
REMARK    7  A    between atoms: C_30  and  C_31
REMARK    8  A    between atoms: C_31  and  C_32
REMARK    9  A    between atoms: C_32  and  C_33
REMARK                            x       y       z     vdW  Elec       q    Type
REMARK                         _______ _______ _______ _____ _____    ______ ____
ROOT
ATOM      1  O   UNL     1      34.983 -23.235 -19.314  0.00  0.00    -0.270 OA
ATOM      2  N   UNL     1      36.159 -21.757 -17.915  0.00  0.00    -0.278 N 
ATOM      3  C   UNL     1      35.442 -22.127 -19.059  0.00  0.00    +0.250 C 
ATOM      4  H   UNL     1      36.453 -20.819 -17.874  0.00  0.00    +0.155 HD
ENDROOT
BRANCH   2   8
ATOM      5  O   UNL     1      34.223 -22.976 -16.402  0.00  0.00    -0.442 OA
ATOM      6  O   UNL     1      35.112 -25.335 -13.204  0.00  0.00    -0.286 OA
ATOM      7  C   UNL     1      35.532 -23.183 -16.047  0.00  0.00    +0.163 C 
ATOM      8  C   UNL     1      36.509 -22.558 -16.824  0.00  0.00    +0.086 C 
ATOM      9  C   UNL     1      35.907 -23.977 -14.966  0.00  0.00    +0.075 C 
ATOM     10  C   UNL     1      37.857 -22.731 -16.514  0.00  0.00    +0.018 C 
ATOM     11  C   UNL     1      37.256 -24.153 -14.652  0.00  0.00    +0.006 C 
ATOM     12  C   UNL     1      34.857 -24.623 -14.166  0.00  0.00    +0.202 C 
ATOM     13  C   UNL     1      38.231 -23.527 -15.430  0.00  0.00    +0.002 C 
ATOM     14  C   UNL     1      33.222 -23.581 -15.650  0.00  0.00    +0.213 C 
ATOM     15  C   UNL     1      33.466 -24.367 -14.588  0.00  0.00    +0.090 C 
BRANCH  14  20
ATOM     16  N   UNL     1      31.579 -22.782 -17.332  0.00  0.00    -0.107 NA
ATOM     17  N   UNL     1      30.821 -23.494 -15.320  0.00  0.00    -0.084 NA
ATOM     18  N   UNL     1      30.247 -22.716 -17.195  0.00  0.00    -0.140 N 
ATOM     19  N   UNL     1      29.755 -23.127 -16.019  0.00  0.00    -0.022 NA
ATOM     20  C   UNL     1      31.895 -23.276 -16.132  0.00  0.00    +0.109 C 
ATOM     21  H   UNL     1      29.666 -22.384 -17.916  0.00  0.00    +0.197 HD
ENDBRANCH  14  20
ENDBRANCH   2   8
BRANCH   3  23
ATOM     22  C   UNL     1      34.894 -19.027 -21.953  0.00  0.00    +0.139 C 
ATOM     23  C   UNL     1      35.251 -21.050 -20.065  0.00  0.00    +0.054 C 
ATOM     24  C   UNL     1      36.174 -19.326 -21.484  0.00  0.00    +0.037 C 
ATOM     25  C   UNL     1      33.793 -19.740 -21.477  0.00  0.00    +0.037 C 
ATOM     26  C   UNL     1      36.352 -20.337 -20.539  0.00  0.00    +0.008 C 
ATOM     27  C   UNL     1      33.971 -20.751 -20.534  0.00  0.00    +0.008 C 
BRANCH  22  28
ATOM     28  O   UNL     1      34.720 -18.042 -22.875  0.00  0.00    -0.475 OA
BRANCH  28  29
ATOM     29  C   UNL     1      35.466 -16.841 -22.690  0.00  0.00    +0.205 C 
BRANCH  29  30
ATOM     30  C   UNL     1      35.094 -16.233 -21.345  0.00  0.00    +0.048 C 
BRANCH  30  31
ATOM     31  C   UNL     1      34.141 -15.049 -21.507  0.00  0.00    +0.009 C 
BRANCH  31  32
ATOM     32  C   UNL     1      34.298 -14.396 -22.882  0.00  0.00    +0.026 C 
BRANCH  32  33
ATOM     33  C   UNL     1      33.648 -13.036 -22.930  0.00  0.00    -0.022 C 
ATOM     34  C   UNL     1      34.053 -12.103 -23.884  0.00  0.00    -0.004 C 
ATOM     35  C   UNL     1      32.642 -12.711 -22.021  0.00  0.00    -0.004 C 
ATOM     36  C   UNL     1      33.453 -10.845 -23.928  0.00  0.00    -0.000 C 
ATOM     37  C   UNL     1      32.041 -11.454 -22.064  0.00  0.00    -0.000 C 
ATOM     38  C   UNL     1      32.447 -10.520 -23.018  0.00  0.00    -0.000 C 
ENDBRANCH  32  33
ENDBRANCH  31  32
ENDBRANCH  30  31
ENDBRANCH  29  30
ENDBRANCH  28  29
ENDBRANCH  22  28
ENDBRANCH   3  23
TORSDOF 9
ENDMDL
MODEL 6
REMARK VINA RESULT:     -10.3      2.514      3.450
REMARK  Name = 4887
REMARK  9 active torsions:
REMARK  status: ('A' for Active; 'I' for Inactive)
REMARK    1  A    between atoms: N_2  and  C_8
REMARK    2  A    between atoms: C_3  and  C_23
REMARK    3  A    between atoms: C_14  and  C_20
REMARK    4  A    between atoms: C_22  and  O_28
REMARK    5  A    between atoms: O_28  and  C_29
REMARK    6  A    between atoms: C_29  and  C_30
REMARK    7  A    between atoms: C_30  and  C_31
REMARK    8  A    between atoms: C_31  and  C_32
REMARK    9  A    between atoms: C_32  and  C_33
REMARK                            x       y       z     vdW  Elec       q    Type
REMARK                         _______ _______ _______ _____ _____    ______ ____
ROOT
ATOM      1  O   UNL     1      37.863 -21.236 -16.472  0.00  0.00    -0.270 OA
ATOM      2  N   UNL     1      36.815 -23.338 -16.551  0.00  0.00    -0.278 N 
ATOM      3  C   UNL     1      37.122 -22.052 -17.010  0.00  0.00    +0.250 C 
ATOM      4  H   UNL     1      36.198 -23.861 -17.112  0.00  0.00    +0.155 HD
ENDROOT
BRANCH   2   8
ATOM      5  O   UNL     1      35.084 -23.961 -14.517  0.00  0.00    -0.442 OA
ATOM      6  O   UNL     1      36.304 -25.804 -11.096  0.00  0.00    -0.286 OA
ATOM      7  C   UNL     1      36.404 -24.292 -14.352  0.00  0.00    +0.163 C 
ATOM      8  C   UNL     1      37.277 -23.970 -15.393  0.00  0.00    +0.086 C 
ATOM      9  C   UNL     1      36.890 -24.922 -13.208  0.00  0.00    +0.075 C 
ATOM     10  C   UNL     1      38.632 -24.281 -15.284  0.00  0.00    +0.018 C 
ATOM     11  C   UNL     1      38.246 -25.236 -13.095  0.00  0.00    +0.006 C 
ATOM     12  C   UNL     1      35.949 -25.249 -12.128  0.00  0.00    +0.202 C 
ATOM     13  C   UNL     1      39.116 -24.912 -14.137  0.00  0.00    +0.002 C 
ATOM     14  C   UNL     1      34.185 -24.265 -13.500  0.00  0.00    +0.213 C 
ATOM     15  C   UNL     1      34.540 -24.871 -12.354  0.00  0.00    +0.090 C 
BRANCH  14  20
ATOM     16  N   UNL     1      32.304 -23.710 -15.022  0.00  0.00    -0.107 NA
ATOM     17  N   UNL     1      31.968 -23.589 -12.785  0.00  0.00    -0.084 NA
ATOM     18  N   UNL     1      31.065 -23.333 -14.675  0.00  0.00    -0.140 N 
ATOM     19  N   UNL     1      30.822 -23.248 -13.360  0.00  0.00    -0.022 NA
ATOM     20  C   UNL     1      32.833 -23.860 -13.805  0.00  0.00    +0.109 C 
ATOM     21  H   UNL     1      30.374 -23.130 -15.346  0.00  0.00    +0.197 HD
ENDBRANCH  14  20
ENDBRANCH   2   8
BRANCH   3  23
ATOM     22  C   UNL     1      35.180 -20.895 -20.639  0.00  0.00    +0.139 C 
ATOM     23  C   UNL     1      36.448 -21.649 -18.271  0.00  0.00    +0.054 C 
ATOM     24  C   UNL     1      34.528 -21.734 -19.735  0.00  0.00    +0.037 C 
ATOM     25  C   UNL     1      36.466 -20.433 -20.359  0.00  0.00    +0.037 C 
ATOM     26  C   UNL     1      35.162 -22.112 -18.552  0.00  0.00    +0.008 C 
ATOM     27  C   UNL     1      37.100 -20.810 -19.175  0.00  0.00    +0.008 C 
BRANCH  22  28
ATOM     28  O   UNL     1      34.561 -20.525 -21.793  0.00  0.00    -0.475 OA
BRANCH  28  29
ATOM     29  C   UNL     1      35.238 -19.578 -22.618  0.00  0.00    +0.205 C 
BRANCH  29  30
ATOM     30  C   UNL     1      34.384 -19.298 -23.847  0.00  0.00    +0.048 C 
BRANCH  30  31
ATOM     31  C   UNL     1      34.704 -17.934 -24.457  0.00  0.00    +0.009 C 
BRANCH  31  32
ATOM     32  C   UNL     1      35.081 -16.919 -23.375  0.00  0.00    +0.026 C 
BRANCH  32  33
ATOM     33  C   UNL     1      34.443 -15.576 -23.626  0.00  0.00    -0.022 C 
ATOM     34  C   UNL     1      33.772 -15.336 -24.826  0.00  0.00    -0.004 C 
ATOM     35  C   UNL     1      34.524 -14.573 -22.661  0.00  0.00    -0.004 C 
ATOM     36  C   UNL     1      33.183 -14.094 -25.059  0.00  0.00    -0.000 C 
ATOM     37  C   UNL     1      33.934 -13.331 -22.893  0.00  0.00    -0.000 C 
ATOM     38  C   UNL     1      33.264 -13.091 -24.093  0.00  0.00    -0.000 C 
ENDBRANCH  32  33
ENDBRANCH  31  32
ENDBRANCH  30  31
ENDBRANCH  29  30
ENDBRANCH  28  29
ENDBRANCH  22  28
ENDBRANCH   3  23
TORSDOF 9
ENDMDL
MODEL 7
REMARK VINA RESULT:     -10.2      2.233      4.645
REMARK  Name = 4887
REMARK  9 active torsions:
REMARK  status: ('A' for Active; 'I' for Inactive)
REMARK    1  A    between atoms: N_2  and  C_8
REMARK    2  A    between atoms: C_3  and  C_23
REMARK    3  A    between atoms: C_14  and  C_20
REMARK    4  A    between atoms: C_22  and  O_28
REMARK    5  A    between atoms: O_28  and  C_29
REMARK    6  A    between atoms: C_29  and  C_30
REMARK    7  A    between atoms: C_30  and  C_31
REMARK    8  A    between atoms: C_31  and  C_32
REMARK    9  A    between atoms: C_32  and  C_33
REMARK                            x       y       z     vdW  Elec       q    Type
REMARK                         _______ _______ _______ _____ _____    ______ ____
ROOT
ATOM      1  O   UNL     1      33.772 -24.294 -18.117  0.00  0.00    -0.270 OA
ATOM      2  N   UNL     1      33.102 -22.524 -16.721  0.00  0.00    -0.278 N 
ATOM      3  C   UNL     1      33.559 -23.104 -17.911  0.00  0.00    +0.250 C 
ATOM      4  H   UNL     1      32.985 -21.547 -16.734  0.00  0.00    +0.155 HD
ENDROOT
BRANCH   2   8
ATOM      5  O   UNL     1      35.084 -23.622 -15.176  0.00  0.00    -0.442 OA
ATOM      6  O   UNL     1      34.313 -25.509 -11.650  0.00  0.00    -0.286 OA
ATOM      7  C   UNL     1      33.793 -23.726 -14.724  0.00  0.00    +0.163 C 
ATOM      8  C   UNL     1      32.793 -23.164 -15.518  0.00  0.00    +0.086 C 
ATOM      9  C   UNL     1      33.458 -24.358 -13.528  0.00  0.00    +0.075 C 
ATOM     10  C   UNL     1      31.460 -23.238 -15.112  0.00  0.00    +0.018 C 
ATOM     11  C   UNL     1      32.126 -24.434 -13.117  0.00  0.00    +0.006 C 
ATOM     12  C   UNL     1      34.532 -24.940 -12.711  0.00  0.00    +0.202 C 
ATOM     13  C   UNL     1      31.127 -23.871 -13.914  0.00  0.00    +0.002 C 
ATOM     14  C   UNL     1      36.107 -24.171 -14.411  0.00  0.00    +0.213 C 
ATOM     15  C   UNL     1      35.903 -24.802 -13.243  0.00  0.00    +0.090 C 
BRANCH  14  20
ATOM     16  N   UNL     1      38.405 -24.883 -15.027  0.00  0.00    -0.107 NA
ATOM     17  N   UNL     1      37.710 -22.810 -15.619  0.00  0.00    -0.084 NA
ATOM     18  N   UNL     1      39.324 -24.168 -15.692  0.00  0.00    -0.140 N 
ATOM     19  N   UNL     1      38.955 -22.934 -16.062  0.00  0.00    -0.022 NA
ATOM     20  C   UNL     1      37.411 -23.991 -15.005  0.00  0.00    +0.109 C 
ATOM     21  H   UNL     1      40.217 -24.527 -15.896  0.00  0.00    +0.197 HD
ENDBRANCH  14  20
ENDBRANCH   2   8
BRANCH   3  23
ATOM     22  C   UNL     1      34.333 -20.362 -21.100  0.00  0.00    +0.139 C 
ATOM     23  C   UNL     1      33.829 -22.150 -19.020  0.00  0.00    +0.054 C 
ATOM     24  C   UNL     1      33.021 -20.613 -20.699  0.00  0.00    +0.037 C 
ATOM     25  C   UNL     1      35.393 -21.005 -20.461  0.00  0.00    +0.037 C 
ATOM     26  C   UNL     1      32.768 -21.508 -19.659  0.00  0.00    +0.008 C 
ATOM     27  C   UNL     1      35.141 -21.899 -19.420  0.00  0.00    +0.008 C 
BRANCH  22  28
ATOM     28  O   UNL     1      34.579 -19.487 -22.113  0.00  0.00    -0.475 OA
BRANCH  28  29
ATOM     29  C   UNL     1      35.459 -18.399 -21.832  0.00  0.00    +0.205 C 
BRANCH  29  30
ATOM     30  C   UNL     1      35.808 -17.700 -23.138  0.00  0.00    +0.048 C 
BRANCH  30  31
ATOM     31  C   UNL     1      35.087 -16.359 -23.269  0.00  0.00    +0.009 C 
BRANCH  31  32
ATOM     32  C   UNL     1      34.942 -15.673 -21.909  0.00  0.00    +0.026 C 
BRANCH  32  33
ATOM     33  C   UNL     1      33.983 -14.511 -21.972  0.00  0.00    -0.022 C 
ATOM     34  C   UNL     1      33.113 -14.266 -20.909  0.00  0.00    -0.004 C 
ATOM     35  C   UNL     1      33.964 -13.681 -23.092  0.00  0.00    -0.004 C 
ATOM     36  C   UNL     1      32.225 -13.193 -20.967  0.00  0.00    -0.000 C 
ATOM     37  C   UNL     1      33.077 -12.607 -23.151  0.00  0.00    -0.000 C 
ATOM     38  C   UNL     1      32.208 -12.362 -22.088  0.00  0.00    -0.000 C 
ENDBRANCH  32  33
ENDBRANCH  31  32
ENDBRANCH  30  31
ENDBRANCH  29  30
ENDBRANCH  28  29
ENDBRANCH  22  28
ENDBRANCH   3  23
TORSDOF 9
ENDMDL
