MODEL 1
REMARK VINA RESULT:     -11.3      0.000      0.000
REMARK  Name = 2765355
REMARK  2 active torsions:
REMARK  status: ('A' for Active; 'I' for Inactive)
REMARK    1  A    between atoms: C_4  and  C_20
REMARK    2  A    between atoms: C_6  and  C_13
REMARK                            x       y       z     vdW  Elec       q    Type
REMARK                         _______ _______ _______ _____ _____    ______ ____
ROOT
ATOM      1  O   UNL     1      31.577 -22.857 -17.733  0.00  0.00    -0.353 OA
ATOM      2  N   UNL     1      31.134 -23.549 -16.613  0.00  0.00    -0.077 NA
ATOM      3  C   UNL     1      33.381 -23.281 -16.539  0.00  0.00    +0.058 A 
ATOM      4  C   UNL     1      32.925 -22.699 -17.683  0.00  0.00    +0.177 A 
ATOM      5  C   UNL     1      32.223 -23.816 -15.870  0.00  0.00    +0.123 A 
ATOM      6  C   UNL     1      34.803 -24.013 -14.885  0.00  0.00    +0.031 C 
ATOM      7  C   UNL     1      34.701 -23.335 -16.116  0.00  0.00    +0.007 C 
ATOM      8  C   UNL     1      32.352 -24.489 -14.643  0.00  0.00    +0.023 C 
ATOM      9  C   UNL     1      33.685 -24.564 -14.181  0.00  0.00    +0.004 C 
ENDROOT
BRANCH   6  13
ATOM     10  N   UNL     1      37.042 -24.718 -15.103  0.00  0.00    -0.338 NA
ATOM     11  N   UNL     1      38.634 -24.498 -13.307  0.00  0.00    -0.170 NA
ATOM     12  N   UNL     1      39.261 -25.435 -15.366  0.00  0.00    -0.293 N 
ATOM     13  C   UNL     1      36.120 -24.162 -14.295  0.00  0.00    +0.146 C 
ATOM     14  C   UNL     1      36.366 -23.753 -13.004  0.00  0.00    +0.055 C 
ATOM     15  C   UNL     1      37.657 -23.948 -12.557  0.00  0.00    +0.114 C 
ATOM     16  C   UNL     1      38.263 -24.855 -14.551  0.00  0.00    +0.141 C 
ATOM     17  H   UNL     1      39.045 -25.715 -16.285  0.00  0.00    +0.155 HD
ATOM     18  H   UNL     1      40.171 -25.559 -15.014  0.00  0.00    +0.155 HD
ENDBRANCH   6  13
BRANCH   4  20
ATOM     19 CL   UNL     1      35.325 -19.777 -22.281  0.00  0.00    -0.082 Cl
ATOM     20  C   UNL     1      33.504 -21.996 -18.792  0.00  0.00    +0.037 C 
ATOM     21  C   UNL     1      34.882 -22.050 -19.018  0.00  0.00    +0.004 C 
ATOM     22  C   UNL     1      32.694 -21.250 -19.653  0.00  0.00    +0.004 C 
ATOM     23  C   UNL     1      35.446 -21.366 -20.096  0.00  0.00    +0.011 C 
ATOM     24  C   UNL     1      33.256 -20.566 -20.731  0.00  0.00    +0.011 C 
ATOM     25  C   UNL     1      34.632 -20.622 -20.952  0.00  0.00    +0.058 C 
ENDBRANCH   4  20
TORSDOF 2
ENDMDL
MODEL 2
REMARK VINA RESULT:     -11.3      1.986      5.196
REMARK  Name = 2765355
REMARK  2 active torsions:
REMARK  status: ('A' for Active; 'I' for Inactive)
REMARK    1  A    between atoms: C_4  and  C_20
REMARK    2  A    between atoms: C_6  and  C_13
REMARK                            x       y       z     vdW  Elec       q    Type
REMARK                         _______ _______ _______ _____ _____    ______ ____
ROOT
ATOM      1  O   UNL     1      36.538 -22.887 -17.033  0.00  0.00    -0.353 OA
ATOM      2  N   UNL     1      36.542 -23.620 -15.853  0.00  0.00    -0.077 NA
ATOM      3  C   UNL     1      34.422 -23.325 -16.593  0.00  0.00    +0.058 A 
ATOM      4  C   UNL     1      35.264 -22.714 -17.472  0.00  0.00    +0.177 A 
ATOM      5  C   UNL     1      35.257 -23.898 -15.569  0.00  0.00    +0.123 A 
ATOM      6  C   UNL     1      32.496 -24.095 -15.600  0.00  0.00    +0.031 C 
ATOM      7  C   UNL     1      33.040 -23.378 -16.683  0.00  0.00    +0.007 C 
ATOM      8  C   UNL     1      34.690 -24.608 -14.496  0.00  0.00    +0.023 C 
ATOM      9  C   UNL     1      33.280 -24.682 -14.556  0.00  0.00    +0.004 C 
ENDROOT
BRANCH   6  13
ATOM     10  N   UNL     1      30.362 -23.425 -16.345  0.00  0.00    -0.338 NA
ATOM     11  N   UNL     1      28.339 -24.435 -15.512  0.00  0.00    -0.170 NA
ATOM     12  N   UNL     1      28.259 -22.724 -17.116  0.00  0.00    -0.293 N 
ATOM     13  C   UNL     1      31.055 -24.248 -15.536  0.00  0.00    +0.146 C 
ATOM     14  C   UNL     1      30.479 -25.177 -14.699  0.00  0.00    +0.055 C 
ATOM     15  C   UNL     1      29.100 -25.226 -14.729  0.00  0.00    +0.114 C 
ATOM     16  C   UNL     1      29.025 -23.570 -16.283  0.00  0.00    +0.141 C 
ATOM     17  H   UNL     1      28.709 -22.072 -17.702  0.00  0.00    +0.155 HD
ATOM     18  H   UNL     1      27.278 -22.787 -17.112  0.00  0.00    +0.155 HD
ENDBRANCH   6  13
BRANCH   4  20
ATOM     19 CL   UNL     1      34.701 -19.612 -22.522  0.00  0.00    -0.082 Cl
ATOM     20  C   UNL     1      35.129 -21.967 -18.690  0.00  0.00    +0.037 C 
ATOM     21  C   UNL     1      36.262 -21.477 -19.346  0.00  0.00    +0.004 C 
ATOM     22  C   UNL     1      33.862 -21.722 -19.229  0.00  0.00    +0.004 C 
ATOM     23  C   UNL     1      36.131 -20.750 -20.530  0.00  0.00    +0.011 C 
ATOM     24  C   UNL     1      33.730 -20.996 -20.413  0.00  0.00    +0.011 C 
ATOM     25  C   UNL     1      34.864 -20.509 -21.063  0.00  0.00    +0.058 C 
ENDBRANCH   4  20
TORSDOF 2
ENDMDL
MODEL 3
REMARK VINA RESULT:     -11.2      0.787      1.413
REMARK  Name = 2765355
REMARK  2 active torsions:
REMARK  status: ('A' for Active; 'I' for Inactive)
REMARK    1  A    between atoms: C_4  and  C_20
REMARK    2  A    between atoms: C_6  and  C_13
REMARK                            x       y       z     vdW  Elec       q    Type
REMARK                         _______ _______ _______ _____ _____    ______ ____
ROOT
ATOM      1  O   UNL     1      31.514 -22.801 -17.745  0.00  0.00    -0.353 OA
ATOM      2  N   UNL     1      31.064 -23.489 -16.627  0.00  0.00    -0.077 NA
ATOM      3  C   UNL     1      33.316 -23.267 -16.564  0.00  0.00    +0.058 A 
ATOM      4  C   UNL     1      32.866 -22.670 -17.702  0.00  0.00    +0.177 A 
ATOM      5  C   UNL     1      32.152 -23.782 -15.891  0.00  0.00    +0.123 A 
ATOM      6  C   UNL     1      34.732 -24.035 -14.922  0.00  0.00    +0.031 C 
ATOM      7  C   UNL     1      34.637 -23.350 -16.149  0.00  0.00    +0.007 C 
ATOM      8  C   UNL     1      32.273 -24.464 -14.668  0.00  0.00    +0.023 C 
ATOM      9  C   UNL     1      33.608 -24.568 -14.214  0.00  0.00    +0.004 C 
ENDROOT
BRANCH   6  13
ATOM     10  N   UNL     1      36.191 -23.715 -13.098  0.00  0.00    -0.338 NA
ATOM     11  N   UNL     1      38.475 -24.484 -13.134  0.00  0.00    -0.170 NA
ATOM     12  N   UNL     1      37.607 -23.372 -11.258  0.00  0.00    -0.293 N 
ATOM     13  C   UNL     1      36.049 -24.214 -14.340  0.00  0.00    +0.146 C 
ATOM     14  C   UNL     1      37.049 -24.852 -15.038  0.00  0.00    +0.055 C 
ATOM     15  C   UNL     1      38.256 -24.959 -14.377  0.00  0.00    +0.114 C 
ATOM     16  C   UNL     1      37.414 -23.882 -12.561  0.00  0.00    +0.141 C 
ATOM     17  H   UNL     1      36.865 -22.922 -10.791  0.00  0.00    +0.155 HD
ATOM     18  H   UNL     1      38.481 -23.466 -10.817  0.00  0.00    +0.155 HD
ENDBRANCH   6  13
BRANCH   4  20
ATOM     19 CL   UNL     1      35.299 -19.774 -22.299  0.00  0.00    -0.082 Cl
ATOM     20  C   UNL     1      33.453 -21.973 -18.811  0.00  0.00    +0.037 C 
ATOM     21  C   UNL     1      34.831 -22.039 -19.035  0.00  0.00    +0.004 C 
ATOM     22  C   UNL     1      32.650 -21.221 -19.675  0.00  0.00    +0.004 C 
ATOM     23  C   UNL     1      35.402 -21.360 -20.112  0.00  0.00    +0.011 C 
ATOM     24  C   UNL     1      33.220 -20.543 -20.752  0.00  0.00    +0.011 C 
ATOM     25  C   UNL     1      34.596 -20.611 -20.970  0.00  0.00    +0.058 C 
ENDBRANCH   4  20
TORSDOF 2
ENDMDL
MODEL 4
REMARK VINA RESULT:     -11.0      2.088      5.180
REMARK  Name = 2765355
REMARK  2 active torsions:
REMARK  status: ('A' for Active; 'I' for Inactive)
REMARK    1  A    between atoms: C_4  and  C_20
REMARK    2  A    between atoms: C_6  and  C_13
REMARK                            x       y       z     vdW  Elec       q    Type
REMARK                         _______ _______ _______ _____ _____    ______ ____
ROOT
ATOM      1  O   UNL     1      36.591 -22.790 -17.219  0.00  0.00    -0.353 OA
ATOM      2  N   UNL     1      36.550 -23.521 -16.040  0.00  0.00    -0.077 NA
ATOM      3  C   UNL     1      34.454 -23.141 -16.808  0.00  0.00    +0.058 A 
ATOM      4  C   UNL     1      35.332 -22.565 -17.676  0.00  0.00    +0.177 A 
ATOM      5  C   UNL     1      35.251 -23.747 -15.773  0.00  0.00    +0.123 A 
ATOM      6  C   UNL     1      32.484 -23.832 -15.841  0.00  0.00    +0.031 C 
ATOM      7  C   UNL     1      33.072 -23.138 -16.917  0.00  0.00    +0.007 C 
ATOM      8  C   UNL     1      34.641 -24.433 -14.708  0.00  0.00    +0.023 C 
ATOM      9  C   UNL     1      33.230 -24.450 -14.787  0.00  0.00    +0.004 C 
ENDROOT
BRANCH   6  13
ATOM     10  N   UNL     1      30.559 -24.953 -15.070  0.00  0.00    -0.338 NA
ATOM     11  N   UNL     1      28.336 -24.216 -15.635  0.00  0.00    -0.170 NA
ATOM     12  N   UNL     1      28.672 -26.103 -14.280  0.00  0.00    -0.293 N 
ATOM     13  C   UNL     1      31.038 -23.926 -15.797  0.00  0.00    +0.146 C 
ATOM     14  C   UNL     1      30.250 -23.014 -16.462  0.00  0.00    +0.055 C 
ATOM     15  C   UNL     1      28.889 -23.211 -16.344  0.00  0.00    +0.114 C 
ATOM     16  C   UNL     1      29.216 -25.038 -15.033  0.00  0.00    +0.141 C 
ATOM     17  H   UNL     1      29.270 -26.735 -13.818  0.00  0.00    +0.155 HD
ATOM     18  H   UNL     1      27.696 -26.212 -14.218  0.00  0.00    +0.155 HD
ENDBRANCH   6  13
BRANCH   4  20
ATOM     19 CL   UNL     1      34.964 -19.444 -22.732  0.00  0.00    -0.082 Cl
ATOM     20  C   UNL     1      35.244 -21.813 -18.895  0.00  0.00    +0.037 C 
ATOM     21  C   UNL     1      36.403 -21.335 -19.514  0.00  0.00    +0.004 C 
ATOM     22  C   UNL     1      33.997 -21.552 -19.473  0.00  0.00    +0.004 C 
ATOM     23  C   UNL     1      36.317 -20.604 -20.699  0.00  0.00    +0.011 C 
ATOM     24  C   UNL     1      33.911 -20.821 -20.658  0.00  0.00    +0.011 C 
ATOM     25  C   UNL     1      35.070 -20.346 -21.271  0.00  0.00    +0.058 C 
ENDBRANCH   4  20
TORSDOF 2
ENDMDL
MODEL 5
REMARK VINA RESULT:     -10.0      3.708      7.247
REMARK  Name = 2765355
REMARK  2 active torsions:
REMARK  status: ('A' for Active; 'I' for Inactive)
REMARK    1  A    between atoms: C_4  and  C_20
REMARK    2  A    between atoms: C_6  and  C_13
REMARK                            x       y       z     vdW  Elec       q    Type
REMARK                         _______ _______ _______ _____ _____    ______ ____
ROOT
ATOM      1  O   UNL     1      36.525 -22.823 -17.352  0.00  0.00    -0.353 OA
ATOM      2  N   UNL     1      35.827 -22.243 -18.403  0.00  0.00    -0.077 NA
ATOM      3  C   UNL     1      34.390 -23.140 -16.901  0.00  0.00    +0.058 A 
ATOM      4  C   UNL     1      35.658 -23.359 -16.454  0.00  0.00    +0.177 A 
ATOM      5  C   UNL     1      34.519 -22.425 -18.145  0.00  0.00    +0.123 A 
ATOM      6  C   UNL     1      32.092 -23.134 -17.017  0.00  0.00    +0.031 C 
ATOM      7  C   UNL     1      33.219 -23.531 -16.270  0.00  0.00    +0.007 C 
ATOM      8  C   UNL     1      33.380 -22.042 -18.873  0.00  0.00    +0.023 C 
ATOM      9  C   UNL     1      32.166 -22.425 -18.258  0.00  0.00    +0.004 C 
ENDROOT
BRANCH   6  13
ATOM     10  N   UNL     1      29.757 -22.827 -17.101  0.00  0.00    -0.338 NA
ATOM     11  N   UNL     1      28.257 -23.997 -15.621  0.00  0.00    -0.170 NA
ATOM     12  N   UNL     1      27.437 -22.487 -17.221  0.00  0.00    -0.293 N 
ATOM     13  C   UNL     1      30.778 -23.465 -16.500  0.00  0.00    +0.146 C 
ATOM     14  C   UNL     1      30.631 -24.367 -15.471  0.00  0.00    +0.055 C 
ATOM     15  C   UNL     1      29.331 -24.597 -15.067  0.00  0.00    +0.114 C 
ATOM     16  C   UNL     1      28.539 -23.136 -16.618  0.00  0.00    +0.141 C 
ATOM     17  H   UNL     1      27.585 -21.848 -17.955  0.00  0.00    +0.155 HD
ATOM     18  H   UNL     1      26.524 -22.676 -16.907  0.00  0.00    +0.155 HD
ENDBRANCH   6  13
BRANCH   4  20
ATOM     19 CL   UNL     1      38.169 -25.987 -11.739  0.00  0.00    -0.082 Cl
ATOM     20  C   UNL     1      36.262 -23.992 -15.317  0.00  0.00    +0.037 C 
ATOM     21  C   UNL     1      36.873 -23.221 -14.323  0.00  0.00    +0.004 C 
ATOM     22  C   UNL     1      36.247 -25.385 -15.195  0.00  0.00    +0.004 C 
ATOM     23  C   UNL     1      37.461 -23.837 -13.217  0.00  0.00    +0.011 C 
ATOM     24  C   UNL     1      36.835 -26.001 -14.090  0.00  0.00    +0.011 C 
ATOM     25  C   UNL     1      37.443 -25.227 -13.102  0.00  0.00    +0.058 C 
ENDBRANCH   4  20
TORSDOF 2
ENDMDL
MODEL 6
REMARK VINA RESULT:      -9.9      8.879     12.325
REMARK  Name = 2765355
REMARK  2 active torsions:
REMARK  status: ('A' for Active; 'I' for Inactive)
REMARK    1  A    between atoms: C_4  and  C_20
REMARK    2  A    between atoms: C_6  and  C_13
REMARK                            x       y       z     vdW  Elec       q    Type
REMARK                         _______ _______ _______ _____ _____    ______ ____
ROOT
ATOM      1  O   UNL     1      34.584 -17.128 -25.694  0.00  0.00    -0.353 OA
ATOM      2  N   UNL     1      34.146 -16.148 -26.575  0.00  0.00    -0.077 NA
ATOM      3  C   UNL     1      33.884 -15.459 -24.435  0.00  0.00    +0.058 A 
ATOM      4  C   UNL     1      34.424 -16.709 -24.411  0.00  0.00    +0.177 A 
ATOM      5  C   UNL     1      33.715 -15.119 -25.824  0.00  0.00    +0.123 A 
ATOM      6  C   UNL     1      33.027 -13.443 -23.730  0.00  0.00    +0.031 C 
ATOM      7  C   UNL     1      33.567 -14.682 -23.331  0.00  0.00    +0.007 C 
ATOM      8  C   UNL     1      33.173 -13.877 -26.197  0.00  0.00    +0.023 C 
ATOM      9  C   UNL     1      32.838 -13.057 -25.095  0.00  0.00    +0.004 C 
ENDROOT
BRANCH   6  13
ATOM     10  N   UNL     1      32.720 -11.206 -23.052  0.00  0.00    -0.338 NA
ATOM     11  N   UNL     1      31.938 -10.632 -20.846  0.00  0.00    -0.170 NA
ATOM     12  N   UNL     1      32.431  -8.964 -22.422  0.00  0.00    -0.293 N 
ATOM     13  C   UNL     1      32.639 -12.502 -22.697  0.00  0.00    +0.146 C 
ATOM     14  C   UNL     1      32.225 -12.942 -21.460  0.00  0.00    +0.055 C 
ATOM     15  C   UNL     1      31.882 -11.950 -20.563  0.00  0.00    +0.114 C 
ATOM     16  C   UNL     1      32.360 -10.336 -22.091  0.00  0.00    +0.141 C 
ATOM     17  H   UNL     1      32.732  -8.690 -23.319  0.00  0.00    +0.155 HD
ATOM     18  H   UNL     1      32.178  -8.284 -21.758  0.00  0.00    +0.155 HD
ENDBRANCH   6  13
BRANCH   4  20
ATOM     19 CL   UNL     1      36.160 -20.575 -20.231  0.00  0.00    -0.082 Cl
ATOM     20  C   UNL     1      34.842 -17.641 -23.403  0.00  0.00    +0.037 C 
ATOM     21  C   UNL     1      35.600 -17.205 -22.312  0.00  0.00    +0.004 C 
ATOM     22  C   UNL     1      34.496 -18.991 -23.505  0.00  0.00    +0.004 C 
ATOM     23  C   UNL     1      36.006 -18.111 -21.331  0.00  0.00    +0.011 C 
ATOM     24  C   UNL     1      34.902 -19.897 -22.525  0.00  0.00    +0.011 C 
ATOM     25  C   UNL     1      35.658 -19.458 -21.439  0.00  0.00    +0.058 C 
ENDBRANCH   4  20
TORSDOF 2
ENDMDL
MODEL 7
REMARK VINA RESULT:      -9.9     11.634     14.280
REMARK  Name = 2765355
REMARK  2 active torsions:
REMARK  status: ('A' for Active; 'I' for Inactive)
REMARK    1  A    between atoms: C_4  and  C_20
REMARK    2  A    between atoms: C_6  and  C_13
REMARK                            x       y       z     vdW  Elec       q    Type
REMARK                         _______ _______ _______ _____ _____    ______ ____
ROOT
ATOM      1  O   UNL     1      31.853  -9.234 -20.810  0.00  0.00    -0.353 OA
ATOM      2  N   UNL     1      31.582 -10.379 -20.073  0.00  0.00    -0.077 NA
ATOM      3  C   UNL     1      32.430 -10.927 -22.099  0.00  0.00    +0.058 A 
ATOM      4  C   UNL     1      32.361  -9.569 -22.025  0.00  0.00    +0.177 A 
ATOM      5  C   UNL     1      31.929 -11.425 -20.844  0.00  0.00    +0.123 A 
ATOM      6  C   UNL     1      32.821 -13.047 -22.903  0.00  0.00    +0.031 C 
ATOM      7  C   UNL     1      32.894 -11.667 -23.177  0.00  0.00    +0.007 C 
ATOM      8  C   UNL     1      31.866 -12.807 -20.595  0.00  0.00    +0.023 C 
ATOM      9  C   UNL     1      32.331 -13.593 -21.674  0.00  0.00    +0.004 C 
ENDROOT
BRANCH   6  13
ATOM     10  N   UNL     1      34.039 -14.981 -23.481  0.00  0.00    -0.338 NA
ATOM     11  N   UNL     1      34.176 -15.777 -25.751  0.00  0.00    -0.170 NA
ATOM     12  N   UNL     1      35.265 -16.911 -24.009  0.00  0.00    -0.293 N 
ATOM     13  C   UNL     1      33.269 -13.971 -23.927  0.00  0.00    +0.146 C 
ATOM     14  C   UNL     1      32.911 -13.793 -25.244  0.00  0.00    +0.055 C 
ATOM     15  C   UNL     1      33.400 -14.738 -26.123  0.00  0.00    +0.114 C 
ATOM     16  C   UNL     1      34.453 -15.836 -24.435  0.00  0.00    +0.141 C 
ATOM     17  H   UNL     1      35.499 -17.004 -23.056  0.00  0.00    +0.155 HD
ATOM     18  H   UNL     1      35.595 -17.567 -24.663  0.00  0.00    +0.155 HD
ENDBRANCH   6  13
BRANCH   4  20
ATOM     19 CL   UNL     1      33.690  -4.985 -25.584  0.00  0.00    -0.082 Cl
ATOM     20  C   UNL     1      32.682  -8.464 -22.883  0.00  0.00    +0.037 C 
ATOM     21  C   UNL     1      34.016  -8.128 -23.130  0.00  0.00    +0.004 C 
ATOM     22  C   UNL     1      31.662  -7.715 -23.478  0.00  0.00    +0.004 C 
ATOM     23  C   UNL     1      34.328  -7.055 -23.965  0.00  0.00    +0.011 C 
ATOM     24  C   UNL     1      31.973  -6.642 -24.312  0.00  0.00    +0.011 C 
ATOM     25  C   UNL     1      33.306  -6.310 -24.555  0.00  0.00    +0.058 C 
ENDBRANCH   4  20
TORSDOF 2
ENDMDL
MODEL 8
REMARK VINA RESULT:      -9.7     13.974     16.868
REMARK  Name = 2765355
REMARK  2 active torsions:
REMARK  status: ('A' for Active; 'I' for Inactive)
REMARK    1  A    between atoms: C_4  and  C_20
REMARK    2  A    between atoms: C_6  and  C_13
REMARK                            x       y       z     vdW  Elec       q    Type
REMARK                         _______ _______ _______ _____ _____    ______ ____
ROOT
ATOM      1  O   UNL     1      32.379  -5.482 -21.893  0.00  0.00    -0.353 OA
ATOM      2  N   UNL     1      31.990  -6.215 -20.781  0.00  0.00    -0.077 NA
ATOM      3  C   UNL     1      32.604  -7.599 -22.464  0.00  0.00    +0.058 A 
ATOM      4  C   UNL     1      32.747  -6.317 -22.900  0.00  0.00    +0.177 A 
ATOM      5  C   UNL     1      32.121  -7.513 -21.110  0.00  0.00    +0.123 A 
ATOM      6  C   UNL     1      32.615  -9.900 -22.423  0.00  0.00    +0.031 C 
ATOM      7  C   UNL     1      32.876  -8.748 -23.192  0.00  0.00    +0.007 C 
ATOM      8  C   UNL     1      31.867  -8.677 -20.364  0.00  0.00    +0.023 C 
ATOM      9  C   UNL     1      32.133  -9.869 -21.076  0.00  0.00    +0.004 C 
ENDROOT
BRANCH   6  13
ATOM     10  N   UNL     1      33.308 -11.151 -24.297  0.00  0.00    -0.338 NA
ATOM     11  N   UNL     1      33.323 -13.560 -24.294  0.00  0.00    -0.170 NA
ATOM     12  N   UNL     1      34.006 -12.354 -26.188  0.00  0.00    -0.293 N 
ATOM     13  C   UNL     1      32.846 -11.195 -23.033  0.00  0.00    +0.146 C 
ATOM     14  C   UNL     1      32.600 -12.357 -22.338  0.00  0.00    +0.055 C 
ATOM     15  C   UNL     1      32.860 -13.525 -23.027  0.00  0.00    +0.114 C 
ATOM     16  C   UNL     1      33.521 -12.355 -24.860  0.00  0.00    +0.141 C 
ATOM     17  H   UNL     1      34.170 -11.500 -26.651  0.00  0.00    +0.155 HD
ATOM     18  H   UNL     1      34.180 -13.205 -26.648  0.00  0.00    +0.155 HD
ENDBRANCH   6  13
BRANCH   4  20
ATOM     19 CL   UNL     1      34.508  -3.651 -27.923  0.00  0.00    -0.082 Cl
ATOM     20  C   UNL     1      33.171  -5.673 -24.110  0.00  0.00    +0.037 C 
ATOM     21  C   UNL     1      32.343  -4.739 -24.739  0.00  0.00    +0.004 C 
ATOM     22  C   UNL     1      34.416  -5.977 -24.670  0.00  0.00    +0.004 C 
ATOM     23  C   UNL     1      32.756  -4.113 -25.916  0.00  0.00    +0.011 C 
ATOM     24  C   UNL     1      34.828  -5.353 -25.847  0.00  0.00    +0.011 C 
ATOM     25  C   UNL     1      33.999  -4.421 -26.471  0.00  0.00    +0.058 C 
ENDBRANCH   4  20
TORSDOF 2
ENDMDL
MODEL 9
REMARK VINA RESULT:      -9.6     12.103     15.029
REMARK  Name = 2765355
REMARK  2 active torsions:
REMARK  status: ('A' for Active; 'I' for Inactive)
REMARK    1  A    between atoms: C_4  and  C_20
REMARK    2  A    between atoms: C_6  and  C_13
REMARK                            x       y       z     vdW  Elec       q    Type
REMARK                         _______ _______ _______ _____ _____    ______ ____
ROOT
ATOM      1  O   UNL     1      31.860  -7.759 -20.874  0.00  0.00    -0.353 OA
ATOM      2  N   UNL     1      31.476  -8.714 -19.942  0.00  0.00    -0.077 NA
ATOM      3  C   UNL     1      32.408  -9.706 -21.751  0.00  0.00    +0.058 A 
ATOM      4  C   UNL     1      32.419  -8.359 -21.957  0.00  0.00    +0.177 A 
ATOM      5  C   UNL     1      31.804  -9.911 -20.460  0.00  0.00    +0.123 A 
ATOM      6  C   UNL     1      32.717 -11.962 -22.081  0.00  0.00    +0.031 C 
ATOM      7  C   UNL     1      32.890 -10.672 -22.621  0.00  0.00    +0.007 C 
ATOM      8  C   UNL     1      31.641 -11.208 -19.943  0.00  0.00    +0.023 C 
ATOM      9  C   UNL     1      32.122 -12.220 -20.805  0.00  0.00    +0.004 C 
ENDROOT
BRANCH   6  13
ATOM     10  N   UNL     1      32.697 -13.138 -24.124  0.00  0.00    -0.338 NA
ATOM     11  N   UNL     1      33.939 -15.179 -24.439  0.00  0.00    -0.170 NA
ATOM     12  N   UNL     1      32.645 -14.275 -26.176  0.00  0.00    -0.293 N 
ATOM     13  C   UNL     1      33.168 -13.097 -22.863  0.00  0.00    +0.146 C 
ATOM     14  C   UNL     1      34.013 -14.038 -22.321  0.00  0.00    +0.055 C 
ATOM     15  C   UNL     1      34.370 -15.070 -23.165  0.00  0.00    +0.114 C 
ATOM     16  C   UNL     1      33.117 -14.193 -24.847  0.00  0.00    +0.141 C 
ATOM     17  H   UNL     1      32.042 -13.581 -26.528  0.00  0.00    +0.155 HD
ATOM     18  H   UNL     1      32.921 -15.025 -26.750  0.00  0.00    +0.155 HD
ENDBRANCH   6  13
BRANCH   4  20
ATOM     19 CL   UNL     1      34.241  -4.681 -26.269  0.00  0.00    -0.082 Cl
ATOM     20  C   UNL     1      32.858  -7.472 -22.996  0.00  0.00    +0.037 C 
ATOM     21  C   UNL     1      31.924  -6.761 -23.756  0.00  0.00    +0.004 C 
ATOM     22  C   UNL     1      34.222  -7.313 -23.257  0.00  0.00    +0.004 C 
ATOM     23  C   UNL     1      32.351  -5.898 -24.766  0.00  0.00    +0.011 C 
ATOM     24  C   UNL     1      34.649  -6.451 -24.267  0.00  0.00    +0.011 C 
ATOM     25  C   UNL     1      33.714  -5.744 -25.022  0.00  0.00    +0.058 C 
ENDBRANCH   4  20
TORSDOF 2
ENDMDL
