MODEL 1
REMARK VINA RESULT:     -11.7      0.000      0.000
REMARK  Name = 24812758
REMARK  9 active torsions:
REMARK  status: ('A' for Active; 'I' for Inactive)
REMARK    1  A    between atoms: C_1  and  C_11
REMARK    2  A    between atoms: C_4  and  C_23
REMARK    3  A    between atoms: C_9  and  O_14
REMARK    4  A    between atoms: C_10  and  O_16
REMARK    5  A    between atoms: C_12  and  O_18
REMARK    6  A    between atoms: C_13  and  C_20
REMARK    7  A    between atoms: C_20  and  O_21
REMARK    8  A    between atoms: C_23  and  C_25
REMARK    9  A    between atoms: C_27  and  C_30
REMARK                            x       y       z     vdW  Elec       q    Type
REMARK                         _______ _______ _______ _____ _____    ______ ____
ROOT
ATOM      1  C   UNL     1      34.344 -23.665 -14.854  0.00  0.00    +0.007 C 
ATOM      2  C   UNL     1      34.443 -23.758 -16.242  0.00  0.00    -0.006 C 
ATOM      3  C   UNL     1      33.135 -23.296 -14.264  0.00  0.00    -0.002 C 
ATOM      4  C   UNL     1      33.335 -23.481 -17.041  0.00  0.00    -0.021 C 
ATOM      5  C   UNL     1      32.126 -23.111 -16.452  0.00  0.00    -0.025 C 
ATOM      6  C   UNL     1      32.026 -23.018 -15.064  0.00  0.00    -0.005 C 
ATOM      7  C   UNL     1      30.924 -22.809 -17.286  0.00  0.00    +0.031 C 
ENDROOT
BRANCH   1  11
ATOM      8  O   UNL     1      36.378 -24.892 -14.698  0.00  0.00    -0.347 OA
ATOM      9  C   UNL     1      35.145 -24.538 -12.618  0.00  0.00    +0.171 C 
ATOM     10  C   UNL     1      36.375 -24.983 -11.823  0.00  0.00    +0.169 C 
ATOM     11  C   UNL     1      35.549 -23.967 -13.986  0.00  0.00    +0.167 C 
ATOM     12  C   UNL     1      37.300 -25.854 -12.672  0.00  0.00    +0.169 C 
ATOM     13  C   UNL     1      37.598 -25.182 -14.014  0.00  0.00    +0.174 C 
BRANCH   9  14
ATOM     14  O   UNL     1      34.461 -23.522 -11.884  0.00  0.00    -0.379 OA
ATOM     15  H   UNL     1      35.062 -23.136 -11.228  0.00  0.00    +0.211 HD
ENDBRANCH   9  14
BRANCH  10  16
ATOM     16  O   UNL     1      35.958 -25.753 -10.695  0.00  0.00    -0.379 OA
ATOM     17  H   UNL     1      36.014 -26.698 -10.908  0.00  0.00    +0.211 HD
ENDBRANCH  10  16
BRANCH  12  18
ATOM     18  O   UNL     1      38.523 -26.065 -11.972  0.00  0.00    -0.379 OA
ATOM     19  H   UNL     1      38.611 -27.006 -11.751  0.00  0.00    +0.211 HD
ENDBRANCH  12  18
BRANCH  13  20
ATOM     20  C   UNL     1      38.430 -26.079 -14.924  0.00  0.00    +0.169 C 
BRANCH  20  21
ATOM     21  O   UNL     1      38.225 -27.427 -14.538  0.00  0.00    -0.379 OA
ATOM     22  H   UNL     1      38.718 -28.013 -15.134  0.00  0.00    +0.211 HD
ENDBRANCH  20  21
ENDBRANCH  13  20
ENDBRANCH   1  11
BRANCH   4  23
ATOM     23  C   UNL     1      33.465 -23.587 -18.525  0.00  0.00    +0.059 C 
BRANCH  23  25
ATOM     24  S   UNL     1      33.595 -21.439 -20.300  0.00  0.00    -0.091 S 
ATOM     25  C   UNL     1      34.303 -22.488 -19.146  0.00  0.00    +0.012 C 
ATOM     26  C   UNL     1      35.625 -22.182 -18.911  0.00  0.00    +0.003 C 
ATOM     27  C   UNL     1      35.059 -20.572 -20.488  0.00  0.00    +0.029 C 
ATOM     28  C   UNL     1      36.063 -21.071 -19.689  0.00  0.00    +0.007 C 
BRANCH  27  30
ATOM     29  F   UNL     1      35.217 -16.299 -24.063  0.00  0.00    -0.204 F 
ATOM     30  C   UNL     1      35.101 -19.464 -21.415  0.00  0.00    +0.006 C 
ATOM     31  C   UNL     1      34.652 -19.634 -22.725  0.00  0.00    +0.003 C 
ATOM     32  C   UNL     1      35.588 -18.225 -21.000  0.00  0.00    +0.003 C 
ATOM     33  C   UNL     1      34.691 -18.565 -23.619  0.00  0.00    +0.030 C 
ATOM     34  C   UNL     1      35.628 -17.156 -21.894  0.00  0.00    +0.030 C 
ATOM     35  C   UNL     1      35.179 -17.326 -23.204  0.00  0.00    +0.140 C 
ENDBRANCH  27  30
ENDBRANCH  23  25
ENDBRANCH   4  23
TORSDOF 9
ENDMDL
MODEL 2
REMARK VINA RESULT:     -11.5      1.411      2.365
REMARK  Name = 24812758
REMARK  9 active torsions:
REMARK  status: ('A' for Active; 'I' for Inactive)
REMARK    1  A    between atoms: C_1  and  C_11
REMARK    2  A    between atoms: C_4  and  C_23
REMARK    3  A    between atoms: C_9  and  O_14
REMARK    4  A    between atoms: C_10  and  O_16
REMARK    5  A    between atoms: C_12  and  O_18
REMARK    6  A    between atoms: C_13  and  C_20
REMARK    7  A    between atoms: C_20  and  O_21
REMARK    8  A    between atoms: C_23  and  C_25
REMARK    9  A    between atoms: C_27  and  C_30
REMARK                            x       y       z     vdW  Elec       q    Type
REMARK                         _______ _______ _______ _____ _____    ______ ____
ROOT
ATOM      1  C   UNL     1      34.148 -24.302 -14.316  0.00  0.00    +0.007 C 
ATOM      2  C   UNL     1      33.914 -24.146 -15.682  0.00  0.00    -0.006 C 
ATOM      3  C   UNL     1      33.149 -23.982 -13.396  0.00  0.00    -0.002 C 
ATOM      4  C   UNL     1      32.682 -23.670 -16.130  0.00  0.00    -0.021 C 
ATOM      5  C   UNL     1      31.683 -23.351 -15.210  0.00  0.00    -0.025 C 
ATOM      6  C   UNL     1      31.917 -23.507 -13.844  0.00  0.00    -0.005 C 
ATOM      7  C   UNL     1      30.355 -22.840 -15.663  0.00  0.00    +0.031 C 
ENDROOT
BRANCH   1  11
ATOM      8  O   UNL     1      36.207 -23.711 -13.279  0.00  0.00    -0.347 OA
ATOM      9  C   UNL     1      36.291 -25.484 -14.959  0.00  0.00    +0.171 C 
ATOM     10  C   UNL     1      37.700 -25.853 -14.487  0.00  0.00    +0.169 C 
ATOM     11  C   UNL     1      35.488 -24.819 -13.831  0.00  0.00    +0.167 C 
ATOM     12  C   UNL     1      38.374 -24.679 -13.778  0.00  0.00    +0.169 C 
ATOM     13  C   UNL     1      37.456 -24.094 -12.702  0.00  0.00    +0.174 C 
BRANCH   9  14
ATOM     14  O   UNL     1      35.612 -26.672 -15.365  0.00  0.00    -0.379 OA
ATOM     15  H   UNL     1      36.226 -27.422 -15.335  0.00  0.00    +0.211 HD
ENDBRANCH   9  14
BRANCH  10  16
ATOM     16  O   UNL     1      38.502 -26.206 -15.615  0.00  0.00    -0.379 OA
ATOM     17  H   UNL     1      39.208 -26.808 -15.334  0.00  0.00    +0.211 HD
ENDBRANCH  10  16
BRANCH  12  18
ATOM     18  O   UNL     1      39.583 -25.126 -13.171  0.00  0.00    -0.379 OA
ATOM     19  H   UNL     1      39.503 -26.066 -12.946  0.00  0.00    +0.211 HD
ENDBRANCH  12  18
BRANCH  13  20
ATOM     20  C   UNL     1      38.062 -22.853 -12.055  0.00  0.00    +0.169 C 
BRANCH  20  21
ATOM     21  O   UNL     1      37.293 -22.518 -10.914  0.00  0.00    -0.379 OA
ATOM     22  H   UNL     1      36.392 -22.283 -11.188  0.00  0.00    +0.211 HD
ENDBRANCH  20  21
ENDBRANCH  13  20
ENDBRANCH   1  11
BRANCH   4  23
ATOM     23  C   UNL     1      32.454 -23.512 -17.597  0.00  0.00    +0.059 C 
BRANCH  23  25
ATOM     24  S   UNL     1      33.123 -21.644 -19.557  0.00  0.00    -0.091 S 
ATOM     25  C   UNL     1      33.544 -22.734 -18.305  0.00  0.00    +0.012 C 
ATOM     26  C   UNL     1      34.903 -22.768 -18.084  0.00  0.00    +0.003 C 
ATOM     27  C   UNL     1      34.762 -21.214 -19.806  0.00  0.00    +0.029 C 
ATOM     28  C   UNL     1      35.609 -21.887 -18.954  0.00  0.00    +0.007 C 
BRANCH  27  30
ATOM     29  F   UNL     1      35.996 -17.475 -23.751  0.00  0.00    -0.204 F 
ATOM     30  C   UNL     1      35.082 -20.245 -20.829  0.00  0.00    +0.006 C 
ATOM     31  C   UNL     1      34.161 -19.968 -21.840  0.00  0.00    +0.003 C 
ATOM     32  C   UNL     1      36.311 -19.586 -20.805  0.00  0.00    +0.003 C 
ATOM     33  C   UNL     1      34.470 -19.033 -22.827  0.00  0.00    +0.030 C 
ATOM     34  C   UNL     1      36.619 -18.651 -21.792  0.00  0.00    +0.030 C 
ATOM     35  C   UNL     1      35.699 -18.374 -22.803  0.00  0.00    +0.140 C 
ENDBRANCH  27  30
ENDBRANCH  23  25
ENDBRANCH   4  23
TORSDOF 9
ENDMDL
MODEL 3
REMARK VINA RESULT:     -11.3      1.141      2.361
REMARK  Name = 24812758
REMARK  9 active torsions:
REMARK  status: ('A' for Active; 'I' for Inactive)
REMARK    1  A    between atoms: C_1  and  C_11
REMARK    2  A    between atoms: C_4  and  C_23
REMARK    3  A    between atoms: C_9  and  O_14
REMARK    4  A    between atoms: C_10  and  O_16
REMARK    5  A    between atoms: C_12  and  O_18
REMARK    6  A    between atoms: C_13  and  C_20
REMARK    7  A    between atoms: C_20  and  O_21
REMARK    8  A    between atoms: C_23  and  C_25
REMARK    9  A    between atoms: C_27  and  C_30
REMARK                            x       y       z     vdW  Elec       q    Type
REMARK                         _______ _______ _______ _____ _____    ______ ____
ROOT
ATOM      1  C   UNL     1      34.366 -24.214 -14.881  0.00  0.00    +0.007 C 
ATOM      2  C   UNL     1      34.298 -24.160 -16.272  0.00  0.00    -0.006 C 
ATOM      3  C   UNL     1      33.286 -23.779 -14.112  0.00  0.00    -0.002 C 
ATOM      4  C   UNL     1      33.150 -23.670 -16.897  0.00  0.00    -0.021 C 
ATOM      5  C   UNL     1      32.070 -23.235 -16.128  0.00  0.00    -0.025 C 
ATOM      6  C   UNL     1      32.139 -23.290 -14.736  0.00  0.00    -0.005 C 
ATOM      7  C   UNL     1      30.831 -22.708 -16.772  0.00  0.00    +0.031 C 
ENDROOT
BRANCH   1  11
ATOM      8  O   UNL     1      36.244 -23.650 -13.531  0.00  0.00    -0.347 OA
ATOM      9  C   UNL     1      36.577 -25.401 -15.204  0.00  0.00    +0.171 C 
ATOM     10  C   UNL     1      37.895 -25.785 -14.526  0.00  0.00    +0.169 C 
ATOM     11  C   UNL     1      35.613 -24.746 -14.203  0.00  0.00    +0.167 C 
ATOM     12  C   UNL     1      38.457 -24.625 -13.706  0.00  0.00    +0.169 C 
ATOM     13  C   UNL     1      37.388 -24.049 -12.775  0.00  0.00    +0.174 C 
BRANCH   9  14
ATOM     14  O   UNL     1      35.963 -26.579 -15.725  0.00  0.00    -0.379 OA
ATOM     15  H   UNL     1      35.051 -26.379 -15.989  0.00  0.00    +0.211 HD
ENDBRANCH   9  14
BRANCH  10  16
ATOM     16  O   UNL     1      38.859 -26.128 -15.523  0.00  0.00    -0.379 OA
ATOM     17  H   UNL     1      38.715 -25.585 -16.313  0.00  0.00    +0.211 HD
ENDBRANCH  10  16
BRANCH  12  18
ATOM     18  O   UNL     1      39.557 -25.088 -12.927  0.00  0.00    -0.379 OA
ATOM     19  H   UNL     1      39.797 -24.412 -12.273  0.00  0.00    +0.211 HD
ENDBRANCH  12  18
BRANCH  13  20
ATOM     20  C   UNL     1      37.892 -22.820 -12.026  0.00  0.00    +0.169 C 
BRANCH  20  21
ATOM     21  O   UNL     1      37.352 -22.837 -10.717  0.00  0.00    -0.379 OA
ATOM     22  H   UNL     1      36.949 -21.976 -10.522  0.00  0.00    +0.211 HD
ENDBRANCH  20  21
ENDBRANCH  13  20
ENDBRANCH   1  11
BRANCH   4  23
ATOM     23  C   UNL     1      33.100 -23.622 -18.388  0.00  0.00    +0.059 C 
BRANCH  23  25
ATOM     24  S   UNL     1      33.398 -21.506 -20.181  0.00  0.00    -0.091 S 
ATOM     25  C   UNL     1      34.015 -22.580 -18.998  0.00  0.00    +0.012 C 
ATOM     26  C   UNL     1      35.345 -22.346 -18.731  0.00  0.00    +0.003 C 
ATOM     27  C   UNL     1      34.914 -20.726 -20.340  0.00  0.00    +0.029 C 
ATOM     28  C   UNL     1      35.867 -21.271 -19.509  0.00  0.00    +0.007 C 
BRANCH  27  30
ATOM     29  F   UNL     1      35.410 -16.511 -23.952  0.00  0.00    -0.204 F 
ATOM     30  C   UNL     1      35.042 -19.633 -21.276  0.00  0.00    +0.006 C 
ATOM     31  C   UNL     1      35.634 -18.435 -20.874  0.00  0.00    +0.003 C 
ATOM     32  C   UNL     1      34.575 -19.776 -22.583  0.00  0.00    +0.003 C 
ATOM     33  C   UNL     1      35.758 -17.381 -21.777  0.00  0.00    +0.030 C 
ATOM     34  C   UNL     1      34.699 -18.721 -23.486  0.00  0.00    +0.030 C 
ATOM     35  C   UNL     1      35.291 -17.523 -23.084  0.00  0.00    +0.140 C 
ENDBRANCH  27  30
ENDBRANCH  23  25
ENDBRANCH   4  23
TORSDOF 9
ENDMDL
MODEL 4
REMARK VINA RESULT:     -10.5      2.846      4.887
REMARK  Name = 24812758
REMARK  9 active torsions:
REMARK  status: ('A' for Active; 'I' for Inactive)
REMARK    1  A    between atoms: C_1  and  C_11
REMARK    2  A    between atoms: C_4  and  C_23
REMARK    3  A    between atoms: C_9  and  O_14
REMARK    4  A    between atoms: C_10  and  O_16
REMARK    5  A    between atoms: C_12  and  O_18
REMARK    6  A    between atoms: C_13  and  C_20
REMARK    7  A    between atoms: C_20  and  O_21
REMARK    8  A    between atoms: C_23  and  C_25
REMARK    9  A    between atoms: C_27  and  C_30
REMARK                            x       y       z     vdW  Elec       q    Type
REMARK                         _______ _______ _______ _____ _____    ______ ____
ROOT
ATOM      1  C   UNL     1      33.740 -23.528 -15.933  0.00  0.00    +0.007 C 
ATOM      2  C   UNL     1      34.320 -23.346 -17.188  0.00  0.00    -0.006 C 
ATOM      3  C   UNL     1      34.406 -23.091 -14.787  0.00  0.00    -0.002 C 
ATOM      4  C   UNL     1      35.565 -22.728 -17.299  0.00  0.00    -0.021 C 
ATOM      5  C   UNL     1      36.231 -22.291 -16.153  0.00  0.00    -0.025 C 
ATOM      6  C   UNL     1      35.651 -22.473 -14.898  0.00  0.00    -0.005 C 
ATOM      7  C   UNL     1      37.565 -21.626 -16.246  0.00  0.00    +0.031 C 
ENDROOT
BRANCH   1  11
ATOM      8  O   UNL     1      31.400 -23.278 -16.289  0.00  0.00    -0.347 OA
ATOM      9  C   UNL     1      32.083 -24.628 -14.370  0.00  0.00    +0.171 C 
ATOM     10  C   UNL     1      30.651 -25.156 -14.243  0.00  0.00    +0.169 C 
ATOM     11  C   UNL     1      32.387 -24.200 -15.813  0.00  0.00    +0.167 C 
ATOM     12  C   UNL     1      29.648 -24.203 -14.891  0.00  0.00    +0.169 C 
ATOM     13  C   UNL     1      30.086 -23.837 -16.311  0.00  0.00    +0.174 C 
BRANCH   9  14
ATOM     14  O   UNL     1      32.994 -25.663 -13.999  0.00  0.00    -0.379 OA
ATOM     15  H   UNL     1      32.678 -26.098 -13.191  0.00  0.00    +0.211 HD
ENDBRANCH   9  14
BRANCH  10  16
ATOM     16  O   UNL     1      30.312 -25.281 -12.861  0.00  0.00    -0.379 OA
ATOM     17  H   UNL     1      29.451 -24.865 -12.701  0.00  0.00    +0.211 HD
ENDBRANCH  10  16
BRANCH  12  18
ATOM     18  O   UNL     1      28.369 -24.829 -14.942  0.00  0.00    -0.379 OA
ATOM     19  H   UNL     1      27.731 -24.226 -15.356  0.00  0.00    +0.211 HD
ENDBRANCH  12  18
BRANCH  13  20
ATOM     20  C   UNL     1      29.159 -22.801 -16.939  0.00  0.00    +0.169 C 
BRANCH  20  21
ATOM     21  O   UNL     1      28.155 -23.480 -17.671  0.00  0.00    -0.379 OA
ATOM     22  H   UNL     1      28.378 -23.467 -18.615  0.00  0.00    +0.211 HD
ENDBRANCH  20  21
ENDBRANCH  13  20
ENDBRANCH   1  11
BRANCH   4  23
ATOM     23  C   UNL     1      36.166 -22.543 -18.654  0.00  0.00    +0.059 C 
BRANCH  23  25
ATOM     24  S   UNL     1      36.178 -20.617 -20.671  0.00  0.00    -0.091 S 
ATOM     25  C   UNL     1      35.363 -21.635 -19.561  0.00  0.00    +0.012 C 
ATOM     26  C   UNL     1      33.995 -21.494 -19.640  0.00  0.00    +0.003 C 
ATOM     27  C   UNL     1      34.700 -19.984 -21.259  0.00  0.00    +0.029 C 
ATOM     28  C   UNL     1      33.611 -20.537 -20.623  0.00  0.00    +0.007 C 
BRANCH  27  30
ATOM     29  F   UNL     1      34.830 -16.137 -25.290  0.00  0.00    -0.204 F 
ATOM     30  C   UNL     1      34.734 -18.987 -22.304  0.00  0.00    +0.006 C 
ATOM     31  C   UNL     1      34.234 -19.287 -23.571  0.00  0.00    +0.003 C 
ATOM     32  C   UNL     1      35.267 -17.724 -22.046  0.00  0.00    +0.003 C 
ATOM     33  C   UNL     1      34.266 -18.325 -24.579  0.00  0.00    +0.030 C 
ATOM     34  C   UNL     1      35.299 -16.762 -23.054  0.00  0.00    +0.030 C 
ATOM     35  C   UNL     1      34.798 -17.062 -24.321  0.00  0.00    +0.140 C 
ENDBRANCH  27  30
ENDBRANCH  23  25
ENDBRANCH   4  23
TORSDOF 9
ENDMDL
MODEL 5
REMARK VINA RESULT:     -10.5     12.289     17.079
REMARK  Name = 24812758
REMARK  9 active torsions:
REMARK  status: ('A' for Active; 'I' for Inactive)
REMARK    1  A    between atoms: C_1  and  C_11
REMARK    2  A    between atoms: C_4  and  C_23
REMARK    3  A    between atoms: C_9  and  O_14
REMARK    4  A    between atoms: C_10  and  O_16
REMARK    5  A    between atoms: C_12  and  O_18
REMARK    6  A    between atoms: C_13  and  C_20
REMARK    7  A    between atoms: C_20  and  O_21
REMARK    8  A    between atoms: C_23  and  C_25
REMARK    9  A    between atoms: C_27  and  C_30
REMARK                            x       y       z     vdW  Elec       q    Type
REMARK                         _______ _______ _______ _____ _____    ______ ____
ROOT
ATOM      1  C   UNL     1      31.839  -7.117 -22.297  0.00  0.00    +0.007 C 
ATOM      2  C   UNL     1      31.412  -8.429 -22.502  0.00  0.00    -0.006 C 
ATOM      3  C   UNL     1      32.447  -6.761 -21.093  0.00  0.00    -0.002 C 
ATOM      4  C   UNL     1      31.592  -9.385 -21.503  0.00  0.00    -0.021 C 
ATOM      5  C   UNL     1      32.199  -9.029 -20.298  0.00  0.00    -0.025 C 
ATOM      6  C   UNL     1      32.627  -7.717 -20.094  0.00  0.00    -0.005 C 
ATOM      7  C   UNL     1      32.404 -10.035 -19.213  0.00  0.00    +0.031 C 
ENDROOT
BRANCH   1  11
ATOM      8  O   UNL     1      32.840  -6.039 -24.169  0.00  0.00    -0.347 OA
ATOM      9  C   UNL     1      31.326  -4.692 -22.803  0.00  0.00    +0.171 C 
ATOM     10  C   UNL     1      31.291  -3.630 -23.906  0.00  0.00    +0.169 C 
ATOM     11  C   UNL     1      31.644  -6.078 -23.384  0.00  0.00    +0.167 C 
ATOM     12  C   UNL     1      32.524  -3.721 -24.803  0.00  0.00    +0.169 C 
ATOM     13  C   UNL     1      32.740  -5.156 -25.286  0.00  0.00    +0.174 C 
BRANCH   9  14
ATOM     14  O   UNL     1      30.048  -4.744 -22.169  0.00  0.00    -0.379 OA
ATOM     15  H   UNL     1      30.019  -5.500 -21.563  0.00  0.00    +0.211 HD
ENDBRANCH   9  14
BRANCH  10  16
ATOM     16  O   UNL     1      31.272  -2.330 -23.313  0.00  0.00    -0.379 OA
ATOM     17  H   UNL     1      31.375  -2.412 -22.351  0.00  0.00    +0.211 HD
ENDBRANCH  10  16
BRANCH  12  18
ATOM     18  O   UNL     1      32.349  -2.867 -25.931  0.00  0.00    -0.379 OA
ATOM     19  H   UNL     1      31.442  -2.956 -26.266  0.00  0.00    +0.211 HD
ENDBRANCH  12  18
BRANCH  13  20
ATOM     20  C   UNL     1      34.026  -5.294 -26.095  0.00  0.00    +0.169 C 
BRANCH  20  21
ATOM     21  O   UNL     1      33.795  -4.790 -27.398  0.00  0.00    -0.379 OA
ATOM     22  H   UNL     1      33.599  -5.525 -28.000  0.00  0.00    +0.211 HD
ENDBRANCH  20  21
ENDBRANCH  13  20
ENDBRANCH   1  11
BRANCH   4  23
ATOM     23  C   UNL     1      31.127 -10.784 -21.744  0.00  0.00    +0.059 C 
BRANCH  23  25
ATOM     24  S   UNL     1      32.370 -13.280 -21.759  0.00  0.00    -0.091 S 
ATOM     25  C   UNL     1      32.183 -11.684 -22.350  0.00  0.00    +0.012 C 
ATOM     26  C   UNL     1      33.069 -11.402 -23.367  0.00  0.00    +0.003 C 
ATOM     27  C   UNL     1      33.639 -13.598 -22.863  0.00  0.00    +0.029 C 
ATOM     28  C   UNL     1      33.913 -12.512 -23.664  0.00  0.00    +0.007 C 
BRANCH  27  30
ATOM     29  F   UNL     1      36.062 -18.617 -22.809  0.00  0.00    -0.204 F 
ATOM     30  C   UNL     1      34.268 -14.899 -22.849  0.00  0.00    +0.006 C 
ATOM     31  C   UNL     1      34.770 -15.418 -21.656  0.00  0.00    +0.003 C 
ATOM     32  C   UNL     1      34.372 -15.636 -24.029  0.00  0.00    +0.003 C 
ATOM     33  C   UNL     1      35.376 -16.674 -21.642  0.00  0.00    +0.030 C 
ATOM     34  C   UNL     1      34.978 -16.891 -24.015  0.00  0.00    +0.030 C 
ATOM     35  C   UNL     1      35.480 -17.411 -22.822  0.00  0.00    +0.140 C 
ENDBRANCH  27  30
ENDBRANCH  23  25
ENDBRANCH   4  23
TORSDOF 9
ENDMDL
MODEL 6
REMARK VINA RESULT:     -10.4     11.812     16.661
REMARK  Name = 24812758
REMARK  9 active torsions:
REMARK  status: ('A' for Active; 'I' for Inactive)
REMARK    1  A    between atoms: C_1  and  C_11
REMARK    2  A    between atoms: C_4  and  C_23
REMARK    3  A    between atoms: C_9  and  O_14
REMARK    4  A    between atoms: C_10  and  O_16
REMARK    5  A    between atoms: C_12  and  O_18
REMARK    6  A    between atoms: C_13  and  C_20
REMARK    7  A    between atoms: C_20  and  O_21
REMARK    8  A    between atoms: C_23  and  C_25
REMARK    9  A    between atoms: C_27  and  C_30
REMARK                            x       y       z     vdW  Elec       q    Type
REMARK                         _______ _______ _______ _____ _____    ______ ____
ROOT
ATOM      1  C   UNL     1      32.623  -7.304 -21.650  0.00  0.00    +0.007 C 
ATOM      2  C   UNL     1      32.109  -8.471 -22.215  0.00  0.00    -0.006 C 
ATOM      3  C   UNL     1      32.791  -7.214 -20.267  0.00  0.00    -0.002 C 
ATOM      4  C   UNL     1      31.764  -9.548 -21.399  0.00  0.00    -0.021 C 
ATOM      5  C   UNL     1      31.933  -9.458 -20.017  0.00  0.00    -0.025 C 
ATOM      6  C   UNL     1      32.446  -8.292 -19.452  0.00  0.00    -0.005 C 
ATOM      7  C   UNL     1      31.571 -10.598 -19.123  0.00  0.00    +0.031 C 
ENDROOT
BRANCH   1  11
ATOM      8  O   UNL     1      31.806  -5.382 -22.792  0.00  0.00    -0.347 OA
ATOM      9  C   UNL     1      33.646  -6.592 -23.851  0.00  0.00    +0.171 C 
ATOM     10  C   UNL     1      33.868  -5.408 -24.797  0.00  0.00    +0.169 C 
ATOM     11  C   UNL     1      32.997  -6.133 -22.536  0.00  0.00    +0.167 C 
ATOM     12  C   UNL     1      32.607  -4.556 -24.926  0.00  0.00    +0.169 C 
ATOM     13  C   UNL     1      32.051  -4.195 -23.546  0.00  0.00    +0.174 C 
BRANCH   9  14
ATOM     14  O   UNL     1      34.906  -7.192 -23.554  0.00  0.00    -0.379 OA
ATOM     15  H   UNL     1      35.236  -7.659 -24.338  0.00  0.00    +0.211 HD
ENDBRANCH   9  14
BRANCH  10  16
ATOM     16  O   UNL     1      34.206  -5.895 -26.096  0.00  0.00    -0.379 OA
ATOM     17  H   UNL     1      34.856  -5.303 -26.505  0.00  0.00    +0.211 HD
ENDBRANCH  10  16
BRANCH  12  18
ATOM     18  O   UNL     1      32.918  -3.359 -25.634  0.00  0.00    -0.379 OA
ATOM     19  H   UNL     1      32.189  -3.143 -26.238  0.00  0.00    +0.211 HD
ENDBRANCH  12  18
BRANCH  13  20
ATOM     20  C   UNL     1      30.732  -3.437 -23.649  0.00  0.00    +0.169 C 
BRANCH  20  21
ATOM     21  O   UNL     1      30.239  -3.210 -22.340  0.00  0.00    -0.379 OA
ATOM     22  H   UNL     1      30.982  -3.164 -21.718  0.00  0.00    +0.211 HD
ENDBRANCH  20  21
ENDBRANCH  13  20
ENDBRANCH   1  11
BRANCH   4  23
ATOM     23  C   UNL     1      31.216 -10.788 -22.027  0.00  0.00    +0.059 C 
BRANCH  23  25
ATOM     24  S   UNL     1      32.459 -13.257 -21.659  0.00  0.00    -0.091 S 
ATOM     25  C   UNL     1      32.281 -11.766 -22.481  0.00  0.00    +0.012 C 
ATOM     26  C   UNL     1      33.179 -11.635 -23.516  0.00  0.00    +0.003 C 
ATOM     27  C   UNL     1      33.743 -13.732 -22.688  0.00  0.00    +0.029 C 
ATOM     28  C   UNL     1      34.027 -12.774 -23.636  0.00  0.00    +0.007 C 
BRANCH  27  30
ATOM     29  F   UNL     1      36.165 -18.684 -21.868  0.00  0.00    -0.204 F 
ATOM     30  C   UNL     1      34.370 -15.015 -22.475  0.00  0.00    +0.006 C 
ATOM     31  C   UNL     1      34.670 -15.834 -23.564  0.00  0.00    +0.003 C 
ATOM     32  C   UNL     1      34.677 -15.436 -21.181  0.00  0.00    +0.003 C 
ATOM     33  C   UNL     1      35.276 -17.073 -23.359  0.00  0.00    +0.030 C 
ATOM     34  C   UNL     1      35.283 -16.675 -20.976  0.00  0.00    +0.030 C 
ATOM     35  C   UNL     1      35.583 -17.494 -22.065  0.00  0.00    +0.140 C 
ENDBRANCH  27  30
ENDBRANCH  23  25
ENDBRANCH   4  23
TORSDOF 9
ENDMDL
MODEL 7
REMARK VINA RESULT:      -9.9      4.451      8.388
REMARK  Name = 24812758
REMARK  9 active torsions:
REMARK  status: ('A' for Active; 'I' for Inactive)
REMARK    1  A    between atoms: C_1  and  C_11
REMARK    2  A    between atoms: C_4  and  C_23
REMARK    3  A    between atoms: C_9  and  O_14
REMARK    4  A    between atoms: C_10  and  O_16
REMARK    5  A    between atoms: C_12  and  O_18
REMARK    6  A    between atoms: C_13  and  C_20
REMARK    7  A    between atoms: C_20  and  O_21
REMARK    8  A    between atoms: C_23  and  C_25
REMARK    9  A    between atoms: C_27  and  C_30
REMARK                            x       y       z     vdW  Elec       q    Type
REMARK                         _______ _______ _______ _____ _____    ______ ____
ROOT
ATOM      1  C   UNL     1      35.750 -22.404 -17.635  0.00  0.00    +0.007 C 
ATOM      2  C   UNL     1      34.983 -23.332 -16.930  0.00  0.00    -0.006 C 
ATOM      3  C   UNL     1      36.883 -21.843 -17.044  0.00  0.00    -0.002 C 
ATOM      4  C   UNL     1      35.347 -23.699 -15.635  0.00  0.00    -0.021 C 
ATOM      5  C   UNL     1      36.480 -23.138 -15.044  0.00  0.00    -0.025 C 
ATOM      6  C   UNL     1      37.247 -22.210 -15.749  0.00  0.00    -0.005 C 
ATOM      7  C   UNL     1      36.891 -23.515 -13.659  0.00  0.00    +0.031 C 
ENDROOT
BRANCH   1  11
ATOM      8  O   UNL     1      36.136 -20.864 -19.408  0.00  0.00    -0.347 OA
ATOM      9  C   UNL     1      33.852 -21.697 -19.152  0.00  0.00    +0.171 C 
ATOM     10  C   UNL     1      33.505 -21.143 -20.536  0.00  0.00    +0.169 C 
ATOM     11  C   UNL     1      35.353 -22.006 -19.043  0.00  0.00    +0.167 C 
ATOM     12  C   UNL     1      34.458 -20.020 -20.941  0.00  0.00    +0.169 C 
ATOM     13  C   UNL     1      35.914 -20.450 -20.757  0.00  0.00    +0.174 C 
BRANCH   9  14
ATOM     14  O   UNL     1      33.121 -22.904 -18.937  0.00  0.00    -0.379 OA
ATOM     15  H   UNL     1      33.738 -23.650 -18.878  0.00  0.00    +0.211 HD
ENDBRANCH   9  14
BRANCH  10  16
ATOM     16  O   UNL     1      32.179 -20.612 -20.516  0.00  0.00    -0.379 OA
ATOM     17  H   UNL     1      32.039 -20.122 -19.691  0.00  0.00    +0.211 HD
ENDBRANCH  10  16
BRANCH  12  18
ATOM     18  O   UNL     1      34.237 -19.685 -22.309  0.00  0.00    -0.379 OA
ATOM     19  H   UNL     1      33.877 -18.785 -22.367  0.00  0.00    +0.211 HD
ENDBRANCH  12  18
BRANCH  13  20
ATOM     20  C   UNL     1      36.883 -19.309 -21.050  0.00  0.00    +0.169 C 
BRANCH  20  21
ATOM     21  O   UNL     1      36.237 -18.083 -20.757  0.00  0.00    -0.379 OA
ATOM     22  H   UNL     1      36.841 -17.509 -20.260  0.00  0.00    +0.211 HD
ENDBRANCH  20  21
ENDBRANCH  13  20
ENDBRANCH   1  11
BRANCH   4  23
ATOM     23  C   UNL     1      34.512 -24.695 -14.900  0.00  0.00    +0.059 C 
BRANCH  23  25
ATOM     24  S   UNL     1      32.032 -24.007 -15.976  0.00  0.00    -0.091 S 
ATOM     25  C   UNL     1      33.090 -24.234 -14.649  0.00  0.00    +0.012 C 
ATOM     26  C   UNL     1      32.479 -23.957 -13.447  0.00  0.00    +0.003 C 
ATOM     27  C   UNL     1      30.752 -23.534 -14.943  0.00  0.00    +0.029 C 
ATOM     28  C   UNL     1      31.124 -23.550 -13.617  0.00  0.00    +0.007 C 
BRANCH  27  30
ATOM     29  F   UNL     1      25.836 -22.173 -17.190  0.00  0.00    -0.204 F 
ATOM     30  C   UNL     1      29.478 -23.181 -15.525  0.00  0.00    +0.006 C 
ATOM     31  C   UNL     1      28.516 -22.527 -14.755  0.00  0.00    +0.003 C 
ATOM     32  C   UNL     1      29.209 -23.494 -16.858  0.00  0.00    +0.003 C 
ATOM     33  C   UNL     1      27.286 -22.187 -15.317  0.00  0.00    +0.030 C 
ATOM     34  C   UNL     1      27.980 -23.154 -17.420  0.00  0.00    +0.030 C 
ATOM     35  C   UNL     1      27.017 -22.500 -16.650  0.00  0.00    +0.140 C 
ENDBRANCH  27  30
ENDBRANCH  23  25
ENDBRANCH   4  23
TORSDOF 9
ENDMDL
MODEL 8
REMARK VINA RESULT:      -9.8      7.975     12.972
REMARK  Name = 24812758
REMARK  9 active torsions:
REMARK  status: ('A' for Active; 'I' for Inactive)
REMARK    1  A    between atoms: C_1  and  C_11
REMARK    2  A    between atoms: C_4  and  C_23
REMARK    3  A    between atoms: C_9  and  O_14
REMARK    4  A    between atoms: C_10  and  O_16
REMARK    5  A    between atoms: C_12  and  O_18
REMARK    6  A    between atoms: C_13  and  C_20
REMARK    7  A    between atoms: C_20  and  O_21
REMARK    8  A    between atoms: C_23  and  C_25
REMARK    9  A    between atoms: C_27  and  C_30
REMARK                            x       y       z     vdW  Elec       q    Type
REMARK                         _______ _______ _______ _____ _____    ______ ____
ROOT
ATOM      1  C   UNL     1      33.719 -13.534 -23.700  0.00  0.00    +0.007 C 
ATOM      2  C   UNL     1      34.650 -14.466 -23.241  0.00  0.00    -0.006 C 
ATOM      3  C   UNL     1      32.935 -13.823 -24.817  0.00  0.00    -0.002 C 
ATOM      4  C   UNL     1      34.797 -15.687 -23.898  0.00  0.00    -0.021 C 
ATOM      5  C   UNL     1      34.013 -15.976 -25.015  0.00  0.00    -0.025 C 
ATOM      6  C   UNL     1      33.083 -15.044 -25.474  0.00  0.00    -0.005 C 
ATOM      7  C   UNL     1      34.152 -17.277 -25.736  0.00  0.00    +0.031 C 
ENDROOT
BRANCH   1  11
ATOM      8  O   UNL     1      32.263 -12.193 -22.378  0.00  0.00    -0.347 OA
ATOM      9  C   UNL     1      33.728 -11.015 -23.940  0.00  0.00    +0.171 C 
ATOM     10  C   UNL     1      33.405  -9.695 -23.234  0.00  0.00    +0.169 C 
ATOM     11  C   UNL     1      33.560 -12.207 -22.985  0.00  0.00    +0.167 C 
ATOM     12  C   UNL     1      32.077  -9.778 -22.483  0.00  0.00    +0.169 C 
ATOM     13  C   UNL     1      32.032 -11.022 -21.594  0.00  0.00    +0.174 C 
BRANCH   9  14
ATOM     14  O   UNL     1      35.081 -10.980 -24.393  0.00  0.00    -0.379 OA
ATOM     15  H   UNL     1      35.560 -10.277 -23.927  0.00  0.00    +0.211 HD
ENDBRANCH   9  14
BRANCH  10  16
ATOM     16  O   UNL     1      33.299  -8.652 -24.203  0.00  0.00    -0.379 OA
ATOM     17  H   UNL     1      33.075  -9.033 -25.067  0.00  0.00    +0.211 HD
ENDBRANCH  10  16
BRANCH  12  18
ATOM     18  O   UNL     1      31.922  -8.616 -21.672  0.00  0.00    -0.379 OA
ATOM     19  H   UNL     1      31.346  -8.823 -20.918  0.00  0.00    +0.211 HD
ENDBRANCH  12  18
BRANCH  13  20
ATOM     20  C   UNL     1      30.675 -11.186 -20.917  0.00  0.00    +0.169 C 
BRANCH  20  21
ATOM     21  O   UNL     1      30.669 -10.418 -19.727  0.00  0.00    -0.379 OA
ATOM     22  H   UNL     1      29.849 -10.585 -19.237  0.00  0.00    +0.211 HD
ENDBRANCH  20  21
ENDBRANCH  13  20
ENDBRANCH   1  11
BRANCH   4  23
ATOM     23  C   UNL     1      35.799 -16.670 -23.388  0.00  0.00    +0.059 C 
BRANCH  23  25
ATOM     24  S   UNL     1      35.624 -18.510 -21.300  0.00  0.00    -0.091 S 
ATOM     25  C   UNL     1      35.186 -17.949 -22.858  0.00  0.00    +0.012 C 
ATOM     26  C   UNL     1      34.274 -18.781 -23.469  0.00  0.00    +0.003 C 
ATOM     27  C   UNL     1      34.593 -19.870 -21.441  0.00  0.00    +0.029 C 
ATOM     28  C   UNL     1      33.931 -19.894 -22.648  0.00  0.00    +0.007 C 
BRANCH  27  30
ATOM     29  F   UNL     1      34.316 -23.493 -17.215  0.00  0.00    -0.204 F 
ATOM     30  C   UNL     1      34.522 -20.809 -20.346  0.00  0.00    +0.006 C 
ATOM     31  C   UNL     1      33.281 -21.264 -19.897  0.00  0.00    +0.003 C 
ATOM     32  C   UNL     1      35.692 -21.261 -19.736  0.00  0.00    +0.003 C 
ATOM     33  C   UNL     1      33.211 -22.170 -18.840  0.00  0.00    +0.030 C 
ATOM     34  C   UNL     1      35.622 -22.167 -18.679  0.00  0.00    +0.030 C 
ATOM     35  C   UNL     1      34.382 -22.622 -18.231  0.00  0.00    +0.140 C 
ENDBRANCH  27  30
ENDBRANCH  23  25
ENDBRANCH   4  23
TORSDOF 9
ENDMDL
MODEL 9
REMARK VINA RESULT:      -9.7      1.494      2.380
REMARK  Name = 24812758
REMARK  9 active torsions:
REMARK  status: ('A' for Active; 'I' for Inactive)
REMARK    1  A    between atoms: C_1  and  C_11
REMARK    2  A    between atoms: C_4  and  C_23
REMARK    3  A    between atoms: C_9  and  O_14
REMARK    4  A    between atoms: C_10  and  O_16
REMARK    5  A    between atoms: C_12  and  O_18
REMARK    6  A    between atoms: C_13  and  C_20
REMARK    7  A    between atoms: C_20  and  O_21
REMARK    8  A    between atoms: C_23  and  C_25
REMARK    9  A    between atoms: C_27  and  C_30
REMARK                            x       y       z     vdW  Elec       q    Type
REMARK                         _______ _______ _______ _____ _____    ______ ____
ROOT
ATOM      1  C   UNL     1      34.980 -23.024 -16.539  0.00  0.00    +0.007 C 
ATOM      2  C   UNL     1      35.599 -22.815 -17.771  0.00  0.00    -0.006 C 
ATOM      3  C   UNL     1      33.589 -22.972 -16.439  0.00  0.00    -0.002 C 
ATOM      4  C   UNL     1      34.829 -22.552 -18.904  0.00  0.00    -0.021 C 
ATOM      5  C   UNL     1      33.439 -22.500 -18.804  0.00  0.00    -0.025 C 
ATOM      6  C   UNL     1      32.819 -22.709 -17.572  0.00  0.00    -0.005 C 
ATOM      7  C   UNL     1      32.592 -22.221 -20.003  0.00  0.00    +0.031 C 
ENDROOT
BRANCH   1  11
ATOM      8  O   UNL     1      36.983 -24.024 -15.731  0.00  0.00    -0.347 OA
ATOM      9  C   UNL     1      35.037 -24.111 -14.255  0.00  0.00    +0.171 C 
ATOM     10  C   UNL     1      35.947 -24.525 -13.095  0.00  0.00    +0.169 C 
ATOM     11  C   UNL     1      35.817 -23.309 -15.308  0.00  0.00    +0.167 C 
ATOM     12  C   UNL     1      37.243 -25.156 -13.603  0.00  0.00    +0.169 C 
ATOM     13  C   UNL     1      37.899 -24.270 -14.664  0.00  0.00    +0.174 C 
BRANCH   9  14
ATOM     14  O   UNL     1      33.982 -23.295 -13.748  0.00  0.00    -0.379 OA
ATOM     15  H   UNL     1      33.958 -23.361 -12.781  0.00  0.00    +0.211 HD
ENDBRANCH   9  14
BRANCH  10  16
ATOM     16  O   UNL     1      35.274 -25.490 -12.285  0.00  0.00    -0.379 OA
ATOM     17  H   UNL     1      35.808 -25.681 -11.498  0.00  0.00    +0.211 HD
ENDBRANCH  10  16
BRANCH  12  18
ATOM     18  O   UNL     1      38.143 -25.326 -12.511  0.00  0.00    -0.379 OA
ATOM     19  H   UNL     1      38.901 -24.731 -12.622  0.00  0.00    +0.211 HD
ENDBRANCH  12  18
BRANCH  13  20
ATOM     20  C   UNL     1      39.136 -24.930 -15.265  0.00  0.00    +0.169 C 
BRANCH  20  21
ATOM     21  O   UNL     1      38.900 -26.323 -15.365  0.00  0.00    -0.379 OA
ATOM     22  H   UNL     1      37.966 -26.479 -15.575  0.00  0.00    +0.211 HD
ENDBRANCH  20  21
ENDBRANCH  13  20
ENDBRANCH   1  11
BRANCH   4  23
ATOM     23  C   UNL     1      35.514 -22.332 -20.212  0.00  0.00    +0.059 C 
BRANCH  23  25
ATOM     24  S   UNL     1      34.708 -19.838 -21.166  0.00  0.00    -0.091 S 
ATOM     25  C   UNL     1      35.875 -20.885 -20.478  0.00  0.00    +0.012 C 
ATOM     26  C   UNL     1      37.068 -20.240 -20.234  0.00  0.00    +0.003 C 
ATOM     27  C   UNL     1      35.798 -18.518 -21.141  0.00  0.00    +0.029 C 
ATOM     28  C   UNL     1      37.023 -18.869 -20.619  0.00  0.00    +0.007 C 
BRANCH  27  30
ATOM     29  F   UNL     1      34.091 -13.577 -23.074  0.00  0.00    -0.204 F 
ATOM     30  C   UNL     1      35.355 -17.238 -21.642  0.00  0.00    +0.006 C 
ATOM     31  C   UNL     1      35.020 -16.218 -20.751  0.00  0.00    +0.003 C 
ATOM     32  C   UNL     1      35.263 -17.020 -23.017  0.00  0.00    +0.003 C 
ATOM     33  C   UNL     1      34.593 -14.982 -21.234  0.00  0.00    +0.030 C 
ATOM     34  C   UNL     1      34.836 -15.784 -23.500  0.00  0.00    +0.030 C 
ATOM     35  C   UNL     1      34.501 -14.764 -22.609  0.00  0.00    +0.140 C 
ENDBRANCH  27  30
ENDBRANCH  23  25
ENDBRANCH   4  23
TORSDOF 9
ENDMDL
