MODEL 1
REMARK VINA RESULT:     -12.4      0.000      0.000
REMARK  Name = 59568713
REMARK  8 active torsions:
REMARK  status: ('A' for Active; 'I' for Inactive)
REMARK    1  A    between atoms: N_1  and  C_9
REMARK    2  A    between atoms: N_2  and  C_24
REMARK    3  A    between atoms: C_9  and  C_10
REMARK    4  A    between atoms: C_10  and  C_13
REMARK    5  A    between atoms: C_10  and  O_22
REMARK    6  A    between atoms: C_24  and  C_25
REMARK    7  A    between atoms: C_25  and  C_28
REMARK    8  A    between atoms: C_25  and  O_37
REMARK                            x       y       z     vdW  Elec       q    Type
REMARK                         _______ _______ _______ _____ _____    ______ ____
ROOT
ATOM      1  N   UNL     1      33.782 -13.580 -22.820  0.00  0.00    +0.386 N 
ATOM      2  N   UNL     1      34.666 -16.252 -22.159  0.00  0.00    +0.386 N 
ATOM      3  C   UNL     1      34.932 -15.666 -23.479  0.00  0.00    -0.101 C 
ATOM      4  C   UNL     1      34.587 -15.202 -21.138  0.00  0.00    -0.101 C 
ATOM      5  C   UNL     1      33.861 -14.631 -23.842  0.00  0.00    -0.101 C 
ATOM      6  C   UNL     1      33.517 -14.166 -21.501  0.00  0.00    -0.101 C 
ATOM      7  H   UNL     1      34.681 -13.099 -22.784  0.00  0.00    -0.080 HD
ATOM      8  H   UNL     1      33.765 -16.731 -22.196  0.00  0.00    -0.080 HD
ENDROOT
BRANCH   1   9
ATOM      9  C   UNL     1      32.758 -12.596 -23.167  0.00  0.00    -0.043 C 
BRANCH   9  10
ATOM     10  C   UNL     1      32.232 -11.891 -21.910  0.00  0.00    +0.112 C 
BRANCH  10  13
ATOM     11  O   UNL     1      32.288  -5.918 -20.941  0.00  0.00    -0.440 OA
ATOM     12  O   UNL     1      32.665  -5.426 -23.170  0.00  0.00    -0.245 OA
ATOM     13  C   UNL     1      32.309 -10.386 -22.046  0.00  0.00    -0.002 C 
ATOM     14  C   UNL     1      32.157  -9.561 -20.926  0.00  0.00    -0.024 C 
ATOM     15  C   UNL     1      32.235  -8.192 -21.108  0.00  0.00    +0.023 C 
ATOM     16  C   UNL     1      32.534  -9.835 -23.318  0.00  0.00    -0.002 C 
ATOM     17  C   UNL     1      32.456  -7.665 -22.364  0.00  0.00    +0.075 C 
ATOM     18  C   UNL     1      32.610  -8.453 -23.489  0.00  0.00    +0.006 C 
ATOM     19  C   UNL     1      32.115  -7.102 -20.123  0.00  0.00    +0.235 C 
ATOM     20  C   UNL     1      31.917 -10.132 -19.570  0.00  0.00    +0.031 C 
ATOM     21  C   UNL     1      32.491  -6.214 -22.263  0.00  0.00    +0.341 C 
ENDBRANCH  10  13
BRANCH  10  22
ATOM     22  O   UNL     1      30.871 -12.249 -21.675  0.00  0.00    -0.382 OA
ATOM     23  H   UNL     1      30.322 -11.450 -21.669  0.00  0.00    +0.211 HD
ENDBRANCH  10  22
ENDBRANCH   9  10
ENDBRANCH   1   9
BRANCH   2  24
ATOM     24  C   UNL     1      35.687 -17.237 -21.813  0.00  0.00    -0.043 C 
BRANCH  24  25
ATOM     25  C   UNL     1      35.394 -18.586 -22.482  0.00  0.00    +0.112 C 
BRANCH  25  28
ATOM     26  O   UNL     1      34.864 -22.778 -18.150  0.00  0.00    -0.440 OA
ATOM     27  O   UNL     1      32.561 -22.889 -18.354  0.00  0.00    -0.245 OA
ATOM     28  C   UNL     1      34.888 -19.603 -21.482  0.00  0.00    -0.002 C 
ATOM     29  C   UNL     1      35.778 -20.283 -20.645  0.00  0.00    -0.024 C 
ATOM     30  C   UNL     1      35.262 -21.202 -19.750  0.00  0.00    +0.023 C 
ATOM     31  C   UNL     1      33.506 -19.851 -21.413  0.00  0.00    -0.002 C 
ATOM     32  C   UNL     1      33.904 -21.436 -19.693  0.00  0.00    +0.075 C 
ATOM     33  C   UNL     1      32.998 -20.782 -20.506  0.00  0.00    +0.006 C 
ATOM     34  C   UNL     1      35.956 -22.049 -18.764  0.00  0.00    +0.235 C 
ATOM     35  C   UNL     1      37.246 -20.030 -20.708  0.00  0.00    +0.031 C 
ATOM     36  C   UNL     1      33.643 -22.441 -18.674  0.00  0.00    +0.341 C 
ENDBRANCH  25  28
BRANCH  25  37
ATOM     37  O   UNL     1      34.403 -18.429 -23.498  0.00  0.00    -0.382 OA
ATOM     38  H   UNL     1      33.733 -19.123 -23.405  0.00  0.00    +0.211 HD
ENDBRANCH  25  37
ENDBRANCH  24  25
ENDBRANCH   2  24
TORSDOF 8
ENDMDL
MODEL 2
REMARK VINA RESULT:     -12.4      0.023     11.613
REMARK  Name = 59568713
REMARK  8 active torsions:
REMARK  status: ('A' for Active; 'I' for Inactive)
REMARK    1  A    between atoms: N_1  and  C_9
REMARK    2  A    between atoms: N_2  and  C_24
REMARK    3  A    between atoms: C_9  and  C_10
REMARK    4  A    between atoms: C_10  and  C_13
REMARK    5  A    between atoms: C_10  and  O_22
REMARK    6  A    between atoms: C_24  and  C_25
REMARK    7  A    between atoms: C_25  and  C_28
REMARK    8  A    between atoms: C_25  and  O_37
REMARK                            x       y       z     vdW  Elec       q    Type
REMARK                         _______ _______ _______ _____ _____    ______ ____
ROOT
ATOM      1  N   UNL     1      34.668 -16.249 -22.137  0.00  0.00    +0.386 N 
ATOM      2  N   UNL     1      33.789 -13.575 -22.797  0.00  0.00    +0.386 N 
ATOM      3  C   UNL     1      33.876 -14.624 -23.821  0.00  0.00    -0.101 C 
ATOM      4  C   UNL     1      33.513 -14.164 -21.482  0.00  0.00    -0.101 C 
ATOM      5  C   UNL     1      34.944 -15.659 -23.452  0.00  0.00    -0.101 C 
ATOM      6  C   UNL     1      34.580 -15.200 -21.113  0.00  0.00    -0.101 C 
ATOM      7  H   UNL     1      33.770 -16.729 -22.182  0.00  0.00    -0.080 HD
ATOM      8  H   UNL     1      34.689 -13.095 -22.751  0.00  0.00    -0.080 HD
ENDROOT
BRANCH   1   9
ATOM      9  C   UNL     1      35.690 -17.233 -21.785  0.00  0.00    -0.043 C 
BRANCH   9  10
ATOM     10  C   UNL     1      35.405 -18.581 -22.461  0.00  0.00    +0.112 C 
BRANCH  10  13
ATOM     11  O   UNL     1      34.842 -22.783 -18.143  0.00  0.00    -0.440 OA
ATOM     12  O   UNL     1      32.541 -22.898 -18.370  0.00  0.00    -0.245 OA
ATOM     13  C   UNL     1      34.892 -19.601 -21.468  0.00  0.00    -0.002 C 
ATOM     14  C   UNL     1      35.776 -20.280 -20.623  0.00  0.00    -0.024 C 
ATOM     15  C   UNL     1      35.253 -21.203 -19.735  0.00  0.00    +0.023 C 
ATOM     16  C   UNL     1      33.510 -19.851 -21.413  0.00  0.00    -0.002 C 
ATOM     17  C   UNL     1      33.894 -21.440 -19.693  0.00  0.00    +0.075 C 
ATOM     18  C   UNL     1      32.995 -20.785 -20.514  0.00  0.00    +0.006 C 
ATOM     19  C   UNL     1      35.939 -22.050 -18.743  0.00  0.00    +0.235 C 
ATOM     20  C   UNL     1      37.244 -20.024 -20.671  0.00  0.00    +0.031 C 
ATOM     21  C   UNL     1      33.626 -22.447 -18.678  0.00  0.00    +0.341 C 
ENDBRANCH  10  13
BRANCH  10  22
ATOM     22  O   UNL     1      34.424 -18.422 -23.485  0.00  0.00    -0.382 OA
ATOM     23  H   UNL     1      33.551 -18.304 -23.082  0.00  0.00    +0.211 HD
ENDBRANCH  10  22
ENDBRANCH   9  10
ENDBRANCH   1   9
BRANCH   2  24
ATOM     24  C   UNL     1      32.770 -12.589 -23.149  0.00  0.00    -0.043 C 
BRANCH  24  25
ATOM     25  C   UNL     1      32.236 -11.885 -21.895  0.00  0.00    +0.112 C 
BRANCH  25  28
ATOM     26  O   UNL     1      32.266  -5.909 -20.936  0.00  0.00    -0.440 OA
ATOM     27  O   UNL     1      32.628  -5.419 -23.168  0.00  0.00    -0.245 OA
ATOM     28  C   UNL     1      32.304 -10.379 -22.034  0.00  0.00    -0.002 C 
ATOM     29  C   UNL     1      32.154  -9.553 -20.916  0.00  0.00    -0.024 C 
ATOM     30  C   UNL     1      32.224  -8.184 -21.099  0.00  0.00    +0.023 C 
ATOM     31  C   UNL     1      32.519  -9.829 -23.310  0.00  0.00    -0.002 C 
ATOM     32  C   UNL     1      32.435  -7.657 -22.357  0.00  0.00    +0.075 C 
ATOM     33  C   UNL     1      32.587  -8.446 -23.482  0.00  0.00    +0.006 C 
ATOM     34  C   UNL     1      32.103  -7.094 -20.116  0.00  0.00    +0.235 C 
ATOM     35  C   UNL     1      31.924 -10.123 -19.558  0.00  0.00    +0.031 C 
ATOM     36  C   UNL     1      32.463  -6.206 -22.259  0.00  0.00    +0.341 C 
ENDBRANCH  25  28
BRANCH  25  37
ATOM     37  O   UNL     1      30.876 -12.250 -21.664  0.00  0.00    -0.382 OA
ATOM     38  H   UNL     1      30.516 -12.675 -22.458  0.00  0.00    +0.211 HD
ENDBRANCH  25  37
ENDBRANCH  24  25
ENDBRANCH   2  24
TORSDOF 8
ENDMDL
MODEL 3
REMARK VINA RESULT:     -11.6      2.881      5.023
REMARK  Name = 59568713
REMARK  8 active torsions:
REMARK  status: ('A' for Active; 'I' for Inactive)
REMARK    1  A    between atoms: N_1  and  C_9
REMARK    2  A    between atoms: N_2  and  C_24
REMARK    3  A    between atoms: C_9  and  C_10
REMARK    4  A    between atoms: C_10  and  C_13
REMARK    5  A    between atoms: C_10  and  O_22
REMARK    6  A    between atoms: C_24  and  C_25
REMARK    7  A    between atoms: C_25  and  C_28
REMARK    8  A    between atoms: C_25  and  O_37
REMARK                            x       y       z     vdW  Elec       q    Type
REMARK                         _______ _______ _______ _____ _____    ______ ____
ROOT
ATOM      1  N   UNL     1      31.642  -9.749 -21.109  0.00  0.00    +0.386 N 
ATOM      2  N   UNL     1      32.602 -12.228 -22.247  0.00  0.00    +0.386 N 
ATOM      3  C   UNL     1      31.557 -12.216 -21.215  0.00  0.00    -0.101 C 
ATOM      4  C   UNL     1      32.552 -10.994 -23.040  0.00  0.00    -0.101 C 
ATOM      5  C   UNL     1      31.692 -10.983 -20.316  0.00  0.00    -0.101 C 
ATOM      6  C   UNL     1      32.686  -9.760 -22.141  0.00  0.00    -0.101 C 
ATOM      7  H   UNL     1      30.734  -9.701 -21.571  0.00  0.00    -0.080 HD
ATOM      8  H   UNL     1      33.510 -12.274 -21.783  0.00  0.00    -0.080 HD
ENDROOT
BRANCH   1   9
ATOM      9  C   UNL     1      31.774  -8.574 -20.250  0.00  0.00    -0.043 C 
BRANCH   9  10
ATOM     10  C   UNL     1      32.913  -7.668 -20.736  0.00  0.00    +0.112 C 
BRANCH  10  13
ATOM     11  O   UNL     1      32.077  -3.719 -25.243  0.00  0.00    -0.440 OA
ATOM     12  O   UNL     1      30.187  -2.805 -24.270  0.00  0.00    -0.245 OA
ATOM     13  C   UNL     1      32.402  -6.577 -21.650  0.00  0.00    -0.002 C 
ATOM     14  C   UNL     1      33.064  -6.282 -22.847  0.00  0.00    -0.024 C 
ATOM     15  C   UNL     1      32.554  -5.274 -23.645  0.00  0.00    +0.023 C 
ATOM     16  C   UNL     1      31.250  -5.867 -21.273  0.00  0.00    -0.002 C 
ATOM     17  C   UNL     1      31.422  -4.584 -23.262  0.00  0.00    +0.075 C 
ATOM     18  C   UNL     1      30.746  -4.851 -22.086  0.00  0.00    +0.006 C 
ATOM     19  C   UNL     1      33.039  -4.759 -24.938  0.00  0.00    +0.235 C 
ATOM     20  C   UNL     1      34.287  -7.028 -23.259  0.00  0.00    +0.031 C 
ATOM     21  C   UNL     1      31.114  -3.590 -24.278  0.00  0.00    +0.341 C 
ENDBRANCH  10  13
BRANCH  10  22
ATOM     22  O   UNL     1      33.562  -7.052 -19.624  0.00  0.00    -0.382 OA
ATOM     23  H   UNL     1      32.966  -7.053 -18.860  0.00  0.00    +0.211 HD
ENDBRANCH  10  22
ENDBRANCH   9  10
ENDBRANCH   1   9
BRANCH   2  24
ATOM     24  C   UNL     1      32.473 -13.403 -23.105  0.00  0.00    -0.043 C 
BRANCH  24  25
ATOM     25  C   UNL     1      33.787 -13.687 -23.842  0.00  0.00    +0.112 C 
BRANCH  25  28
ATOM     26  O   UNL     1      35.720 -19.134 -22.046  0.00  0.00    -0.440 OA
ATOM     27  O   UNL     1      35.250 -20.120 -24.086  0.00  0.00    -0.245 OA
ATOM     28  C   UNL     1      34.169 -15.149 -23.750  0.00  0.00    -0.002 C 
ATOM     29  C   UNL     1      34.706 -15.672 -22.569  0.00  0.00    -0.024 C 
ATOM     30  C   UNL     1      35.038 -17.014 -22.539  0.00  0.00    +0.023 C 
ATOM     31  C   UNL     1      33.976 -15.969 -24.876  0.00  0.00    -0.002 C 
ATOM     32  C   UNL     1      34.843 -17.807 -23.651  0.00  0.00    +0.075 C 
ATOM     33  C   UNL     1      34.316 -17.321 -24.833  0.00  0.00    +0.006 C 
ATOM     34  C   UNL     1      35.611 -17.819 -21.446  0.00  0.00    +0.235 C 
ATOM     35  C   UNL     1      34.917 -14.813 -21.369  0.00  0.00    +0.031 C 
ATOM     36  C   UNL     1      35.277 -19.161 -23.343  0.00  0.00    +0.341 C 
ENDBRANCH  25  28
BRANCH  25  37
ATOM     37  O   UNL     1      33.663 -13.346 -25.223  0.00  0.00    -0.382 OA
ATOM     38  H   UNL     1      33.663 -12.381 -25.318  0.00  0.00    +0.211 HD
ENDBRANCH  25  37
ENDBRANCH  24  25
ENDBRANCH   2  24
TORSDOF 8
ENDMDL
MODEL 4
REMARK VINA RESULT:     -11.6      2.878     12.087
REMARK  Name = 59568713
REMARK  8 active torsions:
REMARK  status: ('A' for Active; 'I' for Inactive)
REMARK    1  A    between atoms: N_1  and  C_9
REMARK    2  A    between atoms: N_2  and  C_24
REMARK    3  A    between atoms: C_9  and  C_10
REMARK    4  A    between atoms: C_10  and  C_13
REMARK    5  A    between atoms: C_10  and  O_22
REMARK    6  A    between atoms: C_24  and  C_25
REMARK    7  A    between atoms: C_25  and  C_28
REMARK    8  A    between atoms: C_25  and  O_37
REMARK                            x       y       z     vdW  Elec       q    Type
REMARK                         _______ _______ _______ _____ _____    ______ ____
ROOT
ATOM      1  N   UNL     1      32.612 -12.199 -22.201  0.00  0.00    +0.386 N 
ATOM      2  N   UNL     1      31.635  -9.703 -21.116  0.00  0.00    +0.386 N 
ATOM      3  C   UNL     1      31.702 -10.918 -20.294  0.00  0.00    -0.101 C 
ATOM      4  C   UNL     1      32.672  -9.728 -22.153  0.00  0.00    -0.101 C 
ATOM      5  C   UNL     1      31.574 -12.173 -21.163  0.00  0.00    -0.101 C 
ATOM      6  C   UNL     1      32.545 -10.984 -23.023  0.00  0.00    -0.101 C 
ATOM      7  H   UNL     1      33.522 -12.228 -21.744  0.00  0.00    -0.080 HD
ATOM      8  H   UNL     1      30.723  -9.676 -21.575  0.00  0.00    -0.080 HD
ENDROOT
BRANCH   1   9
ATOM      9  C   UNL     1      32.485 -13.395 -23.031  0.00  0.00    -0.043 C 
BRANCH   9  10
ATOM     10  C   UNL     1      33.791 -13.676 -23.786  0.00  0.00    +0.112 C 
BRANCH  10  13
ATOM     11  O   UNL     1      35.732 -19.135 -22.042  0.00  0.00    -0.440 OA
ATOM     12  O   UNL     1      35.254 -20.106 -24.088  0.00  0.00    -0.245 OA
ATOM     13  C   UNL     1      34.174 -15.137 -23.707  0.00  0.00    -0.002 C 
ATOM     14  C   UNL     1      34.714 -15.669 -22.532  0.00  0.00    -0.024 C 
ATOM     15  C   UNL     1      35.048 -17.011 -22.514  0.00  0.00    +0.023 C 
ATOM     16  C   UNL     1      33.977 -15.947 -24.838  0.00  0.00    -0.002 C 
ATOM     17  C   UNL     1      34.849 -17.796 -23.632  0.00  0.00    +0.075 C 
ATOM     18  C   UNL     1      34.318 -17.300 -24.809  0.00  0.00    +0.006 C 
ATOM     19  C   UNL     1      35.624 -17.826 -21.430  0.00  0.00    +0.235 C 
ATOM     20  C   UNL     1      34.929 -14.821 -21.325  0.00  0.00    +0.031 C 
ATOM     21  C   UNL     1      35.284 -19.152 -23.336  0.00  0.00    +0.341 C 
ENDBRANCH  10  13
BRANCH  10  22
ATOM     22  O   UNL     1      33.651 -13.325 -25.163  0.00  0.00    -0.382 OA
ATOM     23  H   UNL     1      33.587 -12.361 -25.246  0.00  0.00    +0.211 HD
ENDBRANCH  10  22
ENDBRANCH   9  10
ENDBRANCH   1   9
BRANCH   2  24
ATOM     24  C   UNL     1      31.759  -8.507 -20.287  0.00  0.00    -0.043 C 
BRANCH  24  25
ATOM     25  C   UNL     1      32.893  -7.607 -20.793  0.00  0.00    +0.112 C 
BRANCH  25  28
ATOM     26  O   UNL     1      31.991  -3.596 -25.234  0.00  0.00    -0.440 OA
ATOM     27  O   UNL     1      30.118  -2.693 -24.218  0.00  0.00    -0.245 OA
ATOM     28  C   UNL     1      32.369  -6.503 -21.685  0.00  0.00    -0.002 C 
ATOM     29  C   UNL     1      33.012  -6.192 -22.887  0.00  0.00    -0.024 C 
ATOM     30  C   UNL     1      32.491  -5.173 -23.664  0.00  0.00    +0.023 C 
ATOM     31  C   UNL     1      31.224  -5.795 -21.279  0.00  0.00    -0.002 C 
ATOM     32  C   UNL     1      31.367  -4.487 -23.254  0.00  0.00    +0.075 C 
ATOM     33  C   UNL     1      30.709  -4.768 -22.071  0.00  0.00    +0.006 C 
ATOM     34  C   UNL     1      32.956  -4.642 -24.957  0.00  0.00    +0.235 C 
ATOM     35  C   UNL     1      34.227  -6.934 -23.329  0.00  0.00    +0.031 C 
ATOM     36  C   UNL     1      31.043  -3.478 -24.251  0.00  0.00    +0.341 C 
ENDBRANCH  25  28
BRANCH  25  37
ATOM     37  O   UNL     1      33.575  -7.005 -19.692  0.00  0.00    -0.382 OA
ATOM     38  H   UNL     1      33.629  -6.047 -19.832  0.00  0.00    +0.211 HD
ENDBRANCH  25  37
ENDBRANCH  24  25
ENDBRANCH   2  24
TORSDOF 8
ENDMDL
MODEL 5
REMARK VINA RESULT:     -11.6      1.121     11.603
REMARK  Name = 59568713
REMARK  8 active torsions:
REMARK  status: ('A' for Active; 'I' for Inactive)
REMARK    1  A    between atoms: N_1  and  C_9
REMARK    2  A    between atoms: N_2  and  C_24
REMARK    3  A    between atoms: C_9  and  C_10
REMARK    4  A    between atoms: C_10  and  C_13
REMARK    5  A    between atoms: C_10  and  O_22
REMARK    6  A    between atoms: C_24  and  C_25
REMARK    7  A    between atoms: C_25  and  C_28
REMARK    8  A    between atoms: C_25  and  O_37
REMARK                            x       y       z     vdW  Elec       q    Type
REMARK                         _______ _______ _______ _____ _____    ______ ____
ROOT
ATOM      1  N   UNL     1      34.859 -16.675 -22.069  0.00  0.00    +0.386 N 
ATOM      2  N   UNL     1      33.938 -13.970 -22.507  0.00  0.00    +0.386 N 
ATOM      3  C   UNL     1      33.902 -14.971 -23.580  0.00  0.00    -0.101 C 
ATOM      4  C   UNL     1      33.803 -14.618 -21.197  0.00  0.00    -0.101 C 
ATOM      5  C   UNL     1      34.994 -16.027 -23.379  0.00  0.00    -0.101 C 
ATOM      6  C   UNL     1      34.894 -15.675 -20.996  0.00  0.00    -0.101 C 
ATOM      7  H   UNL     1      33.957 -17.149 -22.037  0.00  0.00    -0.080 HD
ATOM      8  H   UNL     1      34.842 -13.497 -22.539  0.00  0.00    -0.080 HD
ENDROOT
BRANCH   1   9
ATOM      9  C   UNL     1      35.904 -17.679 -21.877  0.00  0.00    -0.043 C 
BRANCH   9  10
ATOM     10  C   UNL     1      35.478 -19.029 -22.469  0.00  0.00    +0.112 C 
BRANCH  10  13
ATOM     11  O   UNL     1      34.549 -22.870 -17.885  0.00  0.00    -0.440 OA
ATOM     12  O   UNL     1      32.247 -22.799 -18.118  0.00  0.00    -0.245 OA
ATOM     13  C   UNL     1      34.878 -19.932 -21.414  0.00  0.00    -0.002 C 
ATOM     14  C   UNL     1      35.699 -20.628 -20.520  0.00  0.00    -0.024 C 
ATOM     15  C   UNL     1      35.097 -21.441 -19.577  0.00  0.00    +0.023 C 
ATOM     16  C   UNL     1      33.480 -20.057 -21.351  0.00  0.00    -0.002 C 
ATOM     17  C   UNL     1      33.722 -21.555 -19.527  0.00  0.00    +0.075 C 
ATOM     18  C   UNL     1      32.884 -20.881 -20.395  0.00  0.00    +0.006 C 
ATOM     19  C   UNL     1      35.706 -22.277 -18.526  0.00  0.00    +0.235 C 
ATOM     20  C   UNL     1      37.183 -20.505 -20.576  0.00  0.00    +0.031 C 
ATOM     21  C   UNL     1      33.367 -22.465 -18.449  0.00  0.00    +0.341 C 
ENDBRANCH  10  13
BRANCH  10  22
ATOM     22  O   UNL     1      34.507 -18.835 -23.496  0.00  0.00    -0.382 OA
ATOM     23  H   UNL     1      33.882 -18.145 -23.224  0.00  0.00    +0.211 HD
ENDBRANCH  10  22
ENDBRANCH   9  10
ENDBRANCH   1   9
BRANCH   2  24
ATOM     24  C   UNL     1      32.896 -12.964 -22.699  0.00  0.00    -0.043 C 
BRANCH  24  25
ATOM     25  C   UNL     1      33.350 -11.892 -23.697  0.00  0.00    +0.112 C 
BRANCH  25  28
ATOM     26  O   UNL     1      33.104  -5.926 -22.714  0.00  0.00    -0.440 OA
ATOM     27  O   UNL     1      31.391  -6.117 -21.169  0.00  0.00    -0.245 OA
ATOM     28  C   UNL     1      33.008 -10.501 -23.209  0.00  0.00    -0.002 C 
ATOM     29  C   UNL     1      33.697  -9.385 -23.696  0.00  0.00    -0.024 C 
ATOM     30  C   UNL     1      33.345  -8.137 -23.216  0.00  0.00    +0.023 C 
ATOM     31  C   UNL     1      31.986 -10.353 -22.255  0.00  0.00    -0.002 C 
ATOM     32  C   UNL     1      32.340  -8.007 -22.280  0.00  0.00    +0.075 C 
ATOM     33  C   UNL     1      31.641  -9.088 -21.778  0.00  0.00    +0.006 C 
ATOM     34  C   UNL     1      33.892  -6.811 -23.548  0.00  0.00    +0.235 C 
ATOM     35  C   UNL     1      34.783  -9.528 -24.707  0.00  0.00    +0.031 C 
ATOM     36  C   UNL     1      32.182  -6.598 -21.955  0.00  0.00    +0.341 C 
ENDBRANCH  25  28
BRANCH  25  37
ATOM     37  O   UNL     1      34.762 -11.962 -23.891  0.00  0.00    -0.382 OA
ATOM     38  H   UNL     1      35.152 -11.086 -23.743  0.00  0.00    +0.211 HD
ENDBRANCH  25  37
ENDBRANCH  24  25
ENDBRANCH   2  24
TORSDOF 8
ENDMDL
MODEL 6
REMARK VINA RESULT:     -11.1      2.612      4.880
REMARK  Name = 59568713
REMARK  8 active torsions:
REMARK  status: ('A' for Active; 'I' for Inactive)
REMARK    1  A    between atoms: N_1  and  C_9
REMARK    2  A    between atoms: N_2  and  C_24
REMARK    3  A    between atoms: C_9  and  C_10
REMARK    4  A    between atoms: C_10  and  C_13
REMARK    5  A    between atoms: C_10  and  O_22
REMARK    6  A    between atoms: C_24  and  C_25
REMARK    7  A    between atoms: C_25  and  C_28
REMARK    8  A    between atoms: C_25  and  O_37
REMARK                            x       y       z     vdW  Elec       q    Type
REMARK                         _______ _______ _______ _____ _____    ______ ____
ROOT
ATOM      1  N   UNL     1      32.294  -9.913 -20.925  0.00  0.00    +0.386 N 
ATOM      2  N   UNL     1      31.867 -12.380 -22.371  0.00  0.00    +0.386 N 
ATOM      3  C   UNL     1      32.661 -11.286 -22.946  0.00  0.00    -0.101 C 
ATOM      4  C   UNL     1      31.955 -12.361 -20.906  0.00  0.00    -0.101 C 
ATOM      5  C   UNL     1      32.207  -9.932 -22.390  0.00  0.00    -0.101 C 
ATOM      6  C   UNL     1      31.502 -11.006 -20.350  0.00  0.00    -0.101 C 
ATOM      7  H   UNL     1      33.269 -10.048 -20.659  0.00  0.00    -0.080 HD
ATOM      8  H   UNL     1      30.891 -12.242 -22.636  0.00  0.00    -0.080 HD
ENDROOT
BRANCH   1   9
ATOM      9  C   UNL     1      31.858  -8.622 -20.397  0.00  0.00    -0.043 C 
BRANCH   9  10
ATOM     10  C   UNL     1      32.910  -7.538 -20.664  0.00  0.00    +0.112 C 
BRANCH  10  13
ATOM     11  O   UNL     1      31.997  -3.779 -25.318  0.00  0.00    -0.440 OA
ATOM     12  O   UNL     1      30.153  -2.790 -24.329  0.00  0.00    -0.245 OA
ATOM     13  C   UNL     1      32.388  -6.480 -21.611  0.00  0.00    -0.002 C 
ATOM     14  C   UNL     1      33.017  -6.250 -22.839  0.00  0.00    -0.024 C 
ATOM     15  C   UNL     1      32.499  -5.270 -23.666  0.00  0.00    +0.023 C 
ATOM     16  C   UNL     1      31.261  -5.734 -21.231  0.00  0.00    -0.002 C 
ATOM     17  C   UNL     1      31.391  -4.544 -23.280  0.00  0.00    +0.075 C 
ATOM     18  C   UNL     1      30.747  -4.747 -22.073  0.00  0.00    +0.006 C 
ATOM     19  C   UNL     1      32.951  -4.822 -24.996  0.00  0.00    +0.235 C 
ATOM     20  C   UNL     1      34.215  -7.035 -23.255  0.00  0.00    +0.031 C 
ATOM     21  C   UNL     1      31.066  -3.591 -24.330  0.00  0.00    +0.341 C 
ENDBRANCH  10  13
BRANCH  10  22
ATOM     22  O   UNL     1      33.284  -6.900 -19.444  0.00  0.00    -0.382 OA
ATOM     23  H   UNL     1      34.006  -7.395 -19.028  0.00  0.00    +0.211 HD
ENDBRANCH  10  22
ENDBRANCH   9  10
ENDBRANCH   1   9
BRANCH   2  24
ATOM     24  C   UNL     1      32.301 -13.670 -22.900  0.00  0.00    -0.043 C 
BRANCH  24  25
ATOM     25  C   UNL     1      33.828 -13.718 -23.038  0.00  0.00    +0.112 C 
BRANCH  25  28
ATOM     26  O   UNL     1      35.870 -19.401 -22.635  0.00  0.00    -0.440 OA
ATOM     27  O   UNL     1      36.290 -19.230 -20.365  0.00  0.00    -0.245 OA
ATOM     28  C   UNL     1      34.385 -15.045 -22.569  0.00  0.00    -0.002 C 
ATOM     29  C   UNL     1      34.559 -16.103 -23.466  0.00  0.00    -0.024 C 
ATOM     30  C   UNL     1      35.071 -17.293 -22.983  0.00  0.00    +0.023 C 
ATOM     31  C   UNL     1      34.722 -15.192 -21.211  0.00  0.00    -0.002 C 
ATOM     32  C   UNL     1      35.398 -17.424 -21.650  0.00  0.00    +0.075 C 
ATOM     33  C   UNL     1      35.238 -16.398 -20.737  0.00  0.00    +0.006 C 
ATOM     34  C   UNL     1      35.355 -18.553 -23.692  0.00  0.00    +0.235 C 
ATOM     35  C   UNL     1      34.204 -15.961 -24.907  0.00  0.00    +0.031 C 
ATOM     36  C   UNL     1      35.908 -18.767 -21.421  0.00  0.00    +0.341 C 
ENDBRANCH  25  28
BRANCH  25  37
ATOM     37  O   UNL     1      34.208 -13.533 -24.402  0.00  0.00    -0.382 OA
ATOM     38  H   UNL     1      35.117 -13.199 -24.441  0.00  0.00    +0.211 HD
ENDBRANCH  25  37
ENDBRANCH  24  25
ENDBRANCH   2  24
TORSDOF 8
ENDMDL
MODEL 7
REMARK VINA RESULT:     -11.0      4.143     12.106
REMARK  Name = 59568713
REMARK  8 active torsions:
REMARK  status: ('A' for Active; 'I' for Inactive)
REMARK    1  A    between atoms: N_1  and  C_9
REMARK    2  A    between atoms: N_2  and  C_24
REMARK    3  A    between atoms: C_9  and  C_10
REMARK    4  A    between atoms: C_10  and  C_13
REMARK    5  A    between atoms: C_10  and  O_22
REMARK    6  A    between atoms: C_24  and  C_25
REMARK    7  A    between atoms: C_25  and  C_28
REMARK    8  A    between atoms: C_25  and  O_37
REMARK                            x       y       z     vdW  Elec       q    Type
REMARK                         _______ _______ _______ _____ _____    ______ ____
ROOT
ATOM      1  N   UNL     1      34.319 -22.236 -19.064  0.00  0.00    +0.386 N 
ATOM      2  N   UNL     1      35.090 -20.133 -20.892  0.00  0.00    +0.386 N 
ATOM      3  C   UNL     1      33.714 -20.243 -20.394  0.00  0.00    -0.101 C 
ATOM      4  C   UNL     1      36.036 -20.672 -19.909  0.00  0.00    -0.101 C 
ATOM      5  C   UNL     1      33.373 -21.696 -20.048  0.00  0.00    -0.101 C 
ATOM      6  C   UNL     1      35.695 -22.125 -19.562  0.00  0.00    -0.101 C 
ATOM      7  H   UNL     1      34.241 -21.686 -18.209  0.00  0.00    -0.080 HD
ATOM      8  H   UNL     1      35.167 -20.685 -21.747  0.00  0.00    -0.080 HD
ENDROOT
BRANCH   1   9
ATOM      9  C   UNL     1      33.994 -23.623 -18.739  0.00  0.00    -0.043 C 
BRANCH   9  10
ATOM     10  C   UNL     1      33.270 -23.712 -17.389  0.00  0.00    +0.112 C 
BRANCH  10  13
ATOM     11  O   UNL     1      35.997 -24.009 -11.995  0.00  0.00    -0.440 OA
ATOM     12  O   UNL     1      37.948 -23.044 -12.780  0.00  0.00    -0.245 OA
ATOM     13  C   UNL     1      34.242 -23.625 -16.233  0.00  0.00    -0.002 C 
ATOM     14  C   UNL     1      33.882 -24.088 -14.963  0.00  0.00    -0.024 C 
ATOM     15  C   UNL     1      34.808 -23.983 -13.941  0.00  0.00    +0.023 C 
ATOM     16  C   UNL     1      35.512 -23.070 -16.461  0.00  0.00    -0.002 C 
ATOM     17  C   UNL     1      36.052 -23.434 -14.179  0.00  0.00    +0.075 C 
ATOM     18  C   UNL     1      36.438 -22.968 -15.422  0.00  0.00    +0.006 C 
ATOM     19  C   UNL     1      34.702 -24.384 -12.527  0.00  0.00    +0.235 C 
ATOM     20  C   UNL     1      32.537 -24.679 -14.707  0.00  0.00    +0.031 C 
ATOM     21  C   UNL     1      36.814 -23.449 -12.940  0.00  0.00    +0.341 C 
ENDBRANCH  10  13
BRANCH  10  22
ATOM     22  O   UNL     1      32.329 -22.648 -17.262  0.00  0.00    -0.382 OA
ATOM     23  H   UNL     1      32.593 -22.066 -16.533  0.00  0.00    +0.211 HD
ENDBRANCH  10  22
ENDBRANCH   9  10
ENDBRANCH   1   9
BRANCH   2  24
ATOM     24  C   UNL     1      35.416 -18.747 -21.220  0.00  0.00    -0.043 C 
BRANCH  24  25
ATOM     25  C   UNL     1      35.581 -18.569 -22.735  0.00  0.00    +0.112 C 
BRANCH  25  28
ATOM     26  O   UNL     1      32.995 -14.075 -25.856  0.00  0.00    -0.440 OA
ATOM     27  O   UNL     1      33.343 -12.527 -24.171  0.00  0.00    -0.245 OA
ATOM     28  C   UNL     1      35.021 -17.243 -23.201  0.00  0.00    -0.002 C 
ATOM     29  C   UNL     1      34.426 -17.124 -24.461  0.00  0.00    -0.024 C 
ATOM     30  C   UNL     1      33.930 -15.889 -24.837  0.00  0.00    +0.023 C 
ATOM     31  C   UNL     1      35.113 -16.132 -22.343  0.00  0.00    -0.002 C 
ATOM     32  C   UNL     1      34.027 -14.808 -23.985  0.00  0.00    +0.075 C 
ATOM     33  C   UNL     1      34.610 -14.891 -22.734  0.00  0.00    +0.006 C 
ATOM     34  C   UNL     1      33.263 -15.481 -26.085  0.00  0.00    +0.235 C 
ATOM     35  C   UNL     1      34.322 -18.292 -25.381  0.00  0.00    +0.031 C 
ATOM     36  C   UNL     1      33.433 -13.647 -24.630  0.00  0.00    +0.341 C 
ENDBRANCH  25  28
BRANCH  25  37
ATOM     37  O   UNL     1      36.963 -18.618 -23.090  0.00  0.00    -0.382 OA
ATOM     38  H   UNL     1      37.336 -17.724 -23.061  0.00  0.00    +0.211 HD
ENDBRANCH  25  37
ENDBRANCH  24  25
ENDBRANCH   2  24
TORSDOF 8
ENDMDL
MODEL 8
REMARK VINA RESULT:     -11.0      4.007      7.458
REMARK  Name = 59568713
REMARK  8 active torsions:
REMARK  status: ('A' for Active; 'I' for Inactive)
REMARK    1  A    between atoms: N_1  and  C_9
REMARK    2  A    between atoms: N_2  and  C_24
REMARK    3  A    between atoms: C_9  and  C_10
REMARK    4  A    between atoms: C_10  and  C_13
REMARK    5  A    between atoms: C_10  and  O_22
REMARK    6  A    between atoms: C_24  and  C_25
REMARK    7  A    between atoms: C_25  and  C_28
REMARK    8  A    between atoms: C_25  and  O_37
REMARK                            x       y       z     vdW  Elec       q    Type
REMARK                         _______ _______ _______ _____ _____    ______ ____
ROOT
ATOM      1  N   UNL     1      35.032 -20.071 -20.944  0.00  0.00    +0.386 N 
ATOM      2  N   UNL     1      34.329 -22.203 -19.122  0.00  0.00    +0.386 N 
ATOM      3  C   UNL     1      33.361 -21.680 -20.094  0.00  0.00    -0.101 C 
ATOM      4  C   UNL     1      35.697 -22.058 -19.632  0.00  0.00    -0.101 C 
ATOM      5  C   UNL     1      33.664 -20.217 -20.433  0.00  0.00    -0.101 C 
ATOM      6  C   UNL     1      36.000 -20.594 -19.973  0.00  0.00    -0.101 C 
ATOM      7  H   UNL     1      35.114 -20.614 -21.803  0.00  0.00    -0.080 HD
ATOM      8  H   UNL     1      34.248 -21.658 -18.263  0.00  0.00    -0.080 HD
ENDROOT
BRANCH   1   9
ATOM      9  C   UNL     1      35.320 -18.675 -21.264  0.00  0.00    -0.043 C 
BRANCH   9  10
ATOM     10  C   UNL     1      35.440 -18.475 -22.781  0.00  0.00    +0.112 C 
BRANCH  10  13
ATOM     11  O   UNL     1      33.051 -13.785 -25.766  0.00  0.00    -0.440 OA
ATOM     12  O   UNL     1      33.411 -12.316 -24.014  0.00  0.00    -0.245 OA
ATOM     13  C   UNL     1      34.929 -17.116 -23.203  0.00  0.00    -0.002 C 
ATOM     14  C   UNL     1      34.362 -16.930 -24.468  0.00  0.00    -0.024 C 
ATOM     15  C   UNL     1      33.912 -15.666 -24.803  0.00  0.00    +0.023 C 
ATOM     16  C   UNL     1      35.037 -16.045 -22.300  0.00  0.00    -0.002 C 
ATOM     17  C   UNL     1      34.024 -14.622 -23.906  0.00  0.00    +0.075 C 
ATOM     18  C   UNL     1      34.580 -14.774 -22.650  0.00  0.00    +0.006 C 
ATOM     19  C   UNL     1      33.280 -15.188 -26.047  0.00  0.00    +0.235 C 
ATOM     20  C   UNL     1      34.242 -18.057 -25.437  0.00  0.00    +0.031 C 
ATOM     21  C   UNL     1      33.477 -13.420 -24.515  0.00  0.00    +0.341 C 
ENDBRANCH  10  13
BRANCH  10  22
ATOM     22  O   UNL     1      36.804 -18.586 -23.187  0.00  0.00    -0.382 OA
ATOM     23  H   UNL     1      36.910 -19.362 -23.758  0.00  0.00    +0.211 HD
ENDBRANCH  10  22
ENDBRANCH   9  10
ENDBRANCH   1   9
BRANCH   2  24
ATOM     24  C   UNL     1      34.041 -23.598 -18.799  0.00  0.00    -0.043 C 
BRANCH  24  25
ATOM     25  C   UNL     1      33.309 -23.708 -17.456  0.00  0.00    +0.112 C 
BRANCH  25  28
ATOM     26  O   UNL     1      35.980 -23.961 -12.031  0.00  0.00    -0.440 OA
ATOM     27  O   UNL     1      37.955 -23.044 -12.813  0.00  0.00    -0.245 OA
ATOM     28  C   UNL     1      34.272 -23.619 -16.291  0.00  0.00    -0.002 C 
ATOM     29  C   UNL     1      33.892 -24.052 -15.017  0.00  0.00    -0.024 C 
ATOM     30  C   UNL     1      34.810 -23.947 -13.989  0.00  0.00    +0.023 C 
ATOM     31  C   UNL     1      35.555 -23.088 -16.517  0.00  0.00    -0.002 C 
ATOM     32  C   UNL     1      36.065 -23.425 -14.224  0.00  0.00    +0.075 C 
ATOM     33  C   UNL     1      36.472 -22.987 -15.470  0.00  0.00    +0.006 C 
ATOM     34  C   UNL     1      34.683 -24.321 -12.570  0.00  0.00    +0.235 C 
ATOM     35  C   UNL     1      32.535 -24.615 -14.765  0.00  0.00    +0.031 C 
ATOM     36  C   UNL     1      36.816 -23.431 -12.978  0.00  0.00    +0.341 C 
ENDBRANCH  25  28
BRANCH  25  37
ATOM     37  O   UNL     1      32.353 -22.655 -17.326  0.00  0.00    -0.382 OA
ATOM     38  H   UNL     1      32.644 -21.890 -17.845  0.00  0.00    +0.211 HD
ENDBRANCH  25  37
ENDBRANCH  24  25
ENDBRANCH   2  24
TORSDOF 8
ENDMDL
MODEL 9
REMARK VINA RESULT:     -10.9      2.863      5.402
REMARK  Name = 59568713
REMARK  8 active torsions:
REMARK  status: ('A' for Active; 'I' for Inactive)
REMARK    1  A    between atoms: N_1  and  C_9
REMARK    2  A    between atoms: N_2  and  C_24
REMARK    3  A    between atoms: C_9  and  C_10
REMARK    4  A    between atoms: C_10  and  C_13
REMARK    5  A    between atoms: C_10  and  O_22
REMARK    6  A    between atoms: C_24  and  C_25
REMARK    7  A    between atoms: C_25  and  C_28
REMARK    8  A    between atoms: C_25  and  O_37
REMARK                            x       y       z     vdW  Elec       q    Type
REMARK                         _______ _______ _______ _____ _____    ______ ____
ROOT
ATOM      1  N   UNL     1      32.088  -9.107 -22.094  0.00  0.00    +0.386 N 
ATOM      2  N   UNL     1      32.284 -11.942 -22.627  0.00  0.00    +0.386 N 
ATOM      3  C   UNL     1      33.282 -10.998 -23.145  0.00  0.00    -0.101 C 
ATOM      4  C   UNL     1      31.706 -11.441 -21.375  0.00  0.00    -0.101 C 
ATOM      5  C   UNL     1      32.666  -9.609 -23.346  0.00  0.00    -0.101 C 
ATOM      6  C   UNL     1      31.091 -10.052 -21.575  0.00  0.00    -0.101 C 
ATOM      7  H   UNL     1      32.836  -9.020 -21.407  0.00  0.00    -0.080 HD
ATOM      8  H   UNL     1      31.535 -12.028 -23.315  0.00  0.00    -0.080 HD
ENDROOT
BRANCH   1   9
ATOM      9  C   UNL     1      31.497  -7.785 -22.289  0.00  0.00    -0.043 C 
BRANCH   9  10
ATOM     10  C   UNL     1      32.540  -6.683 -22.058  0.00  0.00    +0.112 C 
BRANCH  10  13
ATOM     11  O   UNL     1      34.610  -4.175 -27.161  0.00  0.00    -0.440 OA
ATOM     12  O   UNL     1      32.839  -2.692 -27.308  0.00  0.00    -0.245 OA
ATOM     13  C   UNL     1      32.741  -5.841 -23.299  0.00  0.00    -0.002 C 
ATOM     14  C   UNL     1      33.855  -6.039 -24.121  0.00  0.00    -0.024 C 
ATOM     15  C   UNL     1      33.991  -5.242 -25.243  0.00  0.00    +0.023 C 
ATOM     16  C   UNL     1      31.786  -4.858 -23.608  0.00  0.00    -0.002 C 
ATOM     17  C   UNL     1      33.046  -4.279 -25.534  0.00  0.00    +0.075 C 
ATOM     18  C   UNL     1      31.934  -4.059 -24.742  0.00  0.00    +0.006 C 
ATOM     19  C   UNL     1      35.048  -5.231 -26.270  0.00  0.00    +0.235 C 
ATOM     20  C   UNL     1      34.876  -7.079 -23.804  0.00  0.00    +0.031 C 
ATOM     21  C   UNL     1      33.436  -3.595 -26.757  0.00  0.00    +0.341 C 
ENDBRANCH  10  13
BRANCH  10  22
ATOM     22  O   UNL     1      32.123  -5.822 -20.998  0.00  0.00    -0.382 OA
ATOM     23  H   UNL     1      31.873  -6.355 -20.228  0.00  0.00    +0.211 HD
ENDBRANCH  10  22
ENDBRANCH   9  10
ENDBRANCH   1   9
BRANCH   2  24
ATOM     24  C   UNL     1      32.873 -13.266 -22.434  0.00  0.00    -0.043 C 
BRANCH  24  25
ATOM     25  C   UNL     1      33.836 -13.606 -23.578  0.00  0.00    +0.112 C 
BRANCH  25  28
ATOM     26  O   UNL     1      35.728 -19.173 -22.141  0.00  0.00    -0.440 OA
ATOM     27  O   UNL     1      35.199 -20.034 -24.223  0.00  0.00    -0.245 OA
ATOM     28  C   UNL     1      34.199 -15.076 -23.578  0.00  0.00    -0.002 C 
ATOM     29  C   UNL     1      34.753 -15.673 -22.441  0.00  0.00    -0.024 C 
ATOM     30  C   UNL     1      35.067 -17.019 -22.496  0.00  0.00    +0.023 C 
ATOM     31  C   UNL     1      33.969 -15.827 -24.744  0.00  0.00    -0.002 C 
ATOM     32  C   UNL     1      34.836 -17.744 -23.647  0.00  0.00    +0.075 C 
ATOM     33  C   UNL     1      34.290 -17.184 -24.787  0.00  0.00    +0.006 C 
ATOM     34  C   UNL     1      35.651 -17.893 -21.465  0.00  0.00    +0.235 C 
ATOM     35  C   UNL     1      35.003 -14.888 -21.199  0.00  0.00    +0.031 C 
ATOM     36  C   UNL     1      35.256 -19.119 -23.427  0.00  0.00    +0.341 C 
ENDBRANCH  25  28
BRANCH  25  37
ATOM     37  O   UNL     1      33.239 -13.295 -24.837  0.00  0.00    -0.382 OA
ATOM     38  H   UNL     1      32.849 -12.408 -24.798  0.00  0.00    +0.211 HD
ENDBRANCH  25  37
ENDBRANCH  24  25
ENDBRANCH   2  24
TORSDOF 8
ENDMDL
