MODEL 1
REMARK VINA RESULT:     -12.1      0.000      0.000
REMARK  Name = 11610553
REMARK  5 active torsions:
REMARK  status: ('A' for Active; 'I' for Inactive)
REMARK    1  A    between atoms: C_1  and  C_9
REMARK    2  A    between atoms: C_4  and  O_19
REMARK    3  A    between atoms: C_10  and  C_14
REMARK    4  A    between atoms: O_19  and  C_20
REMARK    5  A    between atoms: C_20  and  C_22
REMARK                            x       y       z     vdW  Elec       q    Type
REMARK                         _______ _______ _______ _____ _____    ______ ____
ROOT
ATOM      1  C   UNL     1      34.036 -23.003 -17.234  0.00  0.00    +0.015 C 
ATOM      2  C   UNL     1      35.395 -22.690 -17.213  0.00  0.00    +0.004 C 
ATOM      3  C   UNL     1      33.276 -22.739 -18.373  0.00  0.00    +0.004 C 
ATOM      4  C   UNL     1      35.230 -21.852 -19.465  0.00  0.00    +0.139 C 
ATOM      5  C   UNL     1      35.994 -22.113 -18.333  0.00  0.00    +0.037 C 
ATOM      6  C   UNL     1      33.874 -22.162 -19.492  0.00  0.00    +0.037 C 
ENDROOT
BRANCH   1   9
ATOM      7  N   UNL     1      32.064 -23.603 -15.896  0.00  0.00    -0.236 N 
ATOM      8  N   UNL     1      31.668 -24.204 -14.761  0.00  0.00    -0.180 NA
ATOM      9  C   UNL     1      33.417 -23.600 -16.076  0.00  0.00    +0.067 C 
ATOM     10  C   UNL     1      33.942 -24.243 -14.981  0.00  0.00    +0.036 C 
ATOM     11  C   UNL     1      32.819 -24.593 -14.206  0.00  0.00    +0.119 C 
ATOM     12  H   UNL     1      31.436 -23.203 -16.540  0.00  0.00    +0.174 HD
BRANCH  10  14
ATOM     13  N   UNL     1      38.064 -24.912 -14.301  0.00  0.00    -0.242 NA
ATOM     14  C   UNL     1      35.336 -24.470 -14.750  0.00  0.00    +0.006 C 
ATOM     15  C   UNL     1      35.933 -25.656 -15.168  0.00  0.00    +0.021 C 
ATOM     16  C   UNL     1      36.108 -23.505 -14.107  0.00  0.00    +0.021 C 
ATOM     17  C   UNL     1      37.286 -25.827 -14.922  0.00  0.00    +0.099 C 
ATOM     18  C   UNL     1      37.453 -23.772 -13.908  0.00  0.00    +0.099 C 
ENDBRANCH  10  14
ENDBRANCH   1   9
BRANCH   4  19
ATOM     19  O   UNL     1      35.818 -21.285 -20.565  0.00  0.00    -0.468 OA
BRANCH  19  20
ATOM     20  C   UNL     1      36.582 -20.106 -20.347  0.00  0.00    +0.264 C 
BRANCH  20  22
ATOM     21  N   UNL     1      35.733 -17.859 -20.645  0.00  0.00    -0.406 NA
ATOM     22  C   UNL     1      36.085 -19.020 -21.242  0.00  0.00    +0.152 C 
ATOM     23  C   UNL     1      35.162 -16.992 -22.820  0.00  0.00    +0.026 C 
ATOM     24  C   UNL     1      35.278 -16.857 -21.421  0.00  0.00    +0.113 C 
ATOM     25  C   UNL     1      36.006 -19.246 -22.602  0.00  0.00    +0.031 C 
ATOM     26  C   UNL     1      35.537 -18.212 -23.398  0.00  0.00    +0.005 C 
ATOM     27  C   UNL     1      34.683 -15.925 -23.600  0.00  0.00    +0.002 C 
ATOM     28  C   UNL     1      34.906 -15.644 -20.848  0.00  0.00    +0.085 C 
ATOM     29  C   UNL     1      34.318 -14.723 -23.000  0.00  0.00    -0.004 C 
ATOM     30  C   UNL     1      34.429 -14.583 -21.623  0.00  0.00    -0.019 C 
ENDBRANCH  20  22
ENDBRANCH  19  20
ENDBRANCH   4  19
TORSDOF 5
ENDMDL
MODEL 2
REMARK VINA RESULT:     -11.8      1.610      2.424
REMARK  Name = 11610553
REMARK  5 active torsions:
REMARK  status: ('A' for Active; 'I' for Inactive)
REMARK    1  A    between atoms: C_1  and  C_9
REMARK    2  A    between atoms: C_4  and  O_19
REMARK    3  A    between atoms: C_10  and  C_14
REMARK    4  A    between atoms: O_19  and  C_20
REMARK    5  A    between atoms: C_20  and  C_22
REMARK                            x       y       z     vdW  Elec       q    Type
REMARK                         _______ _______ _______ _____ _____    ______ ____
ROOT
ATOM      1  C   UNL     1      35.237 -23.104 -15.967  0.00  0.00    +0.015 C 
ATOM      2  C   UNL     1      34.357 -23.140 -17.048  0.00  0.00    +0.004 C 
ATOM      3  C   UNL     1      36.494 -22.516 -16.109  0.00  0.00    +0.004 C 
ATOM      4  C   UNL     1      35.989 -22.005 -18.408  0.00  0.00    +0.139 C 
ATOM      5  C   UNL     1      34.734 -22.589 -18.273  0.00  0.00    +0.037 C 
ATOM      6  C   UNL     1      36.871 -21.965 -17.333  0.00  0.00    +0.037 C 
ENDROOT
BRANCH   1   9
ATOM      7  N   UNL     1      33.708 -23.293 -14.052  0.00  0.00    -0.236 N 
ATOM      8  N   UNL     1      33.507 -23.932 -12.887  0.00  0.00    -0.180 NA
ATOM      9  C   UNL     1      34.847 -23.675 -14.701  0.00  0.00    +0.067 C 
ATOM     10  C   UNL     1      35.431 -24.630 -13.903  0.00  0.00    +0.036 C 
ATOM     11  C   UNL     1      34.562 -24.747 -12.801  0.00  0.00    +0.119 C 
ATOM     12  H   UNL     1      33.091 -22.614 -14.406  0.00  0.00    +0.174 HD
BRANCH  10  14
ATOM     13  N   UNL     1      39.050 -26.640 -14.773  0.00  0.00    -0.242 NA
ATOM     14  C   UNL     1      36.655 -25.310 -14.197  0.00  0.00    +0.006 C 
ATOM     15  C   UNL     1      36.654 -26.434 -15.019  0.00  0.00    +0.021 C 
ATOM     16  C   UNL     1      37.858 -24.853 -13.664  0.00  0.00    +0.021 C 
ATOM     17  C   UNL     1      37.864 -27.057 -15.274  0.00  0.00    +0.099 C 
ATOM     18  C   UNL     1      39.015 -25.547 -13.979  0.00  0.00    +0.099 C 
ENDBRANCH  10  14
ENDBRANCH   1   9
BRANCH   4  19
ATOM     19  O   UNL     1      36.359 -21.464 -19.610  0.00  0.00    -0.468 OA
BRANCH  19  20
ATOM     20  C   UNL     1      35.392 -21.491 -20.651  0.00  0.00    +0.264 C 
BRANCH  20  22
ATOM     21  N   UNL     1      34.793 -20.146 -22.572  0.00  0.00    -0.406 NA
ATOM     22  C   UNL     1      35.382 -20.175 -21.355  0.00  0.00    +0.152 C 
ATOM     23  C   UNL     1      35.332 -17.800 -22.701  0.00  0.00    +0.026 C 
ATOM     24  C   UNL     1      34.766 -18.976 -23.238  0.00  0.00    +0.113 C 
ATOM     25  C   UNL     1      35.962 -19.079 -20.749  0.00  0.00    +0.031 C 
ATOM     26  C   UNL     1      35.933 -17.875 -21.437  0.00  0.00    +0.005 C 
ATOM     27  C   UNL     1      35.287 -16.596 -23.423  0.00  0.00    +0.002 C 
ATOM     28  C   UNL     1      34.169 -18.900 -24.493  0.00  0.00    +0.085 C 
ATOM     29  C   UNL     1      34.683 -16.549 -24.677  0.00  0.00    -0.004 C 
ATOM     30  C   UNL     1      34.124 -17.702 -25.212  0.00  0.00    -0.019 C 
ENDBRANCH  20  22
ENDBRANCH  19  20
ENDBRANCH   4  19
TORSDOF 5
ENDMDL
MODEL 3
REMARK VINA RESULT:     -11.8      2.577      4.137
REMARK  Name = 11610553
REMARK  5 active torsions:
REMARK  status: ('A' for Active; 'I' for Inactive)
REMARK    1  A    between atoms: C_1  and  C_9
REMARK    2  A    between atoms: C_4  and  O_19
REMARK    3  A    between atoms: C_10  and  C_14
REMARK    4  A    between atoms: O_19  and  C_20
REMARK    5  A    between atoms: C_20  and  C_22
REMARK                            x       y       z     vdW  Elec       q    Type
REMARK                         _______ _______ _______ _____ _____    ______ ____
ROOT
ATOM      1  C   UNL     1      34.909 -24.028 -13.702  0.00  0.00    +0.015 C 
ATOM      2  C   UNL     1      35.672 -23.444 -14.713  0.00  0.00    +0.004 C 
ATOM      3  C   UNL     1      33.555 -24.290 -13.912  0.00  0.00    +0.004 C 
ATOM      4  C   UNL     1      33.730 -23.386 -16.137  0.00  0.00    +0.139 C 
ATOM      5  C   UNL     1      35.080 -23.122 -15.934  0.00  0.00    +0.037 C 
ATOM      6  C   UNL     1      32.964 -23.968 -15.132  0.00  0.00    +0.037 C 
ENDROOT
BRANCH   1   9
ATOM      7  N   UNL     1      34.987 -23.964 -11.246  0.00  0.00    -0.236 N 
ATOM      8  N   UNL     1      35.692 -24.366 -10.175  0.00  0.00    -0.180 NA
ATOM      9  C   UNL     1      35.521 -24.361 -12.438  0.00  0.00    +0.067 C 
ATOM     10  C   UNL     1      36.655 -25.071 -12.124  0.00  0.00    +0.036 C 
ATOM     11  C   UNL     1      36.709 -25.042 -10.717  0.00  0.00    +0.119 C 
ATOM     12  H   UNL     1      34.161 -23.434 -11.178  0.00  0.00    +0.174 HD
BRANCH  10  14
ATOM     13  N   UNL     1      39.257 -26.863 -14.938  0.00  0.00    -0.242 NA
ATOM     14  C   UNL     1      37.535 -25.678 -13.075  0.00  0.00    +0.006 C 
ATOM     15  C   UNL     1      37.098 -26.745 -13.855  0.00  0.00    +0.021 C 
ATOM     16  C   UNL     1      38.836 -25.204 -13.230  0.00  0.00    +0.021 C 
ATOM     17  C   UNL     1      37.988 -27.298 -14.762  0.00  0.00    +0.099 C 
ATOM     18  C   UNL     1      39.648 -25.826 -14.165  0.00  0.00    +0.099 C 
ENDBRANCH  10  14
ENDBRANCH   1   9
BRANCH   4  19
ATOM     19  O   UNL     1      33.149 -23.069 -17.336  0.00  0.00    -0.468 OA
BRANCH  19  20
ATOM     20  C   UNL     1      33.853 -23.453 -18.510  0.00  0.00    +0.264 C 
BRANCH  20  22
ATOM     21  N   UNL     1      35.376 -21.853 -19.500  0.00  0.00    -0.406 NA
ATOM     22  C   UNL     1      34.090 -22.250 -19.361  0.00  0.00    +0.152 C 
ATOM     23  C   UNL     1      34.598 -20.054 -20.901  0.00  0.00    +0.026 C 
ATOM     24  C   UNL     1      35.629 -20.770 -20.259  0.00  0.00    +0.113 C 
ATOM     25  C   UNL     1      33.016 -21.614 -19.950  0.00  0.00    +0.031 C 
ATOM     26  C   UNL     1      33.280 -20.499 -20.731  0.00  0.00    +0.005 C 
ATOM     27  C   UNL     1      34.898 -18.928 -21.687  0.00  0.00    +0.002 C 
ATOM     28  C   UNL     1      36.938 -20.327 -20.429  0.00  0.00    +0.085 C 
ATOM     29  C   UNL     1      36.216 -18.506 -21.839  0.00  0.00    -0.004 C 
ATOM     30  C   UNL     1      37.237 -19.207 -21.210  0.00  0.00    -0.019 C 
ENDBRANCH  20  22
ENDBRANCH  19  20
ENDBRANCH   4  19
TORSDOF 5
ENDMDL
MODEL 4
REMARK VINA RESULT:     -11.6      3.640     11.223
REMARK  Name = 11610553
REMARK  5 active torsions:
REMARK  status: ('A' for Active; 'I' for Inactive)
REMARK    1  A    between atoms: C_1  and  C_9
REMARK    2  A    between atoms: C_4  and  O_19
REMARK    3  A    between atoms: C_10  and  C_14
REMARK    4  A    between atoms: O_19  and  C_20
REMARK    5  A    between atoms: C_20  and  C_22
REMARK                            x       y       z     vdW  Elec       q    Type
REMARK                         _______ _______ _______ _____ _____    ______ ____
ROOT
ATOM      1  C   UNL     1      33.487 -13.926 -22.272  0.00  0.00    +0.015 C 
ATOM      2  C   UNL     1      34.068 -14.445 -21.115  0.00  0.00    +0.004 C 
ATOM      3  C   UNL     1      33.708 -14.546 -23.502  0.00  0.00    +0.004 C 
ATOM      4  C   UNL     1      35.088 -16.195 -22.418  0.00  0.00    +0.139 C 
ATOM      5  C   UNL     1      34.871 -15.583 -21.189  0.00  0.00    +0.037 C 
ATOM      6  C   UNL     1      34.511 -15.684 -23.576  0.00  0.00    +0.037 C 
ENDROOT
BRANCH   1   9
ATOM      7  N   UNL     1      31.633 -12.639 -21.302  0.00  0.00    -0.236 N 
ATOM      8  N   UNL     1      30.970 -11.472 -21.375  0.00  0.00    -0.180 NA
ATOM      9  C   UNL     1      32.657 -12.749 -22.197  0.00  0.00    +0.067 C 
ATOM     10  C   UNL     1      32.664 -11.572 -22.906  0.00  0.00    +0.036 C 
ATOM     11  C   UNL     1      31.604 -10.825 -22.357  0.00  0.00    +0.119 C 
ATOM     12  H   UNL     1      31.402 -13.348 -20.660  0.00  0.00    +0.174 HD
BRANCH  10  14
ATOM     13  N   UNL     1      35.373 -10.623 -26.014  0.00  0.00    -0.242 NA
ATOM     14  C   UNL     1      33.580 -11.250 -23.958  0.00  0.00    +0.006 C 
ATOM     15  C   UNL     1      34.477 -10.195 -23.809  0.00  0.00    +0.021 C 
ATOM     16  C   UNL     1      33.583 -11.991 -25.137  0.00  0.00    +0.021 C 
ATOM     17  C   UNL     1      35.343  -9.924 -24.856  0.00  0.00    +0.099 C 
ATOM     18  C   UNL     1      34.490 -11.639 -26.125  0.00  0.00    +0.099 C 
ENDBRANCH  10  14
ENDBRANCH   1   9
BRANCH   4  19
ATOM     19  O   UNL     1      35.877 -17.313 -22.490  0.00  0.00    -0.468 OA
BRANCH  19  20
ATOM     20  C   UNL     1      35.231 -18.532 -22.835  0.00  0.00    +0.264 C 
BRANCH  20  22
ATOM     21  N   UNL     1      34.218 -20.056 -21.252  0.00  0.00    -0.406 NA
ATOM     22  C   UNL     1      35.364 -19.500 -21.708  0.00  0.00    +0.152 C 
ATOM     23  C   UNL     1      35.532 -21.279 -19.643  0.00  0.00    +0.026 C 
ATOM     24  C   UNL     1      34.298 -20.934 -20.234  0.00  0.00    +0.113 C 
ATOM     25  C   UNL     1      36.615 -19.775 -21.195  0.00  0.00    +0.031 C 
ATOM     26  C   UNL     1      36.694 -20.680 -20.146  0.00  0.00    +0.005 C 
ATOM     27  C   UNL     1      35.578 -22.199 -18.582  0.00  0.00    +0.002 C 
ATOM     28  C   UNL     1      33.144 -21.530 -19.733  0.00  0.00    +0.085 C 
ATOM     29  C   UNL     1      34.408 -22.780 -18.101  0.00  0.00    -0.004 C 
ATOM     30  C   UNL     1      33.190 -22.444 -18.678  0.00  0.00    -0.019 C 
ENDBRANCH  20  22
ENDBRANCH  19  20
ENDBRANCH   4  19
TORSDOF 5
ENDMDL
MODEL 5
REMARK VINA RESULT:     -11.6      2.272      4.235
REMARK  Name = 11610553
REMARK  5 active torsions:
REMARK  status: ('A' for Active; 'I' for Inactive)
REMARK    1  A    between atoms: C_1  and  C_9
REMARK    2  A    between atoms: C_4  and  O_19
REMARK    3  A    between atoms: C_10  and  C_14
REMARK    4  A    between atoms: O_19  and  C_20
REMARK    5  A    between atoms: C_20  and  C_22
REMARK                            x       y       z     vdW  Elec       q    Type
REMARK                         _______ _______ _______ _____ _____    ______ ____
ROOT
ATOM      1  C   UNL     1      33.284 -23.228 -16.583  0.00  0.00    +0.015 C 
ATOM      2  C   UNL     1      32.257 -22.787 -17.417  0.00  0.00    +0.004 C 
ATOM      3  C   UNL     1      34.614 -23.080 -16.976  0.00  0.00    +0.004 C 
ATOM      4  C   UNL     1      33.889 -22.055 -19.031  0.00  0.00    +0.139 C 
ATOM      5  C   UNL     1      32.561 -22.199 -18.645  0.00  0.00    +0.037 C 
ATOM      6  C   UNL     1      34.918 -22.492 -18.203  0.00  0.00    +0.037 C 
ENDROOT
BRANCH   1   9
ATOM      7  N   UNL     1      33.938 -24.192 -14.420  0.00  0.00    -0.236 N 
ATOM      8  N   UNL     1      33.459 -24.745 -13.292  0.00  0.00    -0.180 NA
ATOM      9  C   UNL     1      32.970 -23.837 -15.314  0.00  0.00    +0.067 C 
ATOM     10  C   UNL     1      31.775 -24.182 -14.730  0.00  0.00    +0.036 C 
ATOM     11  C   UNL     1      32.138 -24.736 -13.488  0.00  0.00    +0.119 C 
ATOM     12  H   UNL     1      34.898 -24.055 -14.586  0.00  0.00    +0.174 HD
BRANCH  10  14
ATOM     13  N   UNL     1      27.961 -23.610 -16.470  0.00  0.00    -0.242 NA
ATOM     14  C   UNL     1      30.485 -23.988 -15.319  0.00  0.00    +0.006 C 
ATOM     15  C   UNL     1      29.916 -24.986 -16.106  0.00  0.00    +0.021 C 
ATOM     16  C   UNL     1      29.788 -22.801 -15.109  0.00  0.00    +0.021 C 
ATOM     17  C   UNL     1      28.665 -24.751 -16.653  0.00  0.00    +0.099 C 
ATOM     18  C   UNL     1      28.543 -22.663 -15.702  0.00  0.00    +0.099 C 
ENDBRANCH  10  14
ENDBRANCH   1   9
BRANCH   4  19
ATOM     19  O   UNL     1      34.187 -21.477 -20.236  0.00  0.00    -0.468 OA
BRANCH  19  20
ATOM     20  C   UNL     1      35.454 -20.843 -20.347  0.00  0.00    +0.264 C 
BRANCH  20  22
ATOM     21  N   UNL     1      34.798 -19.956 -22.502  0.00  0.00    -0.406 NA
ATOM     22  C   UNL     1      35.354 -19.696 -21.296  0.00  0.00    +0.152 C 
ATOM     23  C   UNL     1      35.142 -17.643 -23.085  0.00  0.00    +0.026 C 
ATOM     24  C   UNL     1      34.692 -18.946 -23.386  0.00  0.00    +0.113 C 
ATOM     25  C   UNL     1      35.822 -18.456 -20.912  0.00  0.00    +0.031 C 
ATOM     26  C   UNL     1      35.712 -17.417 -21.825  0.00  0.00    +0.005 C 
ATOM     27  C   UNL     1      35.015 -16.612 -24.031  0.00  0.00    +0.002 C 
ATOM     28  C   UNL     1      34.125 -19.170 -24.637  0.00  0.00    +0.085 C 
ATOM     29  C   UNL     1      34.445 -16.864 -25.276  0.00  0.00    -0.004 C 
ATOM     30  C   UNL     1      34.000 -18.145 -25.579  0.00  0.00    -0.019 C 
ENDBRANCH  20  22
ENDBRANCH  19  20
ENDBRANCH   4  19
TORSDOF 5
ENDMDL
MODEL 6
REMARK VINA RESULT:     -11.4      7.143     14.685
REMARK  Name = 11610553
REMARK  5 active torsions:
REMARK  status: ('A' for Active; 'I' for Inactive)
REMARK    1  A    between atoms: C_1  and  C_9
REMARK    2  A    between atoms: C_4  and  O_19
REMARK    3  A    between atoms: C_10  and  C_14
REMARK    4  A    between atoms: O_19  and  C_20
REMARK    5  A    between atoms: C_20  and  C_22
REMARK                            x       y       z     vdW  Elec       q    Type
REMARK                         _______ _______ _______ _____ _____    ______ ____
ROOT
ATOM      1  C   UNL     1      33.160  -8.703 -22.932  0.00  0.00    +0.015 C 
ATOM      2  C   UNL     1      32.346  -9.828 -22.794  0.00  0.00    +0.004 C 
ATOM      3  C   UNL     1      34.371  -8.799 -23.617  0.00  0.00    +0.004 C 
ATOM      4  C   UNL     1      33.954 -11.136 -24.020  0.00  0.00    +0.139 C 
ATOM      5  C   UNL     1      32.745 -11.048 -23.340  0.00  0.00    +0.037 C 
ATOM      6  C   UNL     1      34.770 -10.018 -24.163  0.00  0.00    +0.037 C 
ENDROOT
BRANCH   1   9
ATOM      7  N   UNL     1      32.218  -7.346 -21.113  0.00  0.00    -0.236 N 
ATOM      8  N   UNL     1      31.893  -6.092 -20.755  0.00  0.00    -0.180 NA
ATOM      9  C   UNL     1      32.748  -7.442 -22.367  0.00  0.00    +0.067 C 
ATOM     10  C   UNL     1      32.769  -6.160 -22.864  0.00  0.00    +0.036 C 
ATOM     11  C   UNL     1      32.232  -5.373 -21.828  0.00  0.00    +0.119 C 
ATOM     12  H   UNL     1      32.088  -8.124 -20.525  0.00  0.00    +0.174 HD
BRANCH  10  14
ATOM     13  N   UNL     1      34.187  -5.059 -26.695  0.00  0.00    -0.242 NA
ATOM     14  C   UNL     1      33.249  -5.789 -24.160  0.00  0.00    +0.006 C 
ATOM     15  C   UNL     1      32.375  -5.264 -25.108  0.00  0.00    +0.021 C 
ATOM     16  C   UNL     1      34.594  -5.947 -24.483  0.00  0.00    +0.021 C 
ATOM     17  C   UNL     1      32.888  -4.919 -26.348  0.00  0.00    +0.099 C 
ATOM     18  C   UNL     1      35.008  -5.572 -25.751  0.00  0.00    +0.099 C 
ENDBRANCH  10  14
ENDBRANCH   1   9
BRANCH   4  19
ATOM     19  O   UNL     1      34.345 -12.334 -24.557  0.00  0.00    -0.468 OA
BRANCH  19  20
ATOM     20  C   UNL     1      33.430 -13.416 -24.445  0.00  0.00    +0.264 C 
BRANCH  20  22
ATOM     21  N   UNL     1      34.298 -15.646 -24.084  0.00  0.00    -0.406 NA
ATOM     22  C   UNL     1      33.995 -14.450 -23.530  0.00  0.00    +0.152 C 
ATOM     23  C   UNL     1      35.028 -16.392 -21.911  0.00  0.00    +0.026 C 
ATOM     24  C   UNL     1      34.808 -16.606 -23.288  0.00  0.00    +0.113 C 
ATOM     25  C   UNL     1      34.174 -14.148 -22.195  0.00  0.00    +0.031 C 
ATOM     26  C   UNL     1      34.699 -15.139 -21.378  0.00  0.00    +0.005 C 
ATOM     27  C   UNL     1      35.561 -17.416 -21.110  0.00  0.00    +0.002 C 
ATOM     28  C   UNL     1      35.135 -17.851 -23.818  0.00  0.00    +0.085 C 
ATOM     29  C   UNL     1      35.879 -18.652 -21.666  0.00  0.00    -0.004 C 
ATOM     30  C   UNL     1      35.666 -18.869 -23.021  0.00  0.00    -0.019 C 
ENDBRANCH  20  22
ENDBRANCH  19  20
ENDBRANCH   4  19
TORSDOF 5
ENDMDL
MODEL 7
REMARK VINA RESULT:     -11.2      7.508     14.177
REMARK  Name = 11610553
REMARK  5 active torsions:
REMARK  status: ('A' for Active; 'I' for Inactive)
REMARK    1  A    between atoms: C_1  and  C_9
REMARK    2  A    between atoms: C_4  and  O_19
REMARK    3  A    between atoms: C_10  and  C_14
REMARK    4  A    between atoms: O_19  and  C_20
REMARK    5  A    between atoms: C_20  and  C_22
REMARK                            x       y       z     vdW  Elec       q    Type
REMARK                         _______ _______ _______ _____ _____    ______ ____
ROOT
ATOM      1  C   UNL     1      33.185  -9.359 -22.731  0.00  0.00    +0.015 C 
ATOM      2  C   UNL     1      32.451 -10.536 -22.586  0.00  0.00    +0.004 C 
ATOM      3  C   UNL     1      34.231  -9.297 -23.652  0.00  0.00    +0.004 C 
ATOM      4  C   UNL     1      33.808 -11.583 -24.279  0.00  0.00    +0.139 C 
ATOM      5  C   UNL     1      32.764 -11.652 -23.363  0.00  0.00    +0.037 C 
ATOM      6  C   UNL     1      34.544 -10.412 -24.428  0.00  0.00    +0.037 C 
ENDROOT
BRANCH   1   9
ATOM      7  N   UNL     1      32.525  -8.310 -20.610  0.00  0.00    -0.236 N 
ATOM      8  N   UNL     1      32.257  -7.131 -20.022  0.00  0.00    -0.180 NA
ATOM      9  C   UNL     1      32.862  -8.205 -21.928  0.00  0.00    +0.067 C 
ATOM     10  C   UNL     1      32.810  -6.864 -22.223  0.00  0.00    +0.036 C 
ATOM     11  C   UNL     1      32.432  -6.252 -21.013  0.00  0.00    +0.119 C 
ATOM     12  H   UNL     1      32.483  -9.169 -20.133  0.00  0.00    +0.174 HD
BRANCH  10  14
ATOM     13  N   UNL     1      33.642  -5.172 -26.011  0.00  0.00    -0.242 NA
ATOM     14  C   UNL     1      33.091  -6.293 -23.505  0.00  0.00    +0.006 C 
ATOM     15  C   UNL     1      32.063  -5.754 -24.275  0.00  0.00    +0.021 C 
ATOM     16  C   UNL     1      34.396  -6.268 -23.992  0.00  0.00    +0.021 C 
ATOM     17  C   UNL     1      32.387  -5.212 -25.508  0.00  0.00    +0.099 C 
ATOM     18  C   UNL     1      34.616  -5.704 -25.238  0.00  0.00    +0.099 C 
ENDBRANCH  10  14
ENDBRANCH   1   9
BRANCH   4  19
ATOM     19  O   UNL     1      34.115 -12.679 -25.041  0.00  0.00    -0.468 OA
BRANCH  19  20
ATOM     20  C   UNL     1      33.075 -13.624 -25.255  0.00  0.00    +0.264 C 
BRANCH  20  22
ATOM     21  N   UNL     1      34.216 -15.149 -23.761  0.00  0.00    -0.406 NA
ATOM     22  C   UNL     1      33.577 -14.994 -24.944  0.00  0.00    +0.152 C 
ATOM     23  C   UNL     1      34.527 -17.474 -24.311  0.00  0.00    +0.026 C 
ATOM     24  C   UNL     1      34.685 -16.371 -23.446  0.00  0.00    +0.113 C 
ATOM     25  C   UNL     1      33.375 -16.012 -25.853  0.00  0.00    +0.031 C 
ATOM     26  C   UNL     1      33.860 -17.270 -25.526  0.00  0.00    +0.005 C 
ATOM     27  C   UNL     1      35.029 -18.736 -23.951  0.00  0.00    +0.002 C 
ATOM     28  C   UNL     1      35.347 -16.576 -22.239  0.00  0.00    +0.085 C 
ATOM     29  C   UNL     1      35.688 -18.912 -22.737  0.00  0.00    -0.004 C 
ATOM     30  C   UNL     1      35.847 -17.830 -21.881  0.00  0.00    -0.019 C 
ENDBRANCH  20  22
ENDBRANCH  19  20
ENDBRANCH   4  19
TORSDOF 5
ENDMDL
MODEL 8
REMARK VINA RESULT:     -11.2      2.271      9.704
REMARK  Name = 11610553
REMARK  5 active torsions:
REMARK  status: ('A' for Active; 'I' for Inactive)
REMARK    1  A    between atoms: C_1  and  C_9
REMARK    2  A    between atoms: C_4  and  O_19
REMARK    3  A    between atoms: C_10  and  C_14
REMARK    4  A    between atoms: O_19  and  C_20
REMARK    5  A    between atoms: C_20  and  C_22
REMARK                            x       y       z     vdW  Elec       q    Type
REMARK                         _______ _______ _______ _____ _____    ______ ____
ROOT
ATOM      1  C   UNL     1      34.654 -19.380 -22.617  0.00  0.00    +0.015 C 
ATOM      2  C   UNL     1      35.905 -19.690 -22.083  0.00  0.00    +0.004 C 
ATOM      3  C   UNL     1      33.494 -19.796 -21.965  0.00  0.00    +0.004 C 
ATOM      4  C   UNL     1      34.834 -20.829 -20.251  0.00  0.00    +0.139 C 
ATOM      5  C   UNL     1      35.994 -20.417 -20.896  0.00  0.00    +0.037 C 
ATOM      6  C   UNL     1      33.583 -20.522 -20.778  0.00  0.00    +0.037 C 
ENDROOT
BRANCH   1   9
ATOM      7  N   UNL     1      34.486 -19.237 -25.065  0.00  0.00    -0.236 N 
ATOM      8  N   UNL     1      34.405 -18.379 -26.096  0.00  0.00    -0.180 NA
ATOM      9  C   UNL     1      34.561 -18.629 -23.845  0.00  0.00    +0.067 C 
ATOM     10  C   UNL     1      34.526 -17.278 -24.097  0.00  0.00    +0.036 C 
ATOM     11  C   UNL     1      34.430 -17.184 -25.499  0.00  0.00    +0.119 C 
ATOM     12  H   UNL     1      34.491 -20.214 -25.178  0.00  0.00    +0.174 HD
BRANCH  10  14
ATOM     13  N   UNL     1      34.685 -14.251 -21.147  0.00  0.00    -0.242 NA
ATOM     14  C   UNL     1      34.581 -16.254 -23.099  0.00  0.00    +0.006 C 
ATOM     15  C   UNL     1      34.237 -14.943 -23.419  0.00  0.00    +0.021 C 
ATOM     16  C   UNL     1      34.976 -16.560 -21.799  0.00  0.00    +0.021 C 
ATOM     17  C   UNL     1      34.305 -13.988 -22.418  0.00  0.00    +0.099 C 
ATOM     18  C   UNL     1      35.012 -15.532 -20.870  0.00  0.00    +0.099 C 
ENDBRANCH  10  14
ENDBRANCH   1   9
BRANCH   4  19
ATOM     19  O   UNL     1      34.922 -21.542 -19.085  0.00  0.00    -0.468 OA
BRANCH  19  20
ATOM     20  C   UNL     1      34.313 -22.827 -19.072  0.00  0.00    +0.264 C 
BRANCH  20  22
ATOM     21  N   UNL     1      32.336 -23.026 -17.689  0.00  0.00    -0.406 NA
ATOM     22  C   UNL     1      33.687 -23.065 -17.738  0.00  0.00    +0.152 C 
ATOM     23  C   UNL     1      32.475 -23.489 -15.329  0.00  0.00    +0.026 C 
ATOM     24  C   UNL     1      31.736 -23.235 -16.502  0.00  0.00    +0.113 C 
ATOM     25  C   UNL     1      34.494 -23.306 -16.645  0.00  0.00    +0.031 C 
ATOM     26  C   UNL     1      33.873 -23.521 -15.423  0.00  0.00    +0.005 C 
ATOM     27  C   UNL     1      31.816 -23.703 -14.106  0.00  0.00    +0.002 C 
ATOM     28  C   UNL     1      30.347 -23.204 -16.407  0.00  0.00    +0.085 C 
ATOM     29  C   UNL     1      30.426 -23.666 -14.040  0.00  0.00    -0.004 C 
ATOM     30  C   UNL     1      29.691 -23.416 -15.192  0.00  0.00    -0.019 C 
ENDBRANCH  20  22
ENDBRANCH  19  20
ENDBRANCH   4  19
TORSDOF 5
ENDMDL
MODEL 9
REMARK VINA RESULT:     -11.1      1.479      3.268
REMARK  Name = 11610553
REMARK  5 active torsions:
REMARK  status: ('A' for Active; 'I' for Inactive)
REMARK    1  A    between atoms: C_1  and  C_9
REMARK    2  A    between atoms: C_4  and  O_19
REMARK    3  A    between atoms: C_10  and  C_14
REMARK    4  A    between atoms: O_19  and  C_20
REMARK    5  A    between atoms: C_20  and  C_22
REMARK                            x       y       z     vdW  Elec       q    Type
REMARK                         _______ _______ _______ _____ _____    ______ ____
ROOT
ATOM      1  C   UNL     1      34.541 -23.179 -16.558  0.00  0.00    +0.015 C 
ATOM      2  C   UNL     1      33.397 -23.124 -17.354  0.00  0.00    +0.004 C 
ATOM      3  C   UNL     1      35.738 -22.631 -17.018  0.00  0.00    +0.004 C 
ATOM      4  C   UNL     1      34.648 -21.979 -19.064  0.00  0.00    +0.139 C 
ATOM      5  C   UNL     1      33.452 -22.522 -18.611  0.00  0.00    +0.037 C 
ATOM      6  C   UNL     1      35.793 -22.029 -18.274  0.00  0.00    +0.037 C 
ENDROOT
BRANCH   1   9
ATOM      7  N   UNL     1      35.611 -24.109 -14.551  0.00  0.00    -0.236 N 
ATOM      8  N   UNL     1      35.366 -24.684 -13.361  0.00  0.00    -0.180 NA
ATOM      9  C   UNL     1      34.485 -23.802 -15.258  0.00  0.00    +0.067 C 
ATOM     10  C   UNL     1      33.430 -24.204 -14.475  0.00  0.00    +0.036 C 
ATOM     11  C   UNL     1      34.032 -24.740 -13.321  0.00  0.00    +0.119 C 
ATOM     12  H   UNL     1      36.520 -23.926 -14.882  0.00  0.00    +0.174 HD
BRANCH  10  14
ATOM     13  N   UNL     1      29.346 -23.819 -15.512  0.00  0.00    -0.242 NA
ATOM     14  C   UNL     1      32.048 -24.074 -14.827  0.00  0.00    +0.006 C 
ATOM     15  C   UNL     1      31.351 -25.160 -15.350  0.00  0.00    +0.021 C 
ATOM     16  C   UNL     1      31.389 -22.860 -14.647  0.00  0.00    +0.021 C 
ATOM     17  C   UNL     1      30.016 -24.983 -15.674  0.00  0.00    +0.099 C 
ATOM     18  C   UNL     1      30.052 -22.786 -15.003  0.00  0.00    +0.099 C 
ENDBRANCH  10  14
ENDBRANCH   1   9
BRANCH   4  19
ATOM     19  O   UNL     1      34.701 -21.387 -20.298  0.00  0.00    -0.468 OA
BRANCH  19  20
ATOM     20  C   UNL     1      35.917 -20.737 -20.646  0.00  0.00    +0.264 C 
BRANCH  20  22
ATOM     21  N   UNL     1      35.442 -18.365 -20.695  0.00  0.00    -0.406 NA
ATOM     22  C   UNL     1      35.613 -19.496 -21.416  0.00  0.00    +0.152 C 
ATOM     23  C   UNL     1      35.049 -17.188 -22.761  0.00  0.00    +0.026 C 
ATOM     24  C   UNL     1      35.164 -17.224 -21.356  0.00  0.00    +0.113 C 
ATOM     25  C   UNL     1      35.519 -19.558 -22.792  0.00  0.00    +0.031 C 
ATOM     26  C   UNL     1      35.233 -18.383 -23.470  0.00  0.00    +0.005 C 
ATOM     27  C   UNL     1      34.758 -15.980 -23.418  0.00  0.00    +0.002 C 
ATOM     28  C   UNL     1      34.982 -16.037 -20.653  0.00  0.00    +0.085 C 
ATOM     29  C   UNL     1      34.580 -14.807 -22.691  0.00  0.00    -0.004 C 
ATOM     30  C   UNL     1      34.692 -14.836 -21.306  0.00  0.00    -0.019 C 
ENDBRANCH  20  22
ENDBRANCH  19  20
ENDBRANCH   4  19
TORSDOF 5
ENDMDL
