MODEL 1
REMARK VINA RESULT:     -11.2      0.000      0.000
REMARK  Name = 71226662
REMARK  4 active torsions:
REMARK  status: ('A' for Active; 'I' for Inactive)
REMARK    1  A    between atoms: C_5  and  C_15
REMARK    2  A    between atoms: C_7  and  C_23
REMARK    3  A    between atoms: C_19  and  C_20
REMARK    4  A    between atoms: C_28  and  C_31
REMARK                            x       y       z     vdW  Elec       q    Type
REMARK                         _______ _______ _______ _____ _____    ______ ____
ROOT
ATOM      1  N   UNL     1      33.030 -24.518 -14.656  0.00  0.00    -0.251 N 
ATOM      2  N   UNL     1      34.960 -23.892 -15.557  0.00  0.00    -0.392 NA
ATOM      3  N   UNL     1      30.378 -24.146 -15.384  0.00  0.00    -0.231 NA
ATOM      4  N   UNL     1      30.927 -22.939 -17.286  0.00  0.00    -0.344 N 
ATOM      5  C   UNL     1      34.393 -24.536 -14.557  0.00  0.00    +0.182 C 
ATOM      6  C   UNL     1      32.709 -23.816 -15.793  0.00  0.00    +0.185 C 
ATOM      7  C   UNL     1      33.917 -23.439 -16.332  0.00  0.00    +0.136 C 
ATOM      8  C   UNL     1      32.031 -25.044 -13.864  0.00  0.00    +0.089 C 
ATOM      9  C   UNL     1      31.313 -23.630 -16.160  0.00  0.00    +0.128 C 
ATOM     10  C   UNL     1      30.759 -24.844 -14.249  0.00  0.00    +0.116 C 
ATOM     11  H   UNL     1      29.970 -22.837 -17.497  0.00  0.00    +0.143 HD
ATOM     12  H   UNL     1      31.606 -22.546 -17.880  0.00  0.00    +0.143 HD
ENDROOT
BRANCH   5  15
ATOM     13  O   UNL     1      36.475 -26.961 -15.306  0.00  0.00    -0.260 OA
ATOM     14  N   UNL     1      36.567 -25.361 -13.628  0.00  0.00    -0.263 N 
ATOM     15  C   UNL     1      35.122 -25.226 -13.419  0.00  0.00    +0.143 C 
ATOM     16  C   UNL     1      35.012 -24.454 -12.098  0.00  0.00    +0.030 C 
ATOM     17  C   UNL     1      36.286 -23.615 -12.060  0.00  0.00    +0.024 C 
ATOM     18  C   UNL     1      37.322 -24.530 -12.694  0.00  0.00    +0.095 C 
ATOM     19  C   UNL     1      37.115 -26.266 -14.524  0.00  0.00    +0.293 C 
BRANCH  19  20
ATOM     20  C   UNL     1      38.555 -26.397 -14.534  0.00  0.00    -0.007 C 
ATOM     21  C   UNL     1      39.750 -26.506 -14.542  0.00  0.00    -0.081 C 
ATOM     22  C   UNL     1      41.207 -26.637 -14.551  0.00  0.00    +0.090 C 
ENDBRANCH  19  20
ENDBRANCH   5  15
BRANCH   7  23
ATOM     23  C   UNL     1      34.125 -22.684 -17.529  0.00  0.00    +0.028 C 
ATOM     24  C   UNL     1      33.036 -22.320 -18.323  0.00  0.00    +0.002 C 
ATOM     25  C   UNL     1      35.416 -22.310 -17.902  0.00  0.00    +0.002 C 
ATOM     26  C   UNL     1      33.240 -21.585 -19.490  0.00  0.00    +0.005 C 
ATOM     27  C   UNL     1      35.619 -21.574 -19.069  0.00  0.00    +0.005 C 
ATOM     28  C   UNL     1      34.531 -21.211 -19.863  0.00  0.00    +0.054 C 
BRANCH  28  31
ATOM     29  O   UNL     1      34.947 -21.046 -22.146  0.00  0.00    -0.270 OA
ATOM     30  N   UNL     1      34.720 -19.049 -20.935  0.00  0.00    -0.266 N 
ATOM     31  C   UNL     1      34.743 -20.442 -21.080  0.00  0.00    +0.251 C 
ATOM     32  H   UNL     1      34.545 -18.716 -20.025  0.00  0.00    +0.157 HD
ATOM     33  N   UNL     1      34.850 -16.757 -21.559  0.00  0.00    -0.229 NA
ATOM     34  C   UNL     1      34.917 -18.056 -21.927  0.00  0.00    +0.134 C 
ATOM     35  C   UNL     1      35.166 -18.485 -23.220  0.00  0.00    +0.034 C 
ATOM     36  C   UNL     1      35.361 -17.518 -24.200  0.00  0.00    +0.004 C 
ATOM     37  C   UNL     1      35.044 -15.845 -22.539  0.00  0.00    +0.100 C 
ATOM     38  C   UNL     1      35.300 -16.171 -23.861  0.00  0.00    +0.021 C 
ENDBRANCH  28  31
ENDBRANCH   7  23
TORSDOF 4
ENDMDL
MODEL 2
REMARK VINA RESULT:     -10.3      9.363     16.767
REMARK  Name = 71226662
REMARK  4 active torsions:
REMARK  status: ('A' for Active; 'I' for Inactive)
REMARK    1  A    between atoms: C_5  and  C_15
REMARK    2  A    between atoms: C_7  and  C_23
REMARK    3  A    between atoms: C_19  and  C_20
REMARK    4  A    between atoms: C_28  and  C_31
REMARK                            x       y       z     vdW  Elec       q    Type
REMARK                         _______ _______ _______ _____ _____    ______ ____
ROOT
ATOM      1  N   UNL     1      32.533  -7.136 -21.522  0.00  0.00    -0.251 N 
ATOM      2  N   UNL     1      33.090  -7.788 -23.569  0.00  0.00    -0.392 NA
ATOM      3  N   UNL     1      31.944  -8.502 -19.181  0.00  0.00    -0.231 NA
ATOM      4  N   UNL     1      32.252 -10.582 -20.156  0.00  0.00    -0.344 N 
ATOM      5  C   UNL     1      32.861  -6.750 -22.792  0.00  0.00    +0.182 C 
ATOM      6  C   UNL     1      32.557  -8.509 -21.490  0.00  0.00    +0.185 C 
ATOM      7  C   UNL     1      32.903  -8.889 -22.765  0.00  0.00    +0.136 C 
ATOM      8  C   UNL     1      32.214  -6.423 -20.385  0.00  0.00    +0.089 C 
ATOM      9  C   UNL     1      32.245  -9.209 -20.253  0.00  0.00    +0.128 C 
ATOM     10  C   UNL     1      31.936  -7.119 -19.271  0.00  0.00    +0.116 C 
ATOM     11  H   UNL     1      32.034 -11.016 -19.299  0.00  0.00    +0.143 HD
ATOM     12  H   UNL     1      32.474 -11.131 -20.942  0.00  0.00    +0.143 HD
ENDROOT
BRANCH   5  15
ATOM     13  O   UNL     1      35.231  -5.873 -24.887  0.00  0.00    -0.260 OA
ATOM     14  N   UNL     1      33.058  -5.092 -24.659  0.00  0.00    -0.263 N 
ATOM     15  C   UNL     1      32.939  -5.293 -23.211  0.00  0.00    +0.143 C 
ATOM     16  C   UNL     1      31.677  -4.506 -22.834  0.00  0.00    +0.030 C 
ATOM     17  C   UNL     1      30.826  -4.554 -24.099  0.00  0.00    +0.024 C 
ATOM     18  C   UNL     1      31.857  -4.474 -25.214  0.00  0.00    +0.095 C 
ATOM     19  C   UNL     1      34.226  -5.354 -25.360  0.00  0.00    +0.293 C 
BRANCH  19  20
ATOM     20  C   UNL     1      34.255  -4.982 -26.756  0.00  0.00    -0.007 C 
ATOM     21  C   UNL     1      34.280  -4.673 -27.916  0.00  0.00    -0.081 C 
ATOM     22  C   UNL     1      34.310  -4.296 -29.329  0.00  0.00    +0.090 C 
ENDBRANCH  19  20
ENDBRANCH   5  15
BRANCH   7  23
ATOM     23  C   UNL     1      33.062 -10.226 -23.249  0.00  0.00    +0.028 C 
ATOM     24  C   UNL     1      32.318 -11.265 -22.687  0.00  0.00    +0.002 C 
ATOM     25  C   UNL     1      33.961 -10.491 -24.282  0.00  0.00    +0.002 C 
ATOM     26  C   UNL     1      32.475 -12.568 -23.158  0.00  0.00    +0.005 C 
ATOM     27  C   UNL     1      34.117 -11.795 -24.753  0.00  0.00    +0.005 C 
ATOM     28  C   UNL     1      33.375 -12.834 -24.192  0.00  0.00    +0.054 C 
BRANCH  28  31
ATOM     29  O   UNL     1      33.105 -14.480 -25.813  0.00  0.00    -0.270 OA
ATOM     30  N   UNL     1      34.162 -15.090 -23.808  0.00  0.00    -0.266 N 
ATOM     31  C   UNL     1      33.536 -14.192 -24.684  0.00  0.00    +0.251 C 
ATOM     32  H   UNL     1      34.452 -14.716 -22.945  0.00  0.00    +0.157 HD
ATOM     33  N   UNL     1      35.051 -17.149 -23.013  0.00  0.00    -0.229 NA
ATOM     34  C   UNL     1      34.431 -16.468 -24.002  0.00  0.00    +0.134 C 
ATOM     35  C   UNL     1      34.038 -17.033 -25.205  0.00  0.00    +0.034 C 
ATOM     36  C   UNL     1      34.297 -18.384 -25.405  0.00  0.00    +0.004 C 
ATOM     37  C   UNL     1      35.287 -18.460 -23.243  0.00  0.00    +0.100 C 
ATOM     38  C   UNL     1      34.934 -19.119 -24.409  0.00  0.00    +0.021 C 
ENDBRANCH  28  31
ENDBRANCH   7  23
TORSDOF 4
ENDMDL
MODEL 3
REMARK VINA RESULT:     -10.1      9.213     16.306
REMARK  Name = 71226662
REMARK  4 active torsions:
REMARK  status: ('A' for Active; 'I' for Inactive)
REMARK    1  A    between atoms: C_5  and  C_15
REMARK    2  A    between atoms: C_7  and  C_23
REMARK    3  A    between atoms: C_19  and  C_20
REMARK    4  A    between atoms: C_28  and  C_31
REMARK                            x       y       z     vdW  Elec       q    Type
REMARK                         _______ _______ _______ _____ _____    ______ ____
ROOT
ATOM      1  N   UNL     1      32.342  -7.713 -21.485  0.00  0.00    -0.251 N 
ATOM      2  N   UNL     1      32.955  -8.315 -23.531  0.00  0.00    -0.392 NA
ATOM      3  N   UNL     1      31.706  -9.136 -19.189  0.00  0.00    -0.231 NA
ATOM      4  N   UNL     1      32.055 -11.192 -20.203  0.00  0.00    -0.344 N 
ATOM      5  C   UNL     1      32.698  -7.296 -22.737  0.00  0.00    +0.182 C 
ATOM      6  C   UNL     1      32.376  -9.086 -21.482  0.00  0.00    +0.185 C 
ATOM      7  C   UNL     1      32.757  -9.435 -22.757  0.00  0.00    +0.136 C 
ATOM      8  C   UNL     1      31.989  -7.028 -20.340  0.00  0.00    +0.089 C 
ATOM      9  C   UNL     1      32.039  -9.817 -20.270  0.00  0.00    +0.128 C 
ATOM     10  C   UNL     1      31.688  -7.752 -19.249  0.00  0.00    +0.116 C 
ATOM     11  H   UNL     1      31.820 -11.646 -19.361  0.00  0.00    +0.143 HD
ATOM     12  H   UNL     1      32.301 -11.721 -20.996  0.00  0.00    +0.143 HD
ENDROOT
BRANCH   5  15
ATOM     13  O   UNL     1      35.478  -6.202 -24.097  0.00  0.00    -0.260 OA
ATOM     14  N   UNL     1      33.272  -5.592 -24.480  0.00  0.00    -0.263 N 
ATOM     15  C   UNL     1      32.775  -5.830 -23.121  0.00  0.00    +0.143 C 
ATOM     16  C   UNL     1      31.400  -5.148 -23.110  0.00  0.00    +0.030 C 
ATOM     17  C   UNL     1      30.938  -5.236 -24.561  0.00  0.00    +0.024 C 
ATOM     18  C   UNL     1      32.227  -5.056 -25.347  0.00  0.00    +0.095 C 
ATOM     19  C   UNL     1      34.605  -5.751 -24.830  0.00  0.00    +0.293 C 
BRANCH  19  20
ATOM     20  C   UNL     1      34.989  -5.351 -26.165  0.00  0.00    -0.007 C 
ATOM     21  C   UNL     1      35.309  -5.019 -27.274  0.00  0.00    -0.081 C 
ATOM     22  C   UNL     1      35.698  -4.615 -28.624  0.00  0.00    +0.090 C 
ENDBRANCH  19  20
ENDBRANCH   5  15
BRANCH   7  23
ATOM     23  C   UNL     1      32.939 -10.760 -23.266  0.00  0.00    +0.028 C 
ATOM     24  C   UNL     1      33.608 -10.957 -24.475  0.00  0.00    +0.002 C 
ATOM     25  C   UNL     1      32.447 -11.854 -22.554  0.00  0.00    +0.002 C 
ATOM     26  C   UNL     1      33.784 -12.249 -24.971  0.00  0.00    +0.005 C 
ATOM     27  C   UNL     1      32.624 -13.145 -23.050  0.00  0.00    +0.005 C 
ATOM     28  C   UNL     1      33.292 -13.343 -24.259  0.00  0.00    +0.054 C 
BRANCH  28  31
ATOM     29  O   UNL     1      33.065 -14.960 -25.915  0.00  0.00    -0.270 OA
ATOM     30  N   UNL     1      34.104 -15.597 -23.910  0.00  0.00    -0.266 N 
ATOM     31  C   UNL     1      33.478 -14.690 -24.775  0.00  0.00    +0.251 C 
ATOM     32  H   UNL     1      34.378 -15.236 -23.036  0.00  0.00    +0.157 HD
ATOM     33  N   UNL     1      35.011 -17.659 -23.144  0.00  0.00    -0.229 NA
ATOM     34  C   UNL     1      34.394 -16.966 -24.128  0.00  0.00    +0.134 C 
ATOM     35  C   UNL     1      34.024 -17.512 -25.347  0.00  0.00    +0.034 C 
ATOM     36  C   UNL     1      34.303 -18.856 -25.570  0.00  0.00    +0.004 C 
ATOM     37  C   UNL     1      35.267 -18.962 -23.397  0.00  0.00    +0.100 C 
ATOM     38  C   UNL     1      34.937 -19.602 -24.581  0.00  0.00    +0.021 C 
ENDBRANCH  28  31
ENDBRANCH   7  23
TORSDOF 4
ENDMDL
MODEL 4
REMARK VINA RESULT:      -8.8      1.589      2.868
REMARK  Name = 71226662
REMARK  4 active torsions:
REMARK  status: ('A' for Active; 'I' for Inactive)
REMARK    1  A    between atoms: C_5  and  C_15
REMARK    2  A    between atoms: C_7  and  C_23
REMARK    3  A    between atoms: C_19  and  C_20
REMARK    4  A    between atoms: C_28  and  C_31
REMARK                            x       y       z     vdW  Elec       q    Type
REMARK                         _______ _______ _______ _____ _____    ______ ____
ROOT
ATOM      1  N   UNL     1      35.046 -24.013 -15.566  0.00  0.00    -0.251 N 
ATOM      2  N   UNL     1      36.678 -23.126 -16.782  0.00  0.00    -0.392 NA
ATOM      3  N   UNL     1      32.281 -23.998 -15.789  0.00  0.00    -0.231 NA
ATOM      4  N   UNL     1      32.306 -22.714 -17.719  0.00  0.00    -0.344 N 
ATOM      5  C   UNL     1      36.395 -23.848 -15.717  0.00  0.00    +0.182 C 
ATOM      6  C   UNL     1      34.433 -23.354 -16.603  0.00  0.00    +0.185 C 
ATOM      7  C   UNL     1      35.460 -22.813 -17.340  0.00  0.00    +0.136 C 
ATOM      8  C   UNL     1      34.288 -24.675 -14.623  0.00  0.00    +0.089 C 
ATOM      9  C   UNL     1      32.981 -23.355 -16.705  0.00  0.00    +0.128 C 
ATOM     10  C   UNL     1      32.952 -24.646 -14.764  0.00  0.00    +0.116 C 
ATOM     11  H   UNL     1      31.322 -22.741 -17.750  0.00  0.00    +0.143 HD
ATOM     12  H   UNL     1      32.807 -22.230 -18.414  0.00  0.00    +0.143 HD
ENDROOT
BRANCH   5  15
ATOM     13  O   UNL     1      36.505 -22.643 -12.665  0.00  0.00    -0.260 OA
ATOM     14  N   UNL     1      36.845 -24.802 -13.445  0.00  0.00    -0.263 N 
ATOM     15  C   UNL     1      37.405 -24.441 -14.752  0.00  0.00    +0.143 C 
ATOM     16  C   UNL     1      38.007 -25.755 -15.268  0.00  0.00    +0.030 C 
ATOM     17  C   UNL     1      37.143 -26.832 -14.618  0.00  0.00    +0.024 C 
ATOM     18  C   UNL     1      36.836 -26.249 -13.248  0.00  0.00    +0.095 C 
ATOM     19  C   UNL     1      36.495 -23.857 -12.493  0.00  0.00    +0.293 C 
BRANCH  19  20
ATOM     20  C   UNL     1      36.086 -24.348 -11.195  0.00  0.00    -0.007 C 
ATOM     21  C   UNL     1      35.746 -24.755 -10.119  0.00  0.00    -0.081 C 
ATOM     22  C   UNL     1      35.332 -25.253  -8.807  0.00  0.00    +0.090 C 
ENDBRANCH  19  20
ENDBRANCH   5  15
BRANCH   7  23
ATOM     23  C   UNL     1      35.343 -22.028 -18.531  0.00  0.00    +0.028 C 
ATOM     24  C   UNL     1      34.093 -21.835 -19.119  0.00  0.00    +0.002 C 
ATOM     25  C   UNL     1      36.480 -21.457 -19.103  0.00  0.00    +0.002 C 
ATOM     26  C   UNL     1      33.980 -21.070 -20.280  0.00  0.00    +0.005 C 
ATOM     27  C   UNL     1      36.366 -20.692 -20.264  0.00  0.00    +0.005 C 
ATOM     28  C   UNL     1      35.116 -20.499 -20.853  0.00  0.00    +0.054 C 
BRANCH  28  31
ATOM     29  O   UNL     1      34.996 -20.273 -23.165  0.00  0.00    -0.270 OA
ATOM     30  N   UNL     1      34.915 -18.314 -21.875  0.00  0.00    -0.266 N 
ATOM     31  C   UNL     1      34.997 -19.700 -22.062  0.00  0.00    +0.251 C 
ATOM     32  H   UNL     1      34.927 -18.006 -20.940  0.00  0.00    +0.157 HD
ATOM     33  N   UNL     1      34.749 -16.010 -22.445  0.00  0.00    -0.229 NA
ATOM     34  C   UNL     1      34.817 -17.296 -22.856  0.00  0.00    +0.134 C 
ATOM     35  C   UNL     1      34.797 -17.688 -24.185  0.00  0.00    +0.034 C 
ATOM     36  C   UNL     1      34.702 -16.697 -25.155  0.00  0.00    +0.004 C 
ATOM     37  C   UNL     1      34.656 -15.074 -23.416  0.00  0.00    +0.100 C 
ATOM     38  C   UNL     1      34.630 -15.361 -24.771  0.00  0.00    +0.021 C 
ENDBRANCH  28  31
ENDBRANCH   7  23
TORSDOF 4
ENDMDL
