MODEL 1
REMARK VINA RESULT:     -11.6      0.000      0.000
REMARK  Name = 447735
REMARK  4 active torsions:
REMARK  status: ('A' for Active; 'I' for Inactive)
REMARK    1  A    between atoms: N_2  and  C_13
REMARK    2  A    between atoms: C_3  and  C_18
REMARK    3  A    between atoms: C_7  and  C_15
REMARK    4  A    between atoms: C_26  and  C_30
REMARK                            x       y       z     vdW  Elec       q    Type
REMARK                         _______ _______ _______ _____ _____    ______ ____
ROOT
ATOM      1  O   UNL     1      34.641 -10.385 -24.351  0.00  0.00    -0.270 OA
ATOM      2  N   UNL     1      32.702 -10.701 -23.058  0.00  0.00    -0.280 N 
ATOM      3  C   UNL     1      33.758 -11.099 -23.889  0.00  0.00    +0.249 C 
ATOM      4  H   UNL     1      32.081 -11.411 -22.779  0.00  0.00    +0.155 HD
ENDROOT
BRANCH   2  13
ATOM      5  N   UNL     1      31.812  -4.692 -23.458  0.00  0.00    -0.274 NA
ATOM      6  C   UNL     1      32.247  -7.043 -22.938  0.00  0.00    +0.010 C 
ATOM      7  C   UNL     1      32.353  -5.821 -23.776  0.00  0.00    +0.053 C 
ATOM      8  C   UNL     1      31.863  -6.862 -21.603  0.00  0.00    -0.019 C 
ATOM      9  C   UNL     1      31.603  -5.470 -21.110  0.00  0.00    +0.053 C 
ATOM     10  C   UNL     1      30.999  -4.642 -22.237  0.00  0.00    +0.130 C 
ATOM     11  C   UNL     1      32.524  -8.321 -23.428  0.00  0.00    +0.016 C 
ATOM     12  C   UNL     1      31.784  -7.969 -20.752  0.00  0.00    -0.003 C 
ATOM     13  C   UNL     1      32.427  -9.421 -22.575  0.00  0.00    +0.051 C 
ATOM     14  C   UNL     1      32.061  -9.245 -21.241  0.00  0.00    +0.014 C 
BRANCH   7  15
ATOM     15  C   UNL     1      33.137  -5.888 -25.063  0.00  0.00    +0.040 C 
ATOM     16  C   UNL     1      32.753  -4.700 -25.928  0.00  0.00    +0.006 C 
ATOM     17  C   UNL     1      34.621  -5.903 -24.744  0.00  0.00    +0.006 C 
ENDBRANCH   7  15
ENDBRANCH   2  13
BRANCH   3  18
ATOM     18  C   UNL     1      33.770 -12.540 -24.257  0.00  0.00    +0.054 C 
ATOM     19  C   UNL     1      34.344 -14.810 -23.712  0.00  0.00    +0.000 C 
ATOM     20  C   UNL     1      33.790 -15.229 -24.945  0.00  0.00    +0.000 C 
ATOM     21  C   UNL     1      34.325 -13.446 -23.379  0.00  0.00    +0.005 C 
ATOM     22  C   UNL     1      33.224 -12.920 -25.462  0.00  0.00    +0.005 C 
ATOM     23  C   UNL     1      33.233 -14.271 -25.810  0.00  0.00    +0.000 C 
ATOM     24  C   UNL     1      33.808 -16.593 -25.278  0.00  0.00    +0.003 C 
ATOM     25  C   UNL     1      34.900 -15.768 -22.849  0.00  0.00    +0.000 C 
ATOM     26  C   UNL     1      34.365 -17.532 -24.408  0.00  0.00    +0.031 C 
ATOM     27  C   UNL     1      34.910 -17.119 -23.196  0.00  0.00    +0.003 C 
BRANCH  26  30
ATOM     28  N   UNL     1      34.920 -19.901 -23.918  0.00  0.00    -0.343 N 
ATOM     29  N   UNL     1      33.866 -19.328 -25.924  0.00  0.00    -0.285 NA
ATOM     30  C   UNL     1      34.376 -18.940 -24.768  0.00  0.00    +0.117 C 
ATOM     31  H   UNL     1      34.916 -20.850 -24.182  0.00  0.00    +0.144 HD
ATOM     32  H   UNL     1      35.308 -19.632 -23.054  0.00  0.00    +0.144 HD
ATOM     33  H   UNL     1      33.873 -20.282 -26.170  0.00  0.00    +0.188 HD
ENDBRANCH  26  30
ENDBRANCH   3  18
TORSDOF 4
ENDMDL
MODEL 2
REMARK VINA RESULT:     -11.4      9.503     15.535
REMARK  Name = 447735
REMARK  4 active torsions:
REMARK  status: ('A' for Active; 'I' for Inactive)
REMARK    1  A    between atoms: N_2  and  C_13
REMARK    2  A    between atoms: C_3  and  C_18
REMARK    3  A    between atoms: C_7  and  C_15
REMARK    4  A    between atoms: C_26  and  C_30
REMARK                            x       y       z     vdW  Elec       q    Type
REMARK                         _______ _______ _______ _____ _____    ______ ____
ROOT
ATOM      1  O   UNL     1      33.928 -24.173 -17.949  0.00  0.00    -0.270 OA
ATOM      2  N   UNL     1      34.983 -22.566 -16.595  0.00  0.00    -0.280 N 
ATOM      3  C   UNL     1      34.377 -23.048 -17.763  0.00  0.00    +0.249 C 
ATOM      4  H   UNL     1      35.287 -21.630 -16.621  0.00  0.00    +0.155 HD
ENDROOT
BRANCH   2  13
ATOM      5  N   UNL     1      38.275 -25.575 -12.451  0.00  0.00    -0.274 NA
ATOM      6  C   UNL     1      36.657 -24.532 -13.962  0.00  0.00    +0.010 C 
ATOM      7  C   UNL     1      37.935 -25.218 -13.646  0.00  0.00    +0.053 C 
ATOM      8  C   UNL     1      35.644 -24.608 -12.997  0.00  0.00    -0.019 C 
ATOM      9  C   UNL     1      35.906 -25.375 -11.736  0.00  0.00    +0.053 C 
ATOM     10  C   UNL     1      37.372 -25.223 -11.350  0.00  0.00    +0.130 C 
ATOM     11  C   UNL     1      36.442 -23.849 -15.161  0.00  0.00    +0.016 C 
ATOM     12  C   UNL     1      34.402 -24.017 -13.251  0.00  0.00    -0.003 C 
ATOM     13  C   UNL     1      35.205 -23.249 -15.399  0.00  0.00    +0.051 C 
ATOM     14  C   UNL     1      34.187 -23.336 -14.449  0.00  0.00    +0.014 C 
BRANCH   7  15
ATOM     15  C   UNL     1      38.893 -25.525 -14.771  0.00  0.00    +0.040 C 
ATOM     16  C   UNL     1      40.312 -25.430 -14.240  0.00  0.00    +0.006 C 
ATOM     17  C   UNL     1      38.585 -26.904 -15.327  0.00  0.00    +0.006 C 
ENDBRANCH   7  15
ENDBRANCH   2  13
BRANCH   3  18
ATOM     18  C   UNL     1      34.308 -22.080 -18.891  0.00  0.00    +0.054 C 
ATOM     19  C   UNL     1      35.424 -20.566 -20.389  0.00  0.00    +0.000 C 
ATOM     20  C   UNL     1      34.179 -20.276 -20.996  0.00  0.00    +0.000 C 
ATOM     21  C   UNL     1      35.473 -21.482 -19.325  0.00  0.00    +0.005 C 
ATOM     22  C   UNL     1      33.086 -21.817 -19.463  0.00  0.00    +0.005 C 
ATOM     23  C   UNL     1      33.018 -20.910 -20.522  0.00  0.00    +0.000 C 
ATOM     24  C   UNL     1      34.130 -19.360 -22.060  0.00  0.00    +0.003 C 
ATOM     25  C   UNL     1      36.583 -19.932 -20.864  0.00  0.00    +0.000 C 
ATOM     26  C   UNL     1      35.293 -18.739 -22.519  0.00  0.00    +0.031 C 
ATOM     27  C   UNL     1      36.517 -19.025 -21.921  0.00  0.00    +0.003 C 
BRANCH  26  30
ATOM     28  N   UNL     1      34.617 -18.130 -24.829  0.00  0.00    -0.343 N 
ATOM     29  N   UNL     1      35.754 -16.590 -23.489  0.00  0.00    -0.285 NA
ATOM     30  C   UNL     1      35.226 -17.794 -23.621  0.00  0.00    +0.117 C 
ATOM     31  H   UNL     1      34.583 -17.474 -25.562  0.00  0.00    +0.144 HD
ATOM     32  H   UNL     1      34.220 -19.023 -24.948  0.00  0.00    +0.144 HD
ATOM     33  H   UNL     1      35.711 -15.948 -24.235  0.00  0.00    +0.188 HD
ENDBRANCH  26  30
ENDBRANCH   3  18
TORSDOF 4
ENDMDL
MODEL 3
REMARK VINA RESULT:     -10.7      4.640      8.069
REMARK  Name = 447735
REMARK  4 active torsions:
REMARK  status: ('A' for Active; 'I' for Inactive)
REMARK    1  A    between atoms: N_2  and  C_13
REMARK    2  A    between atoms: C_3  and  C_18
REMARK    3  A    between atoms: C_7  and  C_15
REMARK    4  A    between atoms: C_26  and  C_30
REMARK                            x       y       z     vdW  Elec       q    Type
REMARK                         _______ _______ _______ _____ _____    ______ ____
ROOT
ATOM      1  O   UNL     1      34.579 -19.249 -24.242  0.00  0.00    -0.270 OA
ATOM      2  N   UNL     1      34.741 -17.231 -23.046  0.00  0.00    -0.280 N 
ATOM      3  C   UNL     1      34.841 -18.617 -23.225  0.00  0.00    +0.249 C 
ATOM      4  H   UNL     1      34.995 -16.892 -22.158  0.00  0.00    +0.155 HD
ENDROOT
BRANCH   2  13
ATOM      5  N   UNL     1      33.371 -11.633 -25.007  0.00  0.00    -0.274 NA
ATOM      6  C   UNL     1      33.707 -14.003 -24.499  0.00  0.00    +0.010 C 
ATOM      7  C   UNL     1      33.443 -12.587 -24.138  0.00  0.00    +0.053 C 
ATOM      8  C   UNL     1      33.508 -14.361 -25.839  0.00  0.00    -0.019 C 
ATOM      9  C   UNL     1      33.035 -13.314 -26.802  0.00  0.00    +0.053 C 
ATOM     10  C   UNL     1      33.629 -11.967 -26.412  0.00  0.00    +0.130 C 
ATOM     11  C   UNL     1      34.122 -14.955 -23.565  0.00  0.00    +0.016 C 
ATOM     12  C   UNL     1      33.701 -15.689 -26.234  0.00  0.00    -0.003 C 
ATOM     13  C   UNL     1      34.327 -16.274 -23.973  0.00  0.00    +0.051 C 
ATOM     14  C   UNL     1      34.114 -16.640 -25.302  0.00  0.00    +0.014 C 
BRANCH   7  15
ATOM     15  C   UNL     1      33.239 -12.232 -22.685  0.00  0.00    +0.040 C 
ATOM     16  C   UNL     1      32.709 -10.812 -22.602  0.00  0.00    +0.006 C 
ATOM     17  C   UNL     1      32.286 -13.233 -22.056  0.00  0.00    +0.006 C 
ENDBRANCH   7  15
ENDBRANCH   2  13
BRANCH   3  18
ATOM     18  C   UNL     1      35.291 -19.383 -22.032  0.00  0.00    +0.054 C 
ATOM     19  C   UNL     1      34.788 -20.906 -20.240  0.00  0.00    +0.000 C 
ATOM     20  C   UNL     1      36.132 -20.813 -19.807  0.00  0.00    +0.000 C 
ATOM     21  C   UNL     1      34.379 -20.177 -21.369  0.00  0.00    +0.005 C 
ATOM     22  C   UNL     1      36.602 -19.274 -21.631  0.00  0.00    +0.005 C 
ATOM     23  C   UNL     1      37.028 -19.992 -20.513  0.00  0.00    +0.000 C 
ATOM     24  C   UNL     1      36.542 -21.542 -18.678  0.00  0.00    +0.003 C 
ATOM     25  C   UNL     1      33.895 -21.727 -19.534  0.00  0.00    +0.000 C 
ATOM     26  C   UNL     1      35.639 -22.352 -17.988  0.00  0.00    +0.031 C 
ATOM     27  C   UNL     1      34.318 -22.444 -18.415  0.00  0.00    +0.003 C 
BRANCH  26  30
ATOM     28  N   UNL     1      37.353 -22.927 -16.286  0.00  0.00    -0.343 N 
ATOM     29  N   UNL     1      35.263 -23.972 -16.253  0.00  0.00    -0.285 NA
ATOM     30  C   UNL     1      36.079 -23.102 -16.822  0.00  0.00    +0.117 C 
ATOM     31  H   UNL     1      37.630 -23.445 -15.496  0.00  0.00    +0.144 HD
ATOM     32  H   UNL     1      37.977 -22.286 -16.698  0.00  0.00    +0.144 HD
ATOM     33  H   UNL     1      35.559 -24.481 -15.463  0.00  0.00    +0.188 HD
ENDBRANCH  26  30
ENDBRANCH   3  18
TORSDOF 4
ENDMDL
MODEL 4
REMARK VINA RESULT:     -10.6      1.887     10.255
REMARK  Name = 447735
REMARK  4 active torsions:
REMARK  status: ('A' for Active; 'I' for Inactive)
REMARK    1  A    between atoms: N_2  and  C_13
REMARK    2  A    between atoms: C_3  and  C_18
REMARK    3  A    between atoms: C_7  and  C_15
REMARK    4  A    between atoms: C_26  and  C_30
REMARK                            x       y       z     vdW  Elec       q    Type
REMARK                         _______ _______ _______ _____ _____    ______ ____
ROOT
ATOM      1  O   UNL     1      34.120 -12.441 -26.165  0.00  0.00    -0.270 OA
ATOM      2  N   UNL     1      33.761 -13.588 -24.144  0.00  0.00    -0.280 N 
ATOM      3  C   UNL     1      33.896 -12.456 -24.960  0.00  0.00    +0.249 C 
ATOM      4  H   UNL     1      33.581 -13.414 -23.192  0.00  0.00    +0.155 HD
ENDROOT
BRANCH   2  13
ATOM      5  N   UNL     1      35.097 -19.479 -23.392  0.00  0.00    -0.274 NA
ATOM      6  C   UNL     1      34.579 -17.183 -24.059  0.00  0.00    +0.010 C 
ATOM      7  C   UNL     1      35.270 -18.208 -23.237  0.00  0.00    +0.053 C 
ATOM      8  C   UNL     1      34.012 -17.617 -25.265  0.00  0.00    -0.019 C 
ATOM      9  C   UNL     1      34.151 -19.060 -25.648  0.00  0.00    +0.053 C 
ATOM     10  C   UNL     1      34.116 -19.920 -24.391  0.00  0.00    +0.130 C 
ATOM     11  C   UNL     1      34.494 -15.841 -23.680  0.00  0.00    +0.016 C 
ATOM     12  C   UNL     1      33.382 -16.692 -26.104  0.00  0.00    -0.003 C 
ATOM     13  C   UNL     1      33.849 -14.929 -24.516  0.00  0.00    +0.051 C 
ATOM     14  C   UNL     1      33.298 -15.353 -25.726  0.00  0.00    +0.014 C 
BRANCH   7  15
ATOM     15  C   UNL     1      36.232 -17.754 -22.167  0.00  0.00    +0.040 C 
ATOM     16  C   UNL     1      35.443 -17.435 -20.909  0.00  0.00    +0.006 C 
ATOM     17  C   UNL     1      37.265 -18.841 -21.930  0.00  0.00    +0.006 C 
ENDBRANCH   7  15
ENDBRANCH   2  13
BRANCH   3  18
ATOM     18  C   UNL     1      33.776 -11.149 -24.262  0.00  0.00    +0.054 C 
ATOM     19  C   UNL     1      32.706  -9.782 -22.597  0.00  0.00    +0.000 C 
ATOM     20  C   UNL     1      33.555  -8.709 -22.957  0.00  0.00    +0.000 C 
ATOM     21  C   UNL     1      32.832 -11.011 -23.266  0.00  0.00    +0.005 C 
ATOM     22  C   UNL     1      34.613 -10.122 -24.632  0.00  0.00    +0.005 C 
ATOM     23  C   UNL     1      34.503  -8.894 -23.977  0.00  0.00    +0.000 C 
ATOM     24  C   UNL     1      33.429  -7.480 -22.289  0.00  0.00    +0.003 C 
ATOM     25  C   UNL     1      31.759  -9.596 -21.578  0.00  0.00    +0.000 C 
ATOM     26  C   UNL     1      32.482  -7.313 -21.278  0.00  0.00    +0.031 C 
ATOM     27  C   UNL     1      31.648  -8.369 -20.924  0.00  0.00    +0.003 C 
BRANCH  26  30
ATOM     28  N   UNL     1      31.789  -4.930 -21.217  0.00  0.00    -0.343 N 
ATOM     29  N   UNL     1      32.816  -5.907 -19.358  0.00  0.00    -0.285 NA
ATOM     30  C   UNL     1      32.365  -6.035 -20.594  0.00  0.00    +0.117 C 
ATOM     31  H   UNL     1      31.720  -4.074 -20.734  0.00  0.00    +0.144 HD
ATOM     32  H   UNL     1      31.450  -5.004 -22.138  0.00  0.00    +0.144 HD
ATOM     33  H   UNL     1      32.739  -5.042 -18.893  0.00  0.00    +0.188 HD
ENDBRANCH  26  30
ENDBRANCH   3  18
TORSDOF 4
ENDMDL
MODEL 5
REMARK VINA RESULT:     -10.4      1.645     10.039
REMARK  Name = 447735
REMARK  4 active torsions:
REMARK  status: ('A' for Active; 'I' for Inactive)
REMARK    1  A    between atoms: N_2  and  C_13
REMARK    2  A    between atoms: C_3  and  C_18
REMARK    3  A    between atoms: C_7  and  C_15
REMARK    4  A    between atoms: C_26  and  C_30
REMARK                            x       y       z     vdW  Elec       q    Type
REMARK                         _______ _______ _______ _____ _____    ______ ____
ROOT
ATOM      1  O   UNL     1      33.546 -13.055 -24.722  0.00  0.00    -0.270 OA
ATOM      2  N   UNL     1      34.328 -12.953 -22.507  0.00  0.00    -0.280 N 
ATOM      3  C   UNL     1      33.846 -12.427 -23.713  0.00  0.00    +0.249 C 
ATOM      4  H   UNL     1      34.518 -12.299 -21.797  0.00  0.00    +0.155 HD
ENDROOT
BRANCH   2  13
ATOM      5  N   UNL     1      35.554 -18.800 -23.677  0.00  0.00    -0.274 NA
ATOM      6  C   UNL     1      34.921 -16.573 -22.884  0.00  0.00    +0.010 C 
ATOM      7  C   UNL     1      35.029 -17.643 -23.909  0.00  0.00    +0.053 C 
ATOM      8  C   UNL     1      35.058 -16.965 -21.546  0.00  0.00    -0.019 C 
ATOM      9  C   UNL     1      35.286 -18.415 -21.239  0.00  0.00    +0.053 C 
ATOM     10  C   UNL     1      36.127 -19.037 -22.347  0.00  0.00    +0.130 C 
ATOM     11  C   UNL     1      34.681 -15.236 -23.209  0.00  0.00    +0.016 C 
ATOM     12  C   UNL     1      34.927 -16.012 -20.531  0.00  0.00    -0.003 C 
ATOM     13  C   UNL     1      34.567 -14.290 -22.190  0.00  0.00    +0.051 C 
ATOM     14  C   UNL     1      34.686 -14.678 -20.855  0.00  0.00    +0.014 C 
BRANCH   7  15
ATOM     15  C   UNL     1      34.496 -17.377 -25.296  0.00  0.00    +0.040 C 
ATOM     16  C   UNL     1      33.878 -18.656 -25.831  0.00  0.00    +0.006 C 
ATOM     17  C   UNL     1      33.491 -16.241 -25.235  0.00  0.00    +0.006 C 
ENDBRANCH   7  15
ENDBRANCH   2  13
BRANCH   3  18
ATOM     18  C   UNL     1      33.721 -10.946 -23.757  0.00  0.00    +0.054 C 
ATOM     19  C   UNL     1      32.399  -8.969 -23.394  0.00  0.00    +0.000 C 
ATOM     20  C   UNL     1      33.487  -8.181 -23.837  0.00  0.00    +0.000 C 
ATOM     21  C   UNL     1      32.534 -10.367 -23.358  0.00  0.00    +0.005 C 
ATOM     22  C   UNL     1      34.793 -10.203 -24.192  0.00  0.00    +0.005 C 
ATOM     23  C   UNL     1      34.679  -8.813 -24.234  0.00  0.00    +0.000 C 
ATOM     24  C   UNL     1      33.353  -6.783 -23.873  0.00  0.00    +0.003 C 
ATOM     25  C   UNL     1      31.210  -8.337 -22.998  0.00  0.00    +0.000 C 
ATOM     26  C   UNL     1      32.163  -6.172 -23.476  0.00  0.00    +0.031 C 
ATOM     27  C   UNL     1      31.094  -6.948 -23.040  0.00  0.00    +0.003 C 
BRANCH  26  30
ATOM     28  N   UNL     1      32.433  -3.995 -24.638  0.00  0.00    -0.343 N 
ATOM     29  N   UNL     1      31.551  -4.074 -22.476  0.00  0.00    -0.285 NA
ATOM     30  C   UNL     1      32.041  -4.724 -23.518  0.00  0.00    +0.117 C 
ATOM     31  H   UNL     1      32.341  -3.014 -24.645  0.00  0.00    +0.144 HD
ATOM     32  H   UNL     1      32.803  -4.459 -25.424  0.00  0.00    +0.144 HD
ATOM     33  H   UNL     1      31.468  -3.093 -22.501  0.00  0.00    +0.188 HD
ENDBRANCH  26  30
ENDBRANCH   3  18
TORSDOF 4
ENDMDL
MODEL 6
REMARK VINA RESULT:     -10.3      9.483     15.569
REMARK  Name = 447735
REMARK  4 active torsions:
REMARK  status: ('A' for Active; 'I' for Inactive)
REMARK    1  A    between atoms: N_2  and  C_13
REMARK    2  A    between atoms: C_3  and  C_18
REMARK    3  A    between atoms: C_7  and  C_15
REMARK    4  A    between atoms: C_26  and  C_30
REMARK                            x       y       z     vdW  Elec       q    Type
REMARK                         _______ _______ _______ _____ _____    ______ ____
ROOT
ATOM      1  O   UNL     1      34.617 -23.641 -17.442  0.00  0.00    -0.270 OA
ATOM      2  N   UNL     1      36.726 -22.652 -17.122  0.00  0.00    -0.280 N 
ATOM      3  C   UNL     1      35.474 -22.813 -17.730  0.00  0.00    +0.249 C 
ATOM      4  H   UNL     1      37.291 -21.931 -17.483  0.00  0.00    +0.155 HD
ENDROOT
BRANCH   2  13
ATOM      5  N   UNL     1      36.625 -25.693 -11.849  0.00  0.00    -0.274 NA
ATOM      6  C   UNL     1      37.029 -24.426 -13.904  0.00  0.00    +0.010 C 
ATOM      7  C   UNL     1      36.264 -24.770 -12.678  0.00  0.00    +0.053 C 
ATOM      8  C   UNL     1      38.359 -24.865 -13.961  0.00  0.00    -0.019 C 
ATOM      9  C   UNL     1      38.918 -25.625 -12.796  0.00  0.00    +0.053 C 
ATOM     10  C   UNL     1      37.818 -26.480 -12.179  0.00  0.00    +0.130 C 
ATOM     11  C   UNL     1      36.480 -23.691 -14.956  0.00  0.00    +0.016 C 
ATOM     12  C   UNL     1      39.145 -24.539 -15.071  0.00  0.00    -0.003 C 
ATOM     13  C   UNL     1      37.268 -23.385 -16.067  0.00  0.00    +0.051 C 
ATOM     14  C   UNL     1      38.597 -23.804 -16.122  0.00  0.00    +0.014 C 
BRANCH   7  15
ATOM     15  C   UNL     1      35.001 -24.002 -12.371  0.00  0.00    +0.040 C 
ATOM     16  C   UNL     1      33.835 -24.691 -13.058  0.00  0.00    +0.006 C 
ATOM     17  C   UNL     1      34.814 -23.931 -10.866  0.00  0.00    +0.006 C 
ENDBRANCH   7  15
ENDBRANCH   2  13
BRANCH   3  18
ATOM     18  C   UNL     1      35.189 -21.888 -18.859  0.00  0.00    +0.054 C 
ATOM     19  C   UNL     1      35.970 -20.260 -20.447  0.00  0.00    +0.000 C 
ATOM     20  C   UNL     1      34.658 -20.163 -20.967  0.00  0.00    +0.000 C 
ATOM     21  C   UNL     1      36.223 -21.139 -19.381  0.00  0.00    +0.005 C 
ATOM     22  C   UNL     1      33.905 -21.812 -19.345  0.00  0.00    +0.005 C 
ATOM     23  C   UNL     1      33.635 -20.945 -20.405  0.00  0.00    +0.000 C 
ATOM     24  C   UNL     1      34.405 -19.284 -22.034  0.00  0.00    +0.003 C 
ATOM     25  C   UNL     1      36.991 -19.477 -21.010  0.00  0.00    +0.000 C 
ATOM     26  C   UNL     1      35.432 -18.514 -22.580  0.00  0.00    +0.031 C 
ATOM     27  C   UNL     1      36.723 -18.610 -22.069  0.00  0.00    +0.003 C 
BRANCH  26  30
ATOM     28  N   UNL     1      34.417 -18.023 -24.792  0.00  0.00    -0.343 N 
ATOM     29  N   UNL     1      35.610 -16.369 -23.650  0.00  0.00    -0.285 NA
ATOM     30  C   UNL     1      35.154 -17.610 -23.685  0.00  0.00    +0.117 C 
ATOM     31  H   UNL     1      34.241 -17.393 -25.529  0.00  0.00    +0.144 HD
ATOM     32  H   UNL     1      34.072 -18.943 -24.838  0.00  0.00    +0.144 HD
ATOM     33  H   UNL     1      35.424 -15.755 -24.397  0.00  0.00    +0.188 HD
ENDBRANCH  26  30
ENDBRANCH   3  18
TORSDOF 4
ENDMDL
MODEL 7
REMARK VINA RESULT:     -10.3      1.766     10.328
REMARK  Name = 447735
REMARK  4 active torsions:
REMARK  status: ('A' for Active; 'I' for Inactive)
REMARK    1  A    between atoms: N_2  and  C_13
REMARK    2  A    between atoms: C_3  and  C_18
REMARK    3  A    between atoms: C_7  and  C_15
REMARK    4  A    between atoms: C_26  and  C_30
REMARK                            x       y       z     vdW  Elec       q    Type
REMARK                         _______ _______ _______ _____ _____    ______ ____
ROOT
ATOM      1  O   UNL     1      32.993 -13.896 -21.756  0.00  0.00    -0.270 OA
ATOM      2  N   UNL     1      33.259 -13.674 -24.082  0.00  0.00    -0.280 N 
ATOM      3  C   UNL     1      33.012 -13.221 -22.779  0.00  0.00    +0.249 C 
ATOM      4  H   UNL     1      33.236 -12.989 -24.788  0.00  0.00    +0.155 HD
ENDROOT
BRANCH   2  13
ATOM      5  N   UNL     1      35.283 -19.383 -23.476  0.00  0.00    -0.274 NA
ATOM      6  C   UNL     1      34.517 -17.140 -24.085  0.00  0.00    +0.010 C 
ATOM      7  C   UNL     1      35.285 -18.109 -23.262  0.00  0.00    +0.053 C 
ATOM      8  C   UNL     1      34.078 -17.586 -25.339  0.00  0.00    -0.019 C 
ATOM      9  C   UNL     1      34.418 -18.982 -25.767  0.00  0.00    +0.053 C 
ATOM     10  C   UNL     1      34.423 -19.895 -24.549  0.00  0.00    +0.130 C 
ATOM     11  C   UNL     1      34.243 -15.838 -23.660  0.00  0.00    +0.016 C 
ATOM     12  C   UNL     1      33.384 -16.709 -26.178  0.00  0.00    -0.003 C 
ATOM     13  C   UNL     1      33.536 -14.976 -24.499  0.00  0.00    +0.051 C 
ATOM     14  C   UNL     1      33.111 -15.409 -25.755  0.00  0.00    +0.014 C 
BRANCH   7  15
ATOM     15  C   UNL     1      36.121 -17.589 -22.118  0.00  0.00    +0.040 C 
ATOM     16  C   UNL     1      35.200 -17.240 -20.963  0.00  0.00    +0.006 C 
ATOM     17  C   UNL     1      37.147 -18.639 -21.731  0.00  0.00    +0.006 C 
ENDBRANCH   7  15
ENDBRANCH   2  13
BRANCH   3  18
ATOM     18  C   UNL     1      32.719 -11.768 -22.654  0.00  0.00    +0.054 C 
ATOM     19  C   UNL     1      33.213  -9.497 -23.271  0.00  0.00    +0.000 C 
ATOM     20  C   UNL     1      32.170  -9.058 -22.422  0.00  0.00    +0.000 C 
ATOM     21  C   UNL     1      33.478 -10.872 -23.378  0.00  0.00    +0.005 C 
ATOM     22  C   UNL     1      31.699 -11.368 -21.822  0.00  0.00    +0.005 C 
ATOM     23  C   UNL     1      31.421 -10.005 -21.704  0.00  0.00    +0.000 C 
ATOM     24  C   UNL     1      31.905  -7.682 -22.315  0.00  0.00    +0.003 C 
ATOM     25  C   UNL     1      33.959  -8.549 -23.988  0.00  0.00    +0.000 C 
ATOM     26  C   UNL     1      32.657  -6.754 -23.035  0.00  0.00    +0.031 C 
ATOM     27  C   UNL     1      33.683  -7.187 -23.870  0.00  0.00    +0.003 C 
BRANCH  26  30
ATOM     28  N   UNL     1      32.474  -4.477 -24.008  0.00  0.00    -0.343 N 
ATOM     29  N   UNL     1      32.007  -4.833 -21.746  0.00  0.00    -0.285 NA
ATOM     30  C   UNL     1      32.370  -5.334 -22.914  0.00  0.00    +0.117 C 
ATOM     31  H   UNL     1      32.275  -3.519 -23.903  0.00  0.00    +0.144 HD
ATOM     32  H   UNL     1      32.746  -4.830 -24.886  0.00  0.00    +0.144 HD
ATOM     33  H   UNL     1      31.812  -3.871 -21.661  0.00  0.00    +0.188 HD
ENDBRANCH  26  30
ENDBRANCH   3  18
TORSDOF 4
ENDMDL
MODEL 8
REMARK VINA RESULT:     -10.1      1.890      2.789
REMARK  Name = 447735
REMARK  4 active torsions:
REMARK  status: ('A' for Active; 'I' for Inactive)
REMARK    1  A    between atoms: N_2  and  C_13
REMARK    2  A    between atoms: C_3  and  C_18
REMARK    3  A    between atoms: C_7  and  C_15
REMARK    4  A    between atoms: C_26  and  C_30
REMARK                            x       y       z     vdW  Elec       q    Type
REMARK                         _______ _______ _______ _____ _____    ______ ____
ROOT
ATOM      1  O   UNL     1      30.444 -10.252 -22.125  0.00  0.00    -0.270 OA
ATOM      2  N   UNL     1      32.556  -9.218 -22.110  0.00  0.00    -0.280 N 
ATOM      3  C   UNL     1      31.667 -10.300 -22.051  0.00  0.00    +0.249 C 
ATOM      4  H   UNL     1      33.511  -9.441 -22.034  0.00  0.00    +0.155 HD
ENDROOT
BRANCH   2  13
ATOM      5  N   UNL     1      32.069  -3.949 -25.120  0.00  0.00    -0.274 NA
ATOM      6  C   UNL     1      32.270  -5.858 -23.602  0.00  0.00    +0.010 C 
ATOM      7  C   UNL     1      32.607  -5.086 -24.826  0.00  0.00    +0.053 C 
ATOM      8  C   UNL     1      31.630  -5.158 -22.571  0.00  0.00    -0.019 C 
ATOM      9  C   UNL     1      31.344  -3.698 -22.760  0.00  0.00    +0.053 C 
ATOM     10  C   UNL     1      31.027  -3.433 -24.226  0.00  0.00    +0.130 C 
ATOM     11  C   UNL     1      32.577  -7.212 -23.454  0.00  0.00    +0.016 C 
ATOM     12  C   UNL     1      31.322  -5.817 -21.377  0.00  0.00    -0.003 C 
ATOM     13  C   UNL     1      32.252  -7.865 -22.265  0.00  0.00    +0.051 C 
ATOM     14  C   UNL     1      31.630  -7.169 -21.228  0.00  0.00    +0.014 C 
BRANCH   7  15
ATOM     15  C   UNL     1      33.634  -5.647 -25.779  0.00  0.00    +0.040 C 
ATOM     16  C   UNL     1      33.785  -4.690 -26.948  0.00  0.00    +0.006 C 
ATOM     17  C   UNL     1      34.943  -5.852 -25.038  0.00  0.00    +0.006 C 
ENDBRANCH   7  15
ENDBRANCH   2  13
BRANCH   3  18
ATOM     18  C   UNL     1      32.296 -11.632 -21.852  0.00  0.00    +0.054 C 
ATOM     19  C   UNL     1      33.581 -13.466 -22.728  0.00  0.00    +0.000 C 
ATOM     20  C   UNL     1      33.473 -14.118 -21.477  0.00  0.00    +0.000 C 
ATOM     21  C   UNL     1      32.981 -12.208 -22.902  0.00  0.00    +0.005 C 
ATOM     22  C   UNL     1      32.176 -12.244 -20.626  0.00  0.00    +0.005 C 
ATOM     23  C   UNL     1      32.766 -13.494 -20.435  0.00  0.00    +0.000 C 
ATOM     24  C   UNL     1      34.073 -15.376 -21.304  0.00  0.00    +0.003 C 
ATOM     25  C   UNL     1      34.287 -14.091 -23.769  0.00  0.00    +0.000 C 
ATOM     26  C   UNL     1      34.771 -15.982 -22.350  0.00  0.00    +0.031 C 
ATOM     27  C   UNL     1      34.877 -15.340 -23.580  0.00  0.00    +0.003 C 
BRANCH  26  30
ATOM     28  N   UNL     1      35.574 -17.814 -20.880  0.00  0.00    -0.343 N 
ATOM     29  N   UNL     1      35.785 -17.987 -23.201  0.00  0.00    -0.285 NA
ATOM     30  C   UNL     1      35.387 -17.284 -22.155  0.00  0.00    +0.117 C 
ATOM     31  H   UNL     1      35.994 -18.698 -20.771  0.00  0.00    +0.144 HD
ATOM     32  H   UNL     1      35.287 -17.304 -20.088  0.00  0.00    +0.144 HD
ATOM     33  H   UNL     1      36.204 -18.869 -23.071  0.00  0.00    +0.188 HD
ENDBRANCH  26  30
ENDBRANCH   3  18
TORSDOF 4
ENDMDL
MODEL 9
REMARK VINA RESULT:     -10.1      7.120     13.460
REMARK  Name = 447735
REMARK  4 active torsions:
REMARK  status: ('A' for Active; 'I' for Inactive)
REMARK    1  A    between atoms: N_2  and  C_13
REMARK    2  A    between atoms: C_3  and  C_18
REMARK    3  A    between atoms: C_7  and  C_15
REMARK    4  A    between atoms: C_26  and  C_30
REMARK                            x       y       z     vdW  Elec       q    Type
REMARK                         _______ _______ _______ _____ _____    ______ ____
ROOT
ATOM      1  O   UNL     1      37.561 -19.973 -19.670  0.00  0.00    -0.270 OA
ATOM      2  N   UNL     1      35.532 -21.108 -19.320  0.00  0.00    -0.280 N 
ATOM      3  C   UNL     1      36.402 -20.229 -19.978  0.00  0.00    +0.249 C 
ATOM      4  H   UNL     1      34.631 -21.194 -19.707  0.00  0.00    +0.155 HD
ENDROOT
BRANCH   2  13
ATOM      5  N   UNL     1      34.106 -24.698 -14.614  0.00  0.00    -0.274 NA
ATOM      6  C   UNL     1      34.986 -23.172 -16.312  0.00  0.00    +0.010 C 
ATOM      7  C   UNL     1      33.910 -23.744 -15.463  0.00  0.00    +0.053 C 
ATOM      8  C   UNL     1      36.306 -23.427 -15.916  0.00  0.00    -0.019 C 
ATOM      9  C   UNL     1      36.543 -24.233 -14.675  0.00  0.00    +0.053 C 
ATOM     10  C   UNL     1      35.449 -25.284 -14.541  0.00  0.00    +0.130 C 
ATOM     11  C   UNL     1      34.723 -22.403 -17.448  0.00  0.00    +0.016 C 
ATOM     12  C   UNL     1      37.364 -22.882 -16.651  0.00  0.00    -0.003 C 
ATOM     13  C   UNL     1      35.786 -21.877 -18.184  0.00  0.00    +0.051 C 
ATOM     14  C   UNL     1      37.102 -22.114 -17.785  0.00  0.00    +0.014 C 
BRANCH   7  15
ATOM     15  C   UNL     1      32.514 -23.183 -15.583  0.00  0.00    +0.040 C 
ATOM     16  C   UNL     1      31.736 -24.028 -16.576  0.00  0.00    +0.006 C 
ATOM     17  C   UNL     1      31.861 -23.171 -14.212  0.00  0.00    +0.006 C 
ENDBRANCH   7  15
ENDBRANCH   2  13
BRANCH   3  18
ATOM     18  C   UNL     1      35.828 -19.527 -21.156  0.00  0.00    +0.054 C 
ATOM     19  C   UNL     1      35.190 -17.473 -22.232  0.00  0.00    +0.000 C 
ATOM     20  C   UNL     1      34.757 -18.216 -23.355  0.00  0.00    +0.000 C 
ATOM     21  C   UNL     1      35.731 -18.151 -21.127  0.00  0.00    +0.005 C 
ATOM     22  C   UNL     1      35.414 -20.273 -22.235  0.00  0.00    +0.005 C 
ATOM     23  C   UNL     1      34.875 -19.616 -23.342  0.00  0.00    +0.000 C 
ATOM     24  C   UNL     1      34.216 -17.537 -24.460  0.00  0.00    +0.003 C 
ATOM     25  C   UNL     1      35.071 -16.074 -22.247  0.00  0.00    +0.000 C 
ATOM     26  C   UNL     1      34.105 -16.146 -24.457  0.00  0.00    +0.031 C 
ATOM     27  C   UNL     1      34.532 -15.416 -23.352  0.00  0.00    +0.003 C 
BRANCH  26  30
ATOM     28  N   UNL     1      33.000 -14.181 -25.497  0.00  0.00    -0.343 N 
ATOM     29  N   UNL     1      33.541 -16.050 -26.791  0.00  0.00    -0.285 NA
ATOM     30  C   UNL     1      33.544 -15.459 -25.609  0.00  0.00    +0.117 C 
ATOM     31  H   UNL     1      32.626 -13.734 -26.291  0.00  0.00    +0.144 HD
ATOM     32  H   UNL     1      32.990 -13.725 -24.625  0.00  0.00    +0.144 HD
ATOM     33  H   UNL     1      33.161 -15.587 -27.573  0.00  0.00    +0.188 HD
ENDBRANCH  26  30
ENDBRANCH   3  18
TORSDOF 4
ENDMDL
