MODEL 1
REMARK VINA RESULT:     -11.8      0.000      0.000
REMARK  Name = 25058128
REMARK  13 active torsions:
REMARK  status: ('A' for Active; 'I' for Inactive)
REMARK    1  A    between atoms: C_1  and  S_11
REMARK    2  A    between atoms: C_9  and  O_27
REMARK    3  A    between atoms: S_11  and  N_14
REMARK    4  A    between atoms: N_14  and  C_16
REMARK    5  A    between atoms: C_16  and  C_18
REMARK    6  A    between atoms: C_16  and  C_21
REMARK    7  A    between atoms: C_18  and  O_19
REMARK    8  A    between atoms: C_21  and  C_22
REMARK    9  A    between atoms: C_22  and  C_24
REMARK   10  A    between atoms: C_24  and  O_25
REMARK   11  A    between atoms: O_27  and  C_28
REMARK   12  A    between atoms: C_28  and  C_30
REMARK   13  A    between atoms: C_35  and  C_37
REMARK                            x       y       z     vdW  Elec       q    Type
REMARK                         _______ _______ _______ _____ _____    ______ ____
ROOT
ATOM      1  C   UNL     1      35.562 -23.368 -16.421  0.00  0.00    +0.122 C 
ATOM      2  C   UNL     1      34.481 -22.315 -18.329  0.00  0.00    +0.002 C 
ATOM      3  C   UNL     1      34.423 -23.137 -17.191  0.00  0.00    +0.020 C 
ATOM      4  C   UNL     1      35.714 -21.720 -18.689  0.00  0.00    +0.003 C 
ATOM      5  C   UNL     1      36.773 -22.782 -16.775  0.00  0.00    +0.020 C 
ATOM      6  C   UNL     1      36.851 -21.963 -17.902  0.00  0.00    +0.001 C 
ATOM      7  C   UNL     1      35.773 -20.898 -19.827  0.00  0.00    +0.037 C 
ATOM      8  C   UNL     1      33.345 -22.072 -19.117  0.00  0.00    +0.003 C 
ATOM      9  C   UNL     1      34.633 -20.667 -20.598  0.00  0.00    +0.139 C 
ATOM     10  C   UNL     1      33.422 -21.253 -20.244  0.00  0.00    +0.037 C 
ENDROOT
BRANCH   1  11
ATOM     11  S   UNL     1      35.466 -24.405 -14.992  0.00  0.00    +0.061 S 
ATOM     12  O   UNL     1      34.347 -23.957 -14.188  0.00  0.00    -0.153 OA
ATOM     13  O   UNL     1      35.526 -25.776 -15.461  0.00  0.00    -0.153 OA
BRANCH  11  14
ATOM     14  N   UNL     1      36.920 -24.034 -14.193  0.00  0.00    -0.170 NA
ATOM     15  H   UNL     1      36.700 -23.324 -13.494  0.00  0.00    +0.149 HD
BRANCH  14  16
ATOM     16  C   UNL     1      37.674 -25.099 -13.497  0.00  0.00    +0.174 C 
BRANCH  16  18
ATOM     17  O   UNL     1      40.046 -25.064 -14.029  0.00  0.00    -0.249 OA
ATOM     18  C   UNL     1      38.906 -25.410 -14.311  0.00  0.00    +0.330 C 
BRANCH  18  19
ATOM     19  O   UNL     1      38.619 -26.151 -15.413  0.00  0.00    -0.479 OA
ATOM     20  H   UNL     1      37.737 -26.205 -15.725  0.00  0.00    +0.295 HD
ENDBRANCH  18  19
ENDBRANCH  16  18
BRANCH  16  21
ATOM     21  C   UNL     1      37.954 -24.696 -12.044  0.00  0.00    +0.040 C 
BRANCH  21  22
ATOM     22  C   UNL     1      36.896 -23.824 -11.363  0.00  0.00    +0.111 C 
BRANCH  22  24
ATOM     23  O   UNL     1      35.572 -24.723  -9.552  0.00  0.00    -0.250 OA
ATOM     24  C   UNL     1      35.757 -24.606 -10.758  0.00  0.00    +0.314 C 
BRANCH  24  25
ATOM     25  O   UNL     1      34.962 -25.186 -11.691  0.00  0.00    -0.480 OA
ATOM     26  H   UNL     1      34.333 -24.670 -12.155  0.00  0.00    +0.295 HD
ENDBRANCH  24  25
ENDBRANCH  22  24
ENDBRANCH  21  22
ENDBRANCH  16  21
ENDBRANCH  14  16
ENDBRANCH  11  14
ENDBRANCH   1  11
BRANCH   9  27
ATOM     27  O   UNL     1      34.706 -19.867 -21.697  0.00  0.00    -0.471 OA
BRANCH  27  28
ATOM     28  C   UNL     1      35.841 -19.009 -21.801  0.00  0.00    +0.234 C 
BRANCH  28  30
ATOM     29  F   UNL     1      35.245 -18.220 -24.454  0.00  0.00    -0.204 F 
ATOM     30  C   UNL     1      35.379 -17.627 -22.159  0.00  0.00    +0.049 C 
ATOM     31  C   UNL     1      35.103 -17.303 -23.487  0.00  0.00    +0.140 C 
ATOM     32  C   UNL     1      35.226 -16.666 -21.160  0.00  0.00    +0.002 C 
ATOM     33  C   UNL     1      34.674 -16.016 -23.816  0.00  0.00    +0.040 C 
ATOM     34  C   UNL     1      34.798 -15.380 -21.489  0.00  0.00    +0.010 C 
ATOM     35  C   UNL     1      34.522 -15.055 -22.817  0.00  0.00    +0.071 C 
BRANCH  35  37
ATOM     36  N   UNL     1      33.722 -12.669 -23.429  0.00  0.00    -0.191 NA
ATOM     37  C   UNL     1      34.081 -13.738 -23.154  0.00  0.00    +0.100 C 
ENDBRANCH  35  37
ENDBRANCH  28  30
ENDBRANCH  27  28
ENDBRANCH   9  27
TORSDOF 13
ENDMDL
MODEL 2
REMARK VINA RESULT:     -11.6      1.569      3.138
REMARK  Name = 25058128
REMARK  13 active torsions:
REMARK  status: ('A' for Active; 'I' for Inactive)
REMARK    1  A    between atoms: C_1  and  S_11
REMARK    2  A    between atoms: C_9  and  O_27
REMARK    3  A    between atoms: S_11  and  N_14
REMARK    4  A    between atoms: N_14  and  C_16
REMARK    5  A    between atoms: C_16  and  C_18
REMARK    6  A    between atoms: C_16  and  C_21
REMARK    7  A    between atoms: C_18  and  O_19
REMARK    8  A    between atoms: C_21  and  C_22
REMARK    9  A    between atoms: C_22  and  C_24
REMARK   10  A    between atoms: C_24  and  O_25
REMARK   11  A    between atoms: O_27  and  C_28
REMARK   12  A    between atoms: C_28  and  C_30
REMARK   13  A    between atoms: C_35  and  C_37
REMARK                            x       y       z     vdW  Elec       q    Type
REMARK                         _______ _______ _______ _____ _____    ______ ____
ROOT
ATOM      1  C   UNL     1      35.901 -23.433 -15.654  0.00  0.00    +0.122 C 
ATOM      2  C   UNL     1      34.728 -22.678 -17.646  0.00  0.00    +0.002 C 
ATOM      3  C   UNL     1      34.738 -23.363 -16.420  0.00  0.00    +0.020 C 
ATOM      4  C   UNL     1      35.916 -22.055 -18.100  0.00  0.00    +0.003 C 
ATOM      5  C   UNL     1      37.068 -22.821 -16.100  0.00  0.00    +0.020 C 
ATOM      6  C   UNL     1      37.077 -22.136 -17.316  0.00  0.00    +0.001 C 
ATOM      7  C   UNL     1      35.906 -21.370 -19.326  0.00  0.00    +0.037 C 
ATOM      8  C   UNL     1      33.567 -22.597 -18.432  0.00  0.00    +0.003 C 
ATOM      9  C   UNL     1      34.742 -21.299 -20.093  0.00  0.00    +0.139 C 
ATOM     10  C   UNL     1      33.575 -21.912 -19.647  0.00  0.00    +0.037 C 
ENDROOT
BRANCH   1  11
ATOM     11  S   UNL     1      35.892 -24.301 -14.113  0.00  0.00    +0.061 S 
ATOM     12  O   UNL     1      34.701 -23.909 -13.386  0.00  0.00    -0.153 OA
ATOM     13  O   UNL     1      36.138 -25.698 -14.414  0.00  0.00    -0.153 OA
BRANCH  11  14
ATOM     14  N   UNL     1      37.262 -23.656 -13.342  0.00  0.00    -0.170 NA
ATOM     15  H   UNL     1      36.958 -22.810 -12.858  0.00  0.00    +0.149 HD
BRANCH  14  16
ATOM     16  C   UNL     1      38.006 -24.468 -12.354  0.00  0.00    +0.174 C 
BRANCH  16  18
ATOM     17  O   UNL     1      36.633 -24.323 -10.352  0.00  0.00    -0.249 OA
ATOM     18  C   UNL     1      37.024 -24.963 -11.320  0.00  0.00    +0.330 C 
BRANCH  18  19
ATOM     19  O   UNL     1      36.586 -26.221 -11.590  0.00  0.00    -0.479 OA
ATOM     20  H   UNL     1      37.000 -26.728 -12.260  0.00  0.00    +0.295 HD
ENDBRANCH  18  19
ENDBRANCH  16  18
BRANCH  16  21
ATOM     21  C   UNL     1      38.802 -25.574 -13.059  0.00  0.00    +0.040 C 
BRANCH  21  22
ATOM     22  C   UNL     1      39.609 -25.153 -14.289  0.00  0.00    +0.111 C 
BRANCH  22  24
ATOM     23  O   UNL     1      41.244 -26.912 -14.024  0.00  0.00    -0.250 OA
ATOM     24  C   UNL     1      40.581 -26.201 -14.770  0.00  0.00    +0.314 C 
BRANCH  24  25
ATOM     25  O   UNL     1      40.659 -26.266 -16.122  0.00  0.00    -0.480 OA
ATOM     26  H   UNL     1      39.974 -25.901 -16.649  0.00  0.00    +0.295 HD
ENDBRANCH  24  25
ENDBRANCH  22  24
ENDBRANCH  21  22
ENDBRANCH  16  21
ENDBRANCH  14  16
ENDBRANCH  11  14
ENDBRANCH   1  11
BRANCH   9  27
ATOM     27  O   UNL     1      34.749 -20.630 -21.278  0.00  0.00    -0.471 OA
BRANCH  27  28
ATOM     28  C   UNL     1      35.589 -19.481 -21.372  0.00  0.00    +0.234 C 
BRANCH  28  30
ATOM     29  F   UNL     1      35.658 -16.651 -21.374  0.00  0.00    -0.204 F 
ATOM     30  C   UNL     1      35.160 -18.654 -22.547  0.00  0.00    +0.049 C 
ATOM     31  C   UNL     1      35.217 -17.262 -22.483  0.00  0.00    +0.140 C 
ATOM     32  C   UNL     1      34.702 -19.280 -23.706  0.00  0.00    +0.002 C 
ATOM     33  C   UNL     1      34.817 -16.496 -23.578  0.00  0.00    +0.040 C 
ATOM     34  C   UNL     1      34.300 -18.514 -24.801  0.00  0.00    +0.010 C 
ATOM     35  C   UNL     1      34.358 -17.122 -24.737  0.00  0.00    +0.071 C 
BRANCH  35  37
ATOM     36  N   UNL     1      33.618 -15.699 -26.770  0.00  0.00    -0.191 NA
ATOM     37  C   UNL     1      33.949 -16.337 -25.859  0.00  0.00    +0.100 C 
ENDBRANCH  35  37
ENDBRANCH  28  30
ENDBRANCH  27  28
ENDBRANCH   9  27
TORSDOF 13
ENDMDL
MODEL 3
REMARK VINA RESULT:     -11.4      0.901      2.562
REMARK  Name = 25058128
REMARK  13 active torsions:
REMARK  status: ('A' for Active; 'I' for Inactive)
REMARK    1  A    between atoms: C_1  and  S_11
REMARK    2  A    between atoms: C_9  and  O_27
REMARK    3  A    between atoms: S_11  and  N_14
REMARK    4  A    between atoms: N_14  and  C_16
REMARK    5  A    between atoms: C_16  and  C_18
REMARK    6  A    between atoms: C_16  and  C_21
REMARK    7  A    between atoms: C_18  and  O_19
REMARK    8  A    between atoms: C_21  and  C_22
REMARK    9  A    between atoms: C_22  and  C_24
REMARK   10  A    between atoms: C_24  and  O_25
REMARK   11  A    between atoms: O_27  and  C_28
REMARK   12  A    between atoms: C_28  and  C_30
REMARK   13  A    between atoms: C_35  and  C_37
REMARK                            x       y       z     vdW  Elec       q    Type
REMARK                         _______ _______ _______ _____ _____    ______ ____
ROOT
ATOM      1  C   UNL     1      35.409 -23.414 -16.427  0.00  0.00    +0.122 C 
ATOM      2  C   UNL     1      34.374 -22.335 -18.345  0.00  0.00    +0.002 C 
ATOM      3  C   UNL     1      34.285 -23.160 -17.211  0.00  0.00    +0.020 C 
ATOM      4  C   UNL     1      35.622 -21.761 -18.686  0.00  0.00    +0.003 C 
ATOM      5  C   UNL     1      36.635 -22.849 -16.761  0.00  0.00    +0.020 C 
ATOM      6  C   UNL     1      36.743 -22.027 -17.884  0.00  0.00    +0.001 C 
ATOM      7  C   UNL     1      35.712 -20.936 -19.820  0.00  0.00    +0.037 C 
ATOM      8  C   UNL     1      33.253 -22.069 -19.149  0.00  0.00    +0.003 C 
ATOM      9  C   UNL     1      34.587 -20.682 -20.606  0.00  0.00    +0.139 C 
ATOM     10  C   UNL     1      33.360 -21.247 -20.271  0.00  0.00    +0.037 C 
ENDROOT
BRANCH   1  11
ATOM     11  S   UNL     1      35.274 -24.455 -15.003  0.00  0.00    +0.061 S 
ATOM     12  O   UNL     1      33.954 -24.267 -14.435  0.00  0.00    -0.153 OA
ATOM     13  O   UNL     1      35.717 -25.776 -15.404  0.00  0.00    -0.153 OA
BRANCH  11  14
ATOM     14  N   UNL     1      36.437 -23.777 -13.965  0.00  0.00    -0.170 NA
ATOM     15  H   UNL     1      35.928 -23.254 -13.252  0.00  0.00    +0.149 HD
BRANCH  14  16
ATOM     16  C   UNL     1      37.391 -24.654 -13.251  0.00  0.00    +0.174 C 
BRANCH  16  18
ATOM     17  O   UNL     1      35.811 -25.269 -11.507  0.00  0.00    -0.249 OA
ATOM     18  C   UNL     1      36.597 -25.603 -12.385  0.00  0.00    +0.330 C 
BRANCH  18  19
ATOM     19  O   UNL     1      36.833 -26.903 -12.699  0.00  0.00    -0.479 OA
ATOM     20  H   UNL     1      36.147 -27.431 -13.058  0.00  0.00    +0.295 HD
ENDBRANCH  18  19
ENDBRANCH  16  18
BRANCH  16  21
ATOM     21  C   UNL     1      38.338 -25.338 -14.244  0.00  0.00    +0.040 C 
BRANCH  21  22
ATOM     22  C   UNL     1      39.826 -25.331 -13.883  0.00  0.00    +0.111 C 
BRANCH  22  24
ATOM     23  O   UNL     1      41.403 -27.127 -14.236  0.00  0.00    -0.250 OA
ATOM     24  C   UNL     1      40.660 -26.276 -14.710  0.00  0.00    +0.314 C 
BRANCH  24  25
ATOM     25  O   UNL     1      40.516 -26.075 -16.044  0.00  0.00    -0.480 OA
ATOM     26  H   UNL     1      40.293 -25.224 -16.367  0.00  0.00    +0.295 HD
ENDBRANCH  24  25
ENDBRANCH  22  24
ENDBRANCH  21  22
ENDBRANCH  16  21
ENDBRANCH  14  16
ENDBRANCH  11  14
ENDBRANCH   1  11
BRANCH   9  27
ATOM     27  O   UNL     1      34.690 -19.880 -21.701  0.00  0.00    -0.471 OA
BRANCH  27  28
ATOM     28  C   UNL     1      35.831 -19.027 -21.777  0.00  0.00    +0.234 C 
BRANCH  28  30
ATOM     29  F   UNL     1      35.260 -18.257 -24.440  0.00  0.00    -0.204 F 
ATOM     30  C   UNL     1      35.386 -17.645 -22.150  0.00  0.00    +0.049 C 
ATOM     31  C   UNL     1      35.121 -17.329 -23.483  0.00  0.00    +0.140 C 
ATOM     32  C   UNL     1      35.237 -16.672 -21.161  0.00  0.00    +0.002 C 
ATOM     33  C   UNL     1      34.708 -16.042 -23.826  0.00  0.00    +0.040 C 
ATOM     34  C   UNL     1      34.825 -15.385 -21.505  0.00  0.00    +0.010 C 
ATOM     35  C   UNL     1      34.560 -15.069 -22.837  0.00  0.00    +0.071 C 
BRANCH  35  37
ATOM     36  N   UNL     1      33.789 -12.681 -23.475  0.00  0.00    -0.191 NA
ATOM     37  C   UNL     1      34.135 -13.751 -23.189  0.00  0.00    +0.100 C 
ENDBRANCH  35  37
ENDBRANCH  28  30
ENDBRANCH  27  28
ENDBRANCH   9  27
TORSDOF 13
ENDMDL
MODEL 4
REMARK VINA RESULT:     -11.1      2.744      4.510
REMARK  Name = 25058128
REMARK  13 active torsions:
REMARK  status: ('A' for Active; 'I' for Inactive)
REMARK    1  A    between atoms: C_1  and  S_11
REMARK    2  A    between atoms: C_9  and  O_27
REMARK    3  A    between atoms: S_11  and  N_14
REMARK    4  A    between atoms: N_14  and  C_16
REMARK    5  A    between atoms: C_16  and  C_18
REMARK    6  A    between atoms: C_16  and  C_21
REMARK    7  A    between atoms: C_18  and  O_19
REMARK    8  A    between atoms: C_21  and  C_22
REMARK    9  A    between atoms: C_22  and  C_24
REMARK   10  A    between atoms: C_24  and  O_25
REMARK   11  A    between atoms: O_27  and  C_28
REMARK   12  A    between atoms: C_28  and  C_30
REMARK   13  A    between atoms: C_35  and  C_37
REMARK                            x       y       z     vdW  Elec       q    Type
REMARK                         _______ _______ _______ _____ _____    ______ ____
ROOT
ATOM      1  C   UNL     1      35.223 -22.796 -17.174  0.00  0.00    +0.122 C 
ATOM      2  C   UNL     1      34.203 -21.707 -19.095  0.00  0.00    +0.002 C 
ATOM      3  C   UNL     1      34.089 -22.448 -17.907  0.00  0.00    +0.020 C 
ATOM      4  C   UNL     1      35.487 -21.314 -19.544  0.00  0.00    +0.003 C 
ATOM      5  C   UNL     1      36.484 -22.408 -17.614  0.00  0.00    +0.020 C 
ATOM      6  C   UNL     1      36.617 -21.672 -18.792  0.00  0.00    +0.001 C 
ATOM      7  C   UNL     1      35.602 -20.572 -20.731  0.00  0.00    +0.037 C 
ATOM      8  C   UNL     1      33.073 -21.348 -19.847  0.00  0.00    +0.003 C 
ATOM      9  C   UNL     1      34.467 -20.224 -21.466  0.00  0.00    +0.139 C 
ATOM     10  C   UNL     1      33.206 -20.612 -21.025  0.00  0.00    +0.037 C 
ENDROOT
BRANCH   1  11
ATOM     11  S   UNL     1      35.057 -23.729 -15.681  0.00  0.00    +0.061 S 
ATOM     12  O   UNL     1      34.886 -25.122 -16.041  0.00  0.00    -0.153 OA
ATOM     13  O   UNL     1      36.145 -23.328 -14.810  0.00  0.00    -0.153 OA
BRANCH  11  14
ATOM     14  N   UNL     1      33.598 -23.125 -15.052  0.00  0.00    -0.170 NA
ATOM     15  H   UNL     1      33.354 -22.305 -15.608  0.00  0.00    +0.149 HD
BRANCH  14  16
ATOM     16  C   UNL     1      32.397 -23.987 -15.014  0.00  0.00    +0.174 C 
BRANCH  16  18
ATOM     17  O   UNL     1      31.570 -25.265 -13.117  0.00  0.00    -0.249 OA
ATOM     18  C   UNL     1      32.039 -24.227 -13.567  0.00  0.00    +0.330 C 
BRANCH  18  19
ATOM     19  O   UNL     1      32.315 -23.151 -12.785  0.00  0.00    -0.479 OA
ATOM     20  H   UNL     1      33.158 -23.066 -12.386  0.00  0.00    +0.295 HD
ENDBRANCH  18  19
ENDBRANCH  16  18
BRANCH  16  21
ATOM     21  C   UNL     1      31.271 -23.377 -15.857  0.00  0.00    +0.040 C 
BRANCH  21  22
ATOM     22  C   UNL     1      29.946 -24.144 -15.883  0.00  0.00    +0.111 C 
BRANCH  22  24
ATOM     23  O   UNL     1      28.829 -22.313 -16.993  0.00  0.00    -0.250 OA
ATOM     24  C   UNL     1      28.892 -23.513 -16.757  0.00  0.00    +0.314 C 
BRANCH  24  25
ATOM     25  O   UNL     1      28.005 -24.414 -17.246  0.00  0.00    -0.480 OA
ATOM     26  H   UNL     1      27.304 -24.128 -17.799  0.00  0.00    +0.295 HD
ENDBRANCH  24  25
ENDBRANCH  22  24
ENDBRANCH  21  22
ENDBRANCH  16  21
ENDBRANCH  14  16
ENDBRANCH  11  14
ENDBRANCH   1  11
BRANCH   9  27
ATOM     27  O   UNL     1      34.595 -19.505 -22.614  0.00  0.00    -0.471 OA
BRANCH  27  28
ATOM     28  C   UNL     1      35.711 -18.621 -22.706  0.00  0.00    +0.234 C 
BRANCH  28  30
ATOM     29  F   UNL     1      35.453 -16.838 -20.523  0.00  0.00    -0.204 F 
ATOM     30  C   UNL     1      35.212 -17.214 -22.854  0.00  0.00    +0.049 C 
ATOM     31  C   UNL     1      35.107 -16.386 -21.737  0.00  0.00    +0.140 C 
ATOM     32  C   UNL     1      34.852 -16.735 -24.114  0.00  0.00    +0.002 C 
ATOM     33  C   UNL     1      34.642 -15.079 -21.879  0.00  0.00    +0.040 C 
ATOM     34  C   UNL     1      34.386 -15.427 -24.255  0.00  0.00    +0.010 C 
ATOM     35  C   UNL     1      34.282 -14.599 -23.138  0.00  0.00    +0.071 C 
BRANCH  35  37
ATOM     36  N   UNL     1      33.423 -12.170 -23.400  0.00  0.00    -0.191 NA
ATOM     37  C   UNL     1      33.807 -13.259 -23.283  0.00  0.00    +0.100 C 
ENDBRANCH  35  37
ENDBRANCH  28  30
ENDBRANCH  27  28
ENDBRANCH   9  27
TORSDOF 13
ENDMDL
MODEL 5
REMARK VINA RESULT:     -11.1      1.436      1.932
REMARK  Name = 25058128
REMARK  13 active torsions:
REMARK  status: ('A' for Active; 'I' for Inactive)
REMARK    1  A    between atoms: C_1  and  S_11
REMARK    2  A    between atoms: C_9  and  O_27
REMARK    3  A    between atoms: S_11  and  N_14
REMARK    4  A    between atoms: N_14  and  C_16
REMARK    5  A    between atoms: C_16  and  C_18
REMARK    6  A    between atoms: C_16  and  C_21
REMARK    7  A    between atoms: C_18  and  O_19
REMARK    8  A    between atoms: C_21  and  C_22
REMARK    9  A    between atoms: C_22  and  C_24
REMARK   10  A    between atoms: C_24  and  O_25
REMARK   11  A    between atoms: O_27  and  C_28
REMARK   12  A    between atoms: C_28  and  C_30
REMARK   13  A    between atoms: C_35  and  C_37
REMARK                            x       y       z     vdW  Elec       q    Type
REMARK                         _______ _______ _______ _____ _____    ______ ____
ROOT
ATOM      1  C   UNL     1      35.396 -22.775 -17.196  0.00  0.00    +0.122 C 
ATOM      2  C   UNL     1      34.320 -21.700 -19.093  0.00  0.00    +0.002 C 
ATOM      3  C   UNL     1      34.242 -22.440 -17.902  0.00  0.00    +0.020 C 
ATOM      4  C   UNL     1      35.588 -21.293 -19.573  0.00  0.00    +0.003 C 
ATOM      5  C   UNL     1      36.643 -22.375 -17.667  0.00  0.00    +0.020 C 
ATOM      6  C   UNL     1      36.740 -21.638 -18.848  0.00  0.00    +0.001 C 
ATOM      7  C   UNL     1      35.667 -20.552 -20.763  0.00  0.00    +0.037 C 
ATOM      8  C   UNL     1      33.168 -21.354 -19.819  0.00  0.00    +0.003 C 
ATOM      9  C   UNL     1      34.512 -20.217 -21.471  0.00  0.00    +0.139 C 
ATOM     10  C   UNL     1      33.265 -20.617 -21.000  0.00  0.00    +0.037 C 
ENDROOT
BRANCH   1  11
ATOM     11  S   UNL     1      35.276 -23.708 -15.698  0.00  0.00    +0.061 S 
ATOM     12  O   UNL     1      35.271 -22.775 -14.589  0.00  0.00    -0.153 OA
ATOM     13  O   UNL     1      34.181 -24.643 -15.871  0.00  0.00    -0.153 OA
BRANCH  11  14
ATOM     14  N   UNL     1      36.741 -24.570 -15.706  0.00  0.00    -0.170 NA
ATOM     15  H   UNL     1      37.490 -23.878 -15.745  0.00  0.00    +0.149 HD
BRANCH  14  16
ATOM     16  C   UNL     1      37.065 -25.486 -14.590  0.00  0.00    +0.174 C 
BRANCH  16  18
ATOM     17  O   UNL     1      36.821 -27.396 -16.076  0.00  0.00    -0.249 OA
ATOM     18  C   UNL     1      37.430 -26.828 -15.177  0.00  0.00    +0.330 C 
BRANCH  18  19
ATOM     19  O   UNL     1      38.546 -27.350 -14.606  0.00  0.00    -0.479 OA
ATOM     20  H   UNL     1      39.287 -27.567 -15.137  0.00  0.00    +0.295 HD
ENDBRANCH  18  19
ENDBRANCH  16  18
BRANCH  16  21
ATOM     21  C   UNL     1      38.140 -24.871 -13.686  0.00  0.00    +0.040 C 
BRANCH  21  22
ATOM     22  C   UNL     1      37.933 -25.028 -12.177  0.00  0.00    +0.111 C 
BRANCH  22  24
ATOM     23  O   UNL     1      36.874 -23.622 -10.522  0.00  0.00    -0.250 OA
ATOM     24  C   UNL     1      37.653 -23.731 -11.461  0.00  0.00    +0.314 C 
BRANCH  24  25
ATOM     25  O   UNL     1      38.345 -22.684 -11.977  0.00  0.00    -0.480 OA
ATOM     26  H   UNL     1      38.352 -21.861 -11.529  0.00  0.00    +0.295 HD
ENDBRANCH  24  25
ENDBRANCH  22  24
ENDBRANCH  21  22
ENDBRANCH  16  21
ENDBRANCH  14  16
ENDBRANCH  11  14
ENDBRANCH   1  11
BRANCH   9  27
ATOM     27  O   UNL     1      34.604 -19.497 -22.623  0.00  0.00    -0.471 OA
BRANCH  27  28
ATOM     28  C   UNL     1      35.712 -18.607 -22.745  0.00  0.00    +0.234 C 
BRANCH  28  30
ATOM     29  F   UNL     1      35.480 -16.859 -20.531  0.00  0.00    -0.204 F 
ATOM     30  C   UNL     1      35.201 -17.202 -22.863  0.00  0.00    +0.049 C 
ATOM     31  C   UNL     1      35.110 -16.391 -21.731  0.00  0.00    +0.140 C 
ATOM     32  C   UNL     1      34.815 -16.706 -24.109  0.00  0.00    +0.002 C 
ATOM     33  C   UNL     1      34.633 -15.085 -21.845  0.00  0.00    +0.040 C 
ATOM     34  C   UNL     1      34.338 -15.399 -24.222  0.00  0.00    +0.010 C 
ATOM     35  C   UNL     1      34.247 -14.589 -23.090  0.00  0.00    +0.071 C 
BRANCH  35  37
ATOM     36  N   UNL     1      33.364 -12.164 -23.301  0.00  0.00    -0.191 NA
ATOM     37  C   UNL     1      33.761 -13.251 -23.207  0.00  0.00    +0.100 C 
ENDBRANCH  35  37
ENDBRANCH  28  30
ENDBRANCH  27  28
ENDBRANCH   9  27
TORSDOF 13
ENDMDL
MODEL 6
REMARK VINA RESULT:     -10.6      1.601      2.550
REMARK  Name = 25058128
REMARK  13 active torsions:
REMARK  status: ('A' for Active; 'I' for Inactive)
REMARK    1  A    between atoms: C_1  and  S_11
REMARK    2  A    between atoms: C_9  and  O_27
REMARK    3  A    between atoms: S_11  and  N_14
REMARK    4  A    between atoms: N_14  and  C_16
REMARK    5  A    between atoms: C_16  and  C_18
REMARK    6  A    between atoms: C_16  and  C_21
REMARK    7  A    between atoms: C_18  and  O_19
REMARK    8  A    between atoms: C_21  and  C_22
REMARK    9  A    between atoms: C_22  and  C_24
REMARK   10  A    between atoms: C_24  and  O_25
REMARK   11  A    between atoms: O_27  and  C_28
REMARK   12  A    between atoms: C_28  and  C_30
REMARK   13  A    between atoms: C_35  and  C_37
REMARK                            x       y       z     vdW  Elec       q    Type
REMARK                         _______ _______ _______ _____ _____    ______ ____
ROOT
ATOM      1  C   UNL     1      34.805 -22.860 -17.309  0.00  0.00    +0.122 C 
ATOM      2  C   UNL     1      34.062 -21.620 -19.266  0.00  0.00    +0.002 C 
ATOM      3  C   UNL     1      33.778 -22.405 -18.137  0.00  0.00    +0.020 C 
ATOM      4  C   UNL     1      35.408 -21.291 -19.559  0.00  0.00    +0.003 C 
ATOM      5  C   UNL     1      36.127 -22.536 -17.597  0.00  0.00    +0.020 C 
ATOM      6  C   UNL     1      36.428 -21.756 -18.714  0.00  0.00    +0.001 C 
ATOM      7  C   UNL     1      35.692 -20.505 -20.688  0.00  0.00    +0.037 C 
ATOM      8  C   UNL     1      33.042 -21.154 -20.111  0.00  0.00    +0.003 C 
ATOM      9  C   UNL     1      34.665 -20.051 -21.516  0.00  0.00    +0.139 C 
ATOM     10  C   UNL     1      33.343 -20.375 -21.229  0.00  0.00    +0.037 C 
ENDROOT
BRANCH   1  11
ATOM     11  S   UNL     1      34.425 -23.847 -15.892  0.00  0.00    +0.061 S 
ATOM     12  O   UNL     1      32.985 -23.861 -15.729  0.00  0.00    -0.153 OA
ATOM     13  O   UNL     1      35.156 -25.092 -16.038  0.00  0.00    -0.153 OA
BRANCH  11  14
ATOM     14  N   UNL     1      35.127 -22.941 -14.638  0.00  0.00    -0.170 NA
ATOM     15  H   UNL     1      34.393 -22.345 -14.257  0.00  0.00    +0.149 HD
BRANCH  14  16
ATOM     16  C   UNL     1      35.754 -23.632 -13.489  0.00  0.00    +0.174 C 
BRANCH  16  18
ATOM     17  O   UNL     1      34.798 -25.052 -11.762  0.00  0.00    -0.249 OA
ATOM     18  C   UNL     1      34.653 -24.192 -12.622  0.00  0.00    +0.330 C 
BRANCH  18  19
ATOM     19  O   UNL     1      33.451 -23.615 -12.883  0.00  0.00    -0.479 OA
ATOM     20  H   UNL     1      32.761 -24.121 -13.264  0.00  0.00    +0.295 HD
ENDBRANCH  18  19
ENDBRANCH  16  18
BRANCH  16  21
ATOM     21  C   UNL     1      36.772 -24.670 -13.977  0.00  0.00    +0.040 C 
BRANCH  21  22
ATOM     22  C   UNL     1      38.149 -24.641 -13.309  0.00  0.00    +0.111 C 
BRANCH  22  24
ATOM     23  O   UNL     1      37.882 -24.795 -10.912  0.00  0.00    -0.250 OA
ATOM     24  C   UNL     1      38.131 -24.111 -11.897  0.00  0.00    +0.314 C 
BRANCH  24  25
ATOM     25  O   UNL     1      38.404 -22.784 -11.830  0.00  0.00    -0.480 OA
ATOM     26  H   UNL     1      37.897 -22.176 -12.333  0.00  0.00    +0.295 HD
ENDBRANCH  24  25
ENDBRANCH  22  24
ENDBRANCH  21  22
ENDBRANCH  16  21
ENDBRANCH  14  16
ENDBRANCH  11  14
ENDBRANCH   1  11
BRANCH   9  27
ATOM     27  O   UNL     1      34.957 -19.289 -22.606  0.00  0.00    -0.471 OA
BRANCH  27  28
ATOM     28  C   UNL     1      35.942 -18.270 -22.441  0.00  0.00    +0.234 C 
BRANCH  28  30
ATOM     29  F   UNL     1      35.358 -16.643 -20.199  0.00  0.00    -0.204 F 
ATOM     30  C   UNL     1      35.282 -16.928 -22.555  0.00  0.00    +0.049 C 
ATOM     31  C   UNL     1      35.021 -16.176 -21.410  0.00  0.00    +0.140 C 
ATOM     32  C   UNL     1      34.928 -16.432 -23.810  0.00  0.00    +0.002 C 
ATOM     33  C   UNL     1      34.406 -14.928 -21.520  0.00  0.00    +0.040 C 
ATOM     34  C   UNL     1      34.313 -15.185 -23.919  0.00  0.00    +0.010 C 
ATOM     35  C   UNL     1      34.052 -14.432 -22.774  0.00  0.00    +0.071 C 
BRANCH  35  37
ATOM     36  N   UNL     1      32.915 -12.115 -22.978  0.00  0.00    -0.191 NA
ATOM     37  C   UNL     1      33.424 -13.154 -22.886  0.00  0.00    +0.100 C 
ENDBRANCH  35  37
ENDBRANCH  28  30
ENDBRANCH  27  28
ENDBRANCH   9  27
TORSDOF 13
ENDMDL
MODEL 7
REMARK VINA RESULT:     -10.0      4.914      8.897
REMARK  Name = 25058128
REMARK  13 active torsions:
REMARK  status: ('A' for Active; 'I' for Inactive)
REMARK    1  A    between atoms: C_1  and  S_11
REMARK    2  A    between atoms: C_9  and  O_27
REMARK    3  A    between atoms: S_11  and  N_14
REMARK    4  A    between atoms: N_14  and  C_16
REMARK    5  A    between atoms: C_16  and  C_18
REMARK    6  A    between atoms: C_16  and  C_21
REMARK    7  A    between atoms: C_18  and  O_19
REMARK    8  A    between atoms: C_21  and  C_22
REMARK    9  A    between atoms: C_22  and  C_24
REMARK   10  A    between atoms: C_24  and  O_25
REMARK   11  A    between atoms: O_27  and  C_28
REMARK   12  A    between atoms: C_28  and  C_30
REMARK   13  A    between atoms: C_35  and  C_37
REMARK                            x       y       z     vdW  Elec       q    Type
REMARK                         _______ _______ _______ _____ _____    ______ ____
ROOT
ATOM      1  C   UNL     1      35.318 -17.054 -21.868  0.00  0.00    +0.122 C 
ATOM      2  C   UNL     1      34.465 -15.200 -23.191  0.00  0.00    +0.002 C 
ATOM      3  C   UNL     1      35.003 -16.494 -23.105  0.00  0.00    +0.020 C 
ATOM      4  C   UNL     1      34.244 -14.463 -22.002  0.00  0.00    +0.003 C 
ATOM      5  C   UNL     1      35.100 -16.330 -20.700  0.00  0.00    +0.020 C 
ATOM      6  C   UNL     1      34.566 -15.043 -20.765  0.00  0.00    +0.001 C 
ATOM      7  C   UNL     1      33.706 -13.169 -22.087  0.00  0.00    +0.037 C 
ATOM      8  C   UNL     1      34.143 -14.619 -24.428  0.00  0.00    +0.003 C 
ATOM      9  C   UNL     1      33.391 -12.608 -23.325  0.00  0.00    +0.139 C 
ATOM     10  C   UNL     1      33.609 -13.331 -24.494  0.00  0.00    +0.037 C 
ENDROOT
BRANCH   1  11
ATOM     11  S   UNL     1      35.994 -18.686 -21.783  0.00  0.00    +0.061 S 
ATOM     12  O   UNL     1      36.566 -19.001 -23.077  0.00  0.00    -0.153 OA
ATOM     13  O   UNL     1      36.816 -18.740 -20.589  0.00  0.00    -0.153 OA
BRANCH  11  14
ATOM     14  N   UNL     1      34.602 -19.628 -21.535  0.00  0.00    -0.170 NA
ATOM     15  H   UNL     1      34.480 -20.201 -22.371  0.00  0.00    +0.149 HD
BRANCH  14  16
ATOM     16  C   UNL     1      34.525 -20.543 -20.375  0.00  0.00    +0.174 C 
BRANCH  16  18
ATOM     17  O   UNL     1      32.128 -20.500 -20.782  0.00  0.00    -0.249 OA
ATOM     18  C   UNL     1      33.099 -21.024 -20.252  0.00  0.00    +0.330 C 
BRANCH  18  19
ATOM     19  O   UNL     1      33.000 -22.142 -19.487  0.00  0.00    -0.479 OA
ATOM     20  H   UNL     1      32.223 -22.664 -19.517  0.00  0.00    +0.295 HD
ENDBRANCH  18  19
ENDBRANCH  16  18
BRANCH  16  21
ATOM     21  C   UNL     1      35.567 -21.661 -20.504  0.00  0.00    +0.040 C 
BRANCH  21  22
ATOM     22  C   UNL     1      36.714 -21.643 -19.490  0.00  0.00    +0.111 C 
BRANCH  22  24
ATOM     23  O   UNL     1      35.366 -22.776 -17.836  0.00  0.00    -0.250 OA
ATOM     24  C   UNL     1      36.298 -22.023 -18.091  0.00  0.00    +0.314 C 
BRANCH  24  25
ATOM     25  O   UNL     1      37.056 -21.428 -17.136  0.00  0.00    -0.480 OA
ATOM     26  H   UNL     1      36.916 -21.635 -16.233  0.00  0.00    +0.295 HD
ENDBRANCH  24  25
ENDBRANCH  22  24
ENDBRANCH  21  22
ENDBRANCH  16  21
ENDBRANCH  14  16
ENDBRANCH  11  14
ENDBRANCH   1  11
BRANCH   9  27
ATOM     27  O   UNL     1      32.869 -11.353 -23.391  0.00  0.00    -0.471 OA
BRANCH  27  28
ATOM     28  C   UNL     1      33.779 -10.283 -23.639  0.00  0.00    +0.234 C 
BRANCH  28  30
ATOM     29  F   UNL     1      35.153  -7.848 -23.195  0.00  0.00    -0.204 F 
ATOM     30  C   UNL     1      33.077  -8.978 -23.407  0.00  0.00    +0.049 C 
ATOM     31  C   UNL     1      33.814  -7.813 -23.193  0.00  0.00    +0.140 C 
ATOM     32  C   UNL     1      31.682  -8.931 -23.404  0.00  0.00    +0.002 C 
ATOM     33  C   UNL     1      33.156  -6.602 -22.977  0.00  0.00    +0.040 C 
ATOM     34  C   UNL     1      31.025  -7.719 -23.187  0.00  0.00    +0.010 C 
ATOM     35  C   UNL     1      31.762  -6.555 -22.974  0.00  0.00    +0.071 C 
BRANCH  35  37
ATOM     36  N   UNL     1      30.544  -4.305 -22.576  0.00  0.00    -0.191 NA
ATOM     37  C   UNL     1      31.090  -5.313 -22.754  0.00  0.00    +0.100 C 
ENDBRANCH  35  37
ENDBRANCH  28  30
ENDBRANCH  27  28
ENDBRANCH   9  27
TORSDOF 13
ENDMDL
MODEL 8
REMARK VINA RESULT:      -9.8      5.068      9.010
REMARK  Name = 25058128
REMARK  13 active torsions:
REMARK  status: ('A' for Active; 'I' for Inactive)
REMARK    1  A    between atoms: C_1  and  S_11
REMARK    2  A    between atoms: C_9  and  O_27
REMARK    3  A    between atoms: S_11  and  N_14
REMARK    4  A    between atoms: N_14  and  C_16
REMARK    5  A    between atoms: C_16  and  C_18
REMARK    6  A    between atoms: C_16  and  C_21
REMARK    7  A    between atoms: C_18  and  O_19
REMARK    8  A    between atoms: C_21  and  C_22
REMARK    9  A    between atoms: C_22  and  C_24
REMARK   10  A    between atoms: C_24  and  O_25
REMARK   11  A    between atoms: O_27  and  C_28
REMARK   12  A    between atoms: C_28  and  C_30
REMARK   13  A    between atoms: C_35  and  C_37
REMARK                            x       y       z     vdW  Elec       q    Type
REMARK                         _______ _______ _______ _____ _____    ______ ____
ROOT
ATOM      1  C   UNL     1      35.094 -16.984 -22.711  0.00  0.00    +0.122 C 
ATOM      2  C   UNL     1      34.223 -15.096 -23.972  0.00  0.00    +0.002 C 
ATOM      3  C   UNL     1      34.629 -16.439 -23.907  0.00  0.00    +0.020 C 
ATOM      4  C   UNL     1      34.290 -14.296 -22.806  0.00  0.00    +0.003 C 
ATOM      5  C   UNL     1      35.159 -16.198 -21.565  0.00  0.00    +0.020 C 
ATOM      6  C   UNL     1      34.760 -14.862 -21.611  0.00  0.00    +0.001 C 
ATOM      7  C   UNL     1      33.884 -12.953 -22.870  0.00  0.00    +0.037 C 
ATOM      8  C   UNL     1      33.753 -14.528 -25.168  0.00  0.00    +0.003 C 
ATOM      9  C   UNL     1      33.419 -12.406 -24.067  0.00  0.00    +0.139 C 
ATOM     10  C   UNL     1      33.353 -13.192 -25.214  0.00  0.00    +0.037 C 
ENDROOT
BRANCH   1  11
ATOM     11  S   UNL     1      35.600 -18.678 -22.651  0.00  0.00    +0.061 S 
ATOM     12  O   UNL     1      34.848 -19.405 -23.654  0.00  0.00    -0.153 OA
ATOM     13  O   UNL     1      37.050 -18.686 -22.677  0.00  0.00    -0.153 OA
BRANCH  11  14
ATOM     14  N   UNL     1      35.076 -19.143 -21.103  0.00  0.00    -0.170 NA
ATOM     15  H   UNL     1      34.093 -18.878 -21.031  0.00  0.00    +0.149 HD
BRANCH  14  16
ATOM     16  C   UNL     1      35.166 -20.561 -20.687  0.00  0.00    +0.174 C 
BRANCH  16  18
ATOM     17  O   UNL     1      36.683 -21.711 -19.174  0.00  0.00    -0.249 OA
ATOM     18  C   UNL     1      36.407 -20.723 -19.844  0.00  0.00    +0.330 C 
BRANCH  18  19
ATOM     19  O   UNL     1      37.222 -19.639 -19.917  0.00  0.00    -0.479 OA
ATOM     20  H   UNL     1      37.096 -19.003 -20.594  0.00  0.00    +0.295 HD
ENDBRANCH  18  19
ENDBRANCH  16  18
BRANCH  16  21
ATOM     21  C   UNL     1      33.866 -21.003 -20.003  0.00  0.00    +0.040 C 
BRANCH  21  22
ATOM     22  C   UNL     1      33.721 -22.500 -19.720  0.00  0.00    +0.111 C 
BRANCH  22  24
ATOM     23  O   UNL     1      32.272 -22.805 -17.811  0.00  0.00    -0.250 OA
ATOM     24  C   UNL     1      33.403 -22.821 -18.281  0.00  0.00    +0.314 C 
BRANCH  24  25
ATOM     25  O   UNL     1      34.508 -23.114 -17.550  0.00  0.00    -0.480 OA
ATOM     26  H   UNL     1      34.650 -22.688 -16.727  0.00  0.00    +0.295 HD
ENDBRANCH  24  25
ENDBRANCH  22  24
ENDBRANCH  21  22
ENDBRANCH  16  21
ENDBRANCH  14  16
ENDBRANCH  11  14
ENDBRANCH   1  11
BRANCH   9  27
ATOM     27  O   UNL     1      33.027 -11.103 -24.113  0.00  0.00    -0.471 OA
BRANCH  27  28
ATOM     28  C   UNL     1      33.923 -10.136 -23.568  0.00  0.00    +0.234 C 
BRANCH  28  30
ATOM     29  F   UNL     1      35.239  -7.680 -23.070  0.00  0.00    -0.204 F 
ATOM     30  C   UNL     1      33.192  -8.840 -23.383  0.00  0.00    +0.049 C 
ATOM     31  C   UNL     1      33.900  -7.664 -23.139  0.00  0.00    +0.140 C 
ATOM     32  C   UNL     1      31.799  -8.813 -23.454  0.00  0.00    +0.002 C 
ATOM     33  C   UNL     1      33.216  -6.460 -22.966  0.00  0.00    +0.040 C 
ATOM     34  C   UNL     1      31.115  -7.609 -23.281  0.00  0.00    +0.010 C 
ATOM     35  C   UNL     1      31.823  -6.433 -23.037  0.00  0.00    +0.071 C 
BRANCH  35  37
ATOM     36  N   UNL     1      30.555  -4.198 -22.718  0.00  0.00    -0.191 NA
ATOM     37  C   UNL     1      31.123  -5.200 -22.861  0.00  0.00    +0.100 C 
ENDBRANCH  35  37
ENDBRANCH  28  30
ENDBRANCH  27  28
ENDBRANCH   9  27
TORSDOF 13
ENDMDL
MODEL 9
REMARK VINA RESULT:      -9.8      3.891     11.221
REMARK  Name = 25058128
REMARK  13 active torsions:
REMARK  status: ('A' for Active; 'I' for Inactive)
REMARK    1  A    between atoms: C_1  and  S_11
REMARK    2  A    between atoms: C_9  and  O_27
REMARK    3  A    between atoms: S_11  and  N_14
REMARK    4  A    between atoms: N_14  and  C_16
REMARK    5  A    between atoms: C_16  and  C_18
REMARK    6  A    between atoms: C_16  and  C_21
REMARK    7  A    between atoms: C_18  and  O_19
REMARK    8  A    between atoms: C_21  and  C_22
REMARK    9  A    between atoms: C_22  and  C_24
REMARK   10  A    between atoms: C_24  and  O_25
REMARK   11  A    between atoms: O_27  and  C_28
REMARK   12  A    between atoms: C_28  and  C_30
REMARK   13  A    between atoms: C_35  and  C_37
REMARK                            x       y       z     vdW  Elec       q    Type
REMARK                         _______ _______ _______ _____ _____    ______ ____
ROOT
ATOM      1  C   UNL     1      35.571 -19.603 -21.128  0.00  0.00    +0.122 C 
ATOM      2  C   UNL     1      34.262 -21.131 -19.761  0.00  0.00    +0.002 C 
ATOM      3  C   UNL     1      34.336 -20.092 -20.704  0.00  0.00    +0.020 C 
ATOM      4  C   UNL     1      35.459 -21.681 -19.243  0.00  0.00    +0.003 C 
ATOM      5  C   UNL     1      36.747 -20.144 -20.619  0.00  0.00    +0.020 C 
ATOM      6  C   UNL     1      36.694 -21.177 -19.682  0.00  0.00    +0.001 C 
ATOM      7  C   UNL     1      35.386 -22.720 -18.300  0.00  0.00    +0.037 C 
ATOM      8  C   UNL     1      33.028 -21.635 -19.320  0.00  0.00    +0.003 C 
ATOM      9  C   UNL     1      34.150 -23.209 -17.875  0.00  0.00    +0.139 C 
ATOM     10  C   UNL     1      32.974 -22.668 -18.383  0.00  0.00    +0.037 C 
ENDROOT
BRANCH   1  11
ATOM     11  S   UNL     1      35.642 -18.295 -22.316  0.00  0.00    +0.061 S 
ATOM     12  O   UNL     1      35.365 -17.050 -21.627  0.00  0.00    -0.153 OA
ATOM     13  O   UNL     1      36.879 -18.462 -23.055  0.00  0.00    -0.153 OA
BRANCH  11  14
ATOM     14  N   UNL     1      34.337 -18.678 -23.335  0.00  0.00    -0.170 NA
ATOM     15  H   UNL     1      33.488 -18.381 -22.853  0.00  0.00    +0.149 HD
BRANCH  14  16
ATOM     16  C   UNL     1      34.274 -18.111 -24.700  0.00  0.00    +0.174 C 
BRANCH  16  18
ATOM     17  O   UNL     1      32.378 -18.888 -26.010  0.00  0.00    -0.249 OA
ATOM     18  C   UNL     1      33.506 -19.075 -25.573  0.00  0.00    +0.330 C 
BRANCH  18  19
ATOM     19  O   UNL     1      34.222 -20.195 -25.850  0.00  0.00    -0.479 OA
ATOM     20  H   UNL     1      33.789 -20.960 -26.176  0.00  0.00    +0.295 HD
ENDBRANCH  18  19
ENDBRANCH  16  18
BRANCH  16  21
ATOM     21  C   UNL     1      33.701 -16.689 -24.664  0.00  0.00    +0.040 C 
BRANCH  21  22
ATOM     22  C   UNL     1      34.688 -15.565 -24.337  0.00  0.00    +0.111 C 
BRANCH  22  24
ATOM     23  O   UNL     1      33.042 -13.868 -23.839  0.00  0.00    -0.250 OA
ATOM     24  C   UNL     1      34.086 -14.436 -23.540  0.00  0.00    +0.314 C 
BRANCH  24  25
ATOM     25  O   UNL     1      34.832 -14.097 -22.459  0.00  0.00    -0.480 OA
ATOM     26  H   UNL     1      35.150 -14.765 -21.883  0.00  0.00    +0.295 HD
ENDBRANCH  24  25
ENDBRANCH  22  24
ENDBRANCH  21  22
ENDBRANCH  16  21
ENDBRANCH  14  16
ENDBRANCH  11  14
ENDBRANCH   1  11
BRANCH   9  27
ATOM     27  O   UNL     1      34.096 -24.217 -16.962  0.00  0.00    -0.471 OA
BRANCH  27  28
ATOM     28  C   UNL     1      34.446 -23.895 -15.617  0.00  0.00    +0.234 C 
BRANCH  28  30
ATOM     29  F   UNL     1      36.763 -22.293 -15.335  0.00  0.00    -0.204 F 
ATOM     30  C   UNL     1      35.800 -24.463 -15.313  0.00  0.00    +0.049 C 
ATOM     31  C   UNL     1      36.903 -23.618 -15.188  0.00  0.00    +0.140 C 
ATOM     32  C   UNL     1      35.956 -25.840 -15.156  0.00  0.00    +0.002 C 
ATOM     33  C   UNL     1      38.161 -24.151 -14.906  0.00  0.00    +0.040 C 
ATOM     34  C   UNL     1      37.215 -26.373 -14.874  0.00  0.00    +0.010 C 
ATOM     35  C   UNL     1      38.317 -25.528 -14.749  0.00  0.00    +0.071 C 
BRANCH  35  37
ATOM     36  N   UNL     1      40.653 -26.513 -14.223  0.00  0.00    -0.191 NA
ATOM     37  C   UNL     1      39.606 -26.072 -14.459  0.00  0.00    +0.100 C 
ENDBRANCH  35  37
ENDBRANCH  28  30
ENDBRANCH  27  28
ENDBRANCH   9  27
TORSDOF 13
ENDMDL
