MODEL 1
REMARK VINA RESULT:     -11.4      0.000      0.000
REMARK  Name = 16720766
REMARK  7 active torsions:
REMARK  status: ('A' for Active; 'I' for Inactive)
REMARK    1  A    between atoms: N_1  and  C_10
REMARK    2  A    between atoms: C_11  and  C_17
REMARK    3  A    between atoms: C_13  and  O_15
REMARK    4  A    between atoms: C_17  and  O_18
REMARK    5  A    between atoms: O_18  and  S_19
REMARK    6  A    between atoms: S_19  and  N_22
REMARK    7  A    between atoms: N_25  and  C_27
REMARK                            x       y       z     vdW  Elec       q    Type
REMARK                         _______ _______ _______ _____ _____    ______ ____
ROOT
ATOM      1  N   UNL     1      34.381 -21.785 -19.413  0.00  0.00    -0.276 N 
ATOM      2  N   UNL     1      36.599 -20.929 -19.821  0.00  0.00    -0.233 NA
ATOM      3  N   UNL     1      36.634 -19.117 -21.445  0.00  0.00    -0.233 NA
ATOM      4  C   UNL     1      35.269 -20.943 -20.026  0.00  0.00    +0.120 C 
ATOM      5  C   UNL     1      33.113 -21.518 -19.862  0.00  0.00    +0.062 C 
ATOM      6  C   UNL     1      34.555 -20.117 -20.886  0.00  0.00    +0.131 C 
ATOM      7  C   UNL     1      33.191 -20.488 -20.776  0.00  0.00    +0.004 C 
ATOM      8  C   UNL     1      35.283 -19.167 -21.621  0.00  0.00    +0.113 C 
ATOM      9  C   UNL     1      37.196 -19.984 -20.573  0.00  0.00    +0.252 C 
ATOM     10  N   UNL     1      34.655 -18.301 -22.502  0.00  0.00    -0.319 N 
ATOM     11  H   UNL     1      33.677 -18.367 -22.601  0.00  0.00    +0.148 HD
ENDROOT
BRANCH  10  12
ATOM     12  C   UNL     1      35.351 -17.307 -23.283  0.00  0.00    +0.093 C 
ATOM     13  C   UNL     1      35.144 -17.545 -24.790  0.00  0.00    +0.029 C 
ATOM     14  C   UNL     1      34.717 -15.959 -23.111  0.00  0.00    -0.008 C 
ATOM     15  C   UNL     1      33.882 -16.765 -25.197  0.00  0.00    +0.028 C 
ATOM     16  C   UNL     1      33.892 -15.650 -24.200  0.00  0.00    -0.025 C 
ATOM     17  C   UNL     1      34.850 -15.083 -22.045  0.00  0.00    -0.003 C 
ATOM     18  C   UNL     1      33.177 -14.465 -24.240  0.00  0.00    -0.005 C 
ATOM     19  C   UNL     1      34.142 -13.880 -22.085  0.00  0.00    -0.000 C 
ATOM     20  C   UNL     1      33.311 -13.574 -23.174  0.00  0.00    -0.000 C 
ENDBRANCH  10  12
BRANCH   1  21
ATOM     21  C   UNL     1      34.719 -22.815 -18.433  0.00  0.00    +0.081 C 
ATOM     22  C   UNL     1      33.766 -23.058 -16.194  0.00  0.00    +0.061 C 
ATOM     23  C   UNL     1      33.508 -23.392 -17.669  0.00  0.00    +0.025 C 
ATOM     24  C   UNL     1      35.292 -23.058 -16.088  0.00  0.00    +0.115 C 
ATOM     25  C   UNL     1      35.718 -22.334 -17.362  0.00  0.00    +0.049 C 
BRANCH  24  26
ATOM     26  O   UNL     1      35.801 -24.386 -16.094  0.00  0.00    -0.384 OA
ATOM     27  H   UNL     1      35.332 -24.909 -16.763  0.00  0.00    +0.210 HD
ENDBRANCH  24  26
BRANCH  22  28
ATOM     28  C   UNL     1      33.065 -24.018 -15.246  0.00  0.00    +0.176 C 
BRANCH  28  29
ATOM     29  O   UNL     1      31.690 -24.074 -15.587  0.00  0.00    -0.230 OA
BRANCH  29  30
ATOM     30  S   UNL     1      30.554 -24.003 -14.411  0.00  0.00    +0.045 S 
ATOM     31  O   UNL     1      31.222 -23.818 -13.135  0.00  0.00    -0.056 OA
ATOM     32  O   UNL     1      29.540 -23.058 -14.844  0.00  0.00    -0.056 OA
BRANCH  30  33
ATOM     33  N   UNL     1      29.846 -25.564 -14.420  0.00  0.00    -0.204 NA
ATOM     34  H   UNL     1      30.060 -26.039 -13.543  0.00  0.00    +0.144 HD
ATOM     35  H   UNL     1      30.223 -26.104 -15.199  0.00  0.00    +0.144 HD
ENDBRANCH  30  33
ENDBRANCH  29  30
ENDBRANCH  28  29
ENDBRANCH  22  28
ENDBRANCH   1  21
TORSDOF 7
ENDMDL
MODEL 2
REMARK VINA RESULT:     -11.3      1.815      2.069
REMARK  Name = 16720766
REMARK  7 active torsions:
REMARK  status: ('A' for Active; 'I' for Inactive)
REMARK    1  A    between atoms: N_1  and  C_10
REMARK    2  A    between atoms: C_11  and  C_17
REMARK    3  A    between atoms: C_13  and  O_15
REMARK    4  A    between atoms: C_17  and  O_18
REMARK    5  A    between atoms: O_18  and  S_19
REMARK    6  A    between atoms: S_19  and  N_22
REMARK    7  A    between atoms: N_25  and  C_27
REMARK                            x       y       z     vdW  Elec       q    Type
REMARK                         _______ _______ _______ _____ _____    ______ ____
ROOT
ATOM      1  N   UNL     1      34.845 -21.481 -19.696  0.00  0.00    -0.276 N 
ATOM      2  N   UNL     1      36.965 -20.463 -20.227  0.00  0.00    -0.233 NA
ATOM      3  N   UNL     1      36.778 -18.689 -21.884  0.00  0.00    -0.233 NA
ATOM      4  C   UNL     1      35.632 -20.585 -20.366  0.00  0.00    +0.120 C 
ATOM      5  C   UNL     1      33.539 -21.324 -20.087  0.00  0.00    +0.062 C 
ATOM      6  C   UNL     1      34.814 -19.837 -21.205  0.00  0.00    +0.131 C 
ATOM      7  C   UNL     1      33.491 -20.312 -21.021  0.00  0.00    +0.004 C 
ATOM      8  C   UNL     1      35.428 -18.849 -21.992  0.00  0.00    +0.113 C 
ATOM      9  C   UNL     1      37.448 -19.490 -21.025  0.00  0.00    +0.252 C 
ATOM     10  N   UNL     1      34.692 -18.054 -22.857  0.00  0.00    -0.319 N 
ATOM     11  H   UNL     1      33.719 -18.199 -22.906  0.00  0.00    +0.148 HD
ENDROOT
BRANCH  10  12
ATOM     12  C   UNL     1      35.269 -17.026 -23.688  0.00  0.00    +0.093 C 
ATOM     13  C   UNL     1      34.929 -17.261 -25.172  0.00  0.00    +0.029 C 
ATOM     14  C   UNL     1      34.599 -15.707 -23.442  0.00  0.00    -0.008 C 
ATOM     15  C   UNL     1      33.603 -16.532 -25.448  0.00  0.00    +0.028 C 
ATOM     16  C   UNL     1      33.662 -15.425 -24.443  0.00  0.00    -0.025 C 
ATOM     17  C   UNL     1      34.797 -14.835 -22.383  0.00  0.00    -0.003 C 
ATOM     18  C   UNL     1      32.898 -14.271 -24.402  0.00  0.00    -0.005 C 
ATOM     19  C   UNL     1      34.040 -13.663 -22.341  0.00  0.00    -0.000 C 
ATOM     20  C   UNL     1      33.096 -13.383 -23.342  0.00  0.00    -0.000 C 
ENDBRANCH  10  12
BRANCH   1  21
ATOM     21  C   UNL     1      35.309 -22.459 -18.716  0.00  0.00    +0.081 C 
ATOM     22  C   UNL     1      34.378 -22.838 -16.486  0.00  0.00    +0.061 C 
ATOM     23  C   UNL     1      34.181 -23.198 -17.964  0.00  0.00    +0.025 C 
ATOM     24  C   UNL     1      35.889 -22.632 -16.366  0.00  0.00    +0.115 C 
ATOM     25  C   UNL     1      36.225 -21.852 -17.634  0.00  0.00    +0.049 C 
BRANCH  24  26
ATOM     26  O   UNL     1      36.573 -23.878 -16.370  0.00  0.00    -0.384 OA
ATOM     27  H   UNL     1      37.435 -23.772 -16.805  0.00  0.00    +0.210 HD
ENDBRANCH  24  26
BRANCH  22  28
ATOM     28  C   UNL     1      33.804 -23.888 -15.547  0.00  0.00    +0.176 C 
BRANCH  28  29
ATOM     29  O   UNL     1      34.061 -23.492 -14.210  0.00  0.00    -0.230 OA
BRANCH  29  30
ATOM     30  S   UNL     1      35.145 -24.322 -13.308  0.00  0.00    +0.045 S 
ATOM     31  O   UNL     1      36.354 -23.525 -13.190  0.00  0.00    -0.056 OA
ATOM     32  O   UNL     1      34.457 -24.778 -12.113  0.00  0.00    -0.056 OA
BRANCH  30  33
ATOM     33  N   UNL     1      35.508 -25.702 -14.257  0.00  0.00    -0.204 NA
ATOM     34  H   UNL     1      35.704 -25.414 -15.215  0.00  0.00    +0.144 HD
ATOM     35  H   UNL     1      34.712 -26.339 -14.250  0.00  0.00    +0.144 HD
ENDBRANCH  30  33
ENDBRANCH  29  30
ENDBRANCH  28  29
ENDBRANCH  22  28
ENDBRANCH   1  21
TORSDOF 7
ENDMDL
MODEL 3
REMARK VINA RESULT:     -10.1      6.684     10.538
REMARK  Name = 16720766
REMARK  7 active torsions:
REMARK  status: ('A' for Active; 'I' for Inactive)
REMARK    1  A    between atoms: N_1  and  C_10
REMARK    2  A    between atoms: C_11  and  C_17
REMARK    3  A    between atoms: C_13  and  O_15
REMARK    4  A    between atoms: C_17  and  O_18
REMARK    5  A    between atoms: O_18  and  S_19
REMARK    6  A    between atoms: S_19  and  N_22
REMARK    7  A    between atoms: N_25  and  C_27
REMARK                            x       y       z     vdW  Elec       q    Type
REMARK                         _______ _______ _______ _____ _____    ______ ____
ROOT
ATOM      1  N   UNL     1      34.826 -15.787 -22.562  0.00  0.00    -0.276 N 
ATOM      2  N   UNL     1      34.927 -17.704 -24.021  0.00  0.00    -0.233 NA
ATOM      3  N   UNL     1      35.246 -19.796 -22.819  0.00  0.00    -0.233 NA
ATOM      4  C   UNL     1      34.954 -17.127 -22.806  0.00  0.00    +0.120 C 
ATOM      5  C   UNL     1      34.903 -15.559 -21.211  0.00  0.00    +0.062 C 
ATOM      6  C   UNL     1      35.117 -17.773 -21.586  0.00  0.00    +0.131 C 
ATOM      7  C   UNL     1      35.082 -16.772 -20.582  0.00  0.00    +0.004 C 
ATOM      8  C   UNL     1      35.268 -19.169 -21.609  0.00  0.00    +0.113 C 
ATOM      9  C   UNL     1      35.080 -19.040 -23.928  0.00  0.00    +0.252 C 
ATOM     10  N   UNL     1      35.433 -19.897 -20.441  0.00  0.00    -0.319 N 
ATOM     11  H   UNL     1      35.443 -19.408 -19.587  0.00  0.00    +0.148 HD
ENDROOT
BRANCH  10  12
ATOM     12  C   UNL     1      35.593 -21.331 -20.406  0.00  0.00    +0.093 C 
ATOM     13  C   UNL     1      37.005 -21.716 -19.929  0.00  0.00    +0.029 C 
ATOM     14  C   UNL     1      34.746 -21.931 -19.325  0.00  0.00    -0.008 C 
ATOM     15  C   UNL     1      36.943 -21.835 -18.396  0.00  0.00    +0.028 C 
ATOM     16  C   UNL     1      35.514 -22.224 -18.190  0.00  0.00    -0.025 C 
ATOM     17  C   UNL     1      33.382 -22.175 -19.346  0.00  0.00    -0.003 C 
ATOM     18  C   UNL     1      34.932 -22.757 -17.053  0.00  0.00    -0.005 C 
ATOM     19  C   UNL     1      32.790 -22.725 -18.207  0.00  0.00    -0.000 C 
ATOM     20  C   UNL     1      33.559 -23.013 -17.068  0.00  0.00    -0.000 C 
ENDBRANCH  10  12
BRANCH   1  21
ATOM     21  C   UNL     1      34.638 -14.749 -23.573  0.00  0.00    +0.081 C 
ATOM     22  C   UNL     1      33.156 -12.811 -23.408  0.00  0.00    +0.061 C 
ATOM     23  C   UNL     1      34.549 -13.315 -23.009  0.00  0.00    +0.025 C 
ATOM     24  C   UNL     1      32.872 -13.545 -24.720  0.00  0.00    +0.115 C 
ATOM     25  C   UNL     1      33.375 -14.956 -24.433  0.00  0.00    +0.049 C 
BRANCH  24  26
ATOM     26  O   UNL     1      33.615 -12.976 -25.791  0.00  0.00    -0.384 OA
ATOM     27  H   UNL     1      33.962 -12.111 -25.520  0.00  0.00    +0.210 HD
ENDBRANCH  24  26
BRANCH  22  28
ATOM     28  C   UNL     1      33.087 -11.294 -23.503  0.00  0.00    +0.176 C 
BRANCH  28  29
ATOM     29  O   UNL     1      32.286 -10.807 -22.440  0.00  0.00    -0.230 OA
BRANCH  29  30
ATOM     30  S   UNL     1      32.198  -9.198 -22.156  0.00  0.00    +0.045 S 
ATOM     31  O   UNL     1      31.083  -8.656 -22.911  0.00  0.00    -0.056 OA
ATOM     32  O   UNL     1      32.263  -9.007 -20.718  0.00  0.00    -0.056 OA
BRANCH  30  33
ATOM     33  N   UNL     1      33.648  -8.576 -22.828  0.00  0.00    -0.204 NA
ATOM     34  H   UNL     1      33.673  -7.564 -22.705  0.00  0.00    +0.144 HD
ATOM     35  H   UNL     1      33.684  -8.799 -23.822  0.00  0.00    +0.144 HD
ENDBRANCH  30  33
ENDBRANCH  29  30
ENDBRANCH  28  29
ENDBRANCH  22  28
ENDBRANCH   1  21
TORSDOF 7
ENDMDL
MODEL 4
REMARK VINA RESULT:      -9.8      6.079      9.799
REMARK  Name = 16720766
REMARK  7 active torsions:
REMARK  status: ('A' for Active; 'I' for Inactive)
REMARK    1  A    between atoms: N_1  and  C_10
REMARK    2  A    between atoms: C_11  and  C_17
REMARK    3  A    between atoms: C_13  and  O_15
REMARK    4  A    between atoms: C_17  and  O_18
REMARK    5  A    between atoms: O_18  and  S_19
REMARK    6  A    between atoms: S_19  and  N_22
REMARK    7  A    between atoms: N_25  and  C_27
REMARK                            x       y       z     vdW  Elec       q    Type
REMARK                         _______ _______ _______ _____ _____    ______ ____
ROOT
ATOM      1  N   UNL     1      33.421 -13.932 -24.938  0.00  0.00    -0.276 N 
ATOM      2  N   UNL     1      32.722 -13.340 -22.708  0.00  0.00    -0.233 NA
ATOM      3  N   UNL     1      32.971 -10.965 -22.233  0.00  0.00    -0.233 NA
ATOM      4  C   UNL     1      33.213 -13.038 -23.923  0.00  0.00    +0.120 C 
ATOM      5  C   UNL     1      33.931 -13.275 -26.029  0.00  0.00    +0.062 C 
ATOM      6  C   UNL     1      33.598 -11.781 -24.372  0.00  0.00    +0.131 C 
ATOM      7  C   UNL     1      34.051 -11.940 -25.707  0.00  0.00    +0.004 C 
ATOM      8  C   UNL     1      33.465 -10.706 -23.477  0.00  0.00    +0.113 C 
ATOM      9  C   UNL     1      32.637 -12.241 -21.932  0.00  0.00    +0.252 C 
ATOM     10  N   UNL     1      33.822  -9.417 -23.838  0.00  0.00    -0.319 N 
ATOM     11  H   UNL     1      34.175  -9.270 -24.746  0.00  0.00    +0.148 HD
ENDROOT
BRANCH  10  12
ATOM     12  C   UNL     1      33.707  -8.277 -22.961  0.00  0.00    +0.093 C 
ATOM     13  C   UNL     1      34.952  -7.377 -23.061  0.00  0.00    +0.029 C 
ATOM     14  C   UNL     1      32.635  -7.346 -23.440  0.00  0.00    -0.008 C 
ATOM     15  C   UNL     1      34.678  -6.356 -24.179  0.00  0.00    +0.028 C 
ATOM     16  C   UNL     1      33.186  -6.254 -24.123  0.00  0.00    -0.025 C 
ATOM     17  C   UNL     1      31.263  -7.479 -23.297  0.00  0.00    -0.003 C 
ATOM     18  C   UNL     1      32.378  -5.280 -24.683  0.00  0.00    -0.005 C 
ATOM     19  C   UNL     1      30.441  -6.494 -23.849  0.00  0.00    -0.000 C 
ATOM     20  C   UNL     1      30.994  -5.402 -24.537  0.00  0.00    -0.000 C 
ENDBRANCH  10  12
BRANCH   1  21
ATOM     21  C   UNL     1      33.149 -15.366 -24.881  0.00  0.00    +0.081 C 
ATOM     22  C   UNL     1      34.806 -17.154 -24.686  0.00  0.00    +0.061 C 
ATOM     23  C   UNL     1      34.006 -16.141 -23.857  0.00  0.00    +0.025 C 
ATOM     24  C   UNL     1      33.884 -17.457 -25.868  0.00  0.00    +0.115 C 
ATOM     25  C   UNL     1      33.342 -16.079 -26.235  0.00  0.00    +0.049 C 
BRANCH  24  26
ATOM     26  O   UNL     1      32.815 -18.307 -25.474  0.00  0.00    -0.384 OA
ATOM     27  H   UNL     1      32.331 -18.604 -26.262  0.00  0.00    +0.210 HD
ENDBRANCH  24  26
BRANCH  22  28
ATOM     28  C   UNL     1      35.220 -18.374 -23.877  0.00  0.00    +0.176 C 
BRANCH  28  29
ATOM     29  O   UNL     1      36.031 -17.949 -22.795  0.00  0.00    -0.230 OA
BRANCH  29  30
ATOM     30  S   UNL     1      35.626 -18.357 -21.262  0.00  0.00    +0.045 S 
ATOM     31  O   UNL     1      35.353 -17.140 -20.518  0.00  0.00    -0.056 OA
ATOM     32  O   UNL     1      34.619 -19.400 -21.343  0.00  0.00    -0.056 OA
BRANCH  30  33
ATOM     33  N   UNL     1      37.053 -19.061 -20.626  0.00  0.00    -0.204 NA
ATOM     34  H   UNL     1      37.506 -19.622 -21.348  0.00  0.00    +0.144 HD
ATOM     35  H   UNL     1      36.814 -19.657 -19.834  0.00  0.00    +0.144 HD
ENDBRANCH  30  33
ENDBRANCH  29  30
ENDBRANCH  28  29
ENDBRANCH  22  28
ENDBRANCH   1  21
TORSDOF 7
ENDMDL
MODEL 5
REMARK VINA RESULT:      -9.8      8.446     12.126
REMARK  Name = 16720766
REMARK  7 active torsions:
REMARK  status: ('A' for Active; 'I' for Inactive)
REMARK    1  A    between atoms: N_1  and  C_10
REMARK    2  A    between atoms: C_11  and  C_17
REMARK    3  A    between atoms: C_13  and  O_15
REMARK    4  A    between atoms: C_17  and  O_18
REMARK    5  A    between atoms: O_18  and  S_19
REMARK    6  A    between atoms: S_19  and  N_22
REMARK    7  A    between atoms: N_25  and  C_27
REMARK                            x       y       z     vdW  Elec       q    Type
REMARK                         _______ _______ _______ _____ _____    ______ ____
ROOT
ATOM      1  N   UNL     1      33.621 -12.944 -22.823  0.00  0.00    -0.276 N 
ATOM      2  N   UNL     1      33.490 -14.399 -24.741  0.00  0.00    -0.233 NA
ATOM      3  N   UNL     1      34.383 -16.621 -24.310  0.00  0.00    -0.233 NA
ATOM      4  C   UNL     1      33.817 -14.138 -23.463  0.00  0.00    +0.120 C 
ATOM      5  C   UNL     1      34.075 -13.037 -21.531  0.00  0.00    +0.062 C 
ATOM      6  C   UNL     1      34.409 -15.015 -22.563  0.00  0.00    +0.131 C 
ATOM      7  C   UNL     1      34.568 -14.311 -21.342  0.00  0.00    +0.004 C 
ATOM      8  C   UNL     1      34.698 -16.311 -23.021  0.00  0.00    +0.113 C 
ATOM      9  C   UNL     1      33.810 -15.664 -25.075  0.00  0.00    +0.252 C 
ATOM     10  N   UNL     1      35.287 -17.255 -22.193  0.00  0.00    -0.319 N 
ATOM     11  H   UNL     1      35.499 -16.994 -21.268  0.00  0.00    +0.148 HD
ENDROOT
BRANCH  10  12
ATOM     12  C   UNL     1      35.606 -18.599 -22.610  0.00  0.00    +0.093 C 
ATOM     13  C   UNL     1      37.114 -18.878 -22.461  0.00  0.00    +0.029 C 
ATOM     14  C   UNL     1      35.029 -19.601 -21.656  0.00  0.00    -0.008 C 
ATOM     15  C   UNL     1      37.329 -19.427 -21.040  0.00  0.00    +0.028 C 
ATOM     16  C   UNL     1      36.007 -20.075 -20.773  0.00  0.00    -0.025 C 
ATOM     17  C   UNL     1      33.717 -20.038 -21.569  0.00  0.00    -0.003 C 
ATOM     18  C   UNL     1      35.691 -20.987 -19.781  0.00  0.00    -0.005 C 
ATOM     19  C   UNL     1      33.393 -20.967 -20.579  0.00  0.00    -0.000 C 
ATOM     20  C   UNL     1      34.373 -21.438 -19.690  0.00  0.00    -0.000 C 
ENDBRANCH  10  12
BRANCH   1  21
ATOM     21  C   UNL     1      33.025 -11.747 -23.412  0.00  0.00    +0.081 C 
ATOM     22  C   UNL     1      33.840  -9.453 -23.180  0.00  0.00    +0.061 C 
ATOM     23  C   UNL     1      34.045 -10.740 -23.987  0.00  0.00    +0.025 C 
ATOM     24  C   UNL     1      32.355  -9.494 -22.811  0.00  0.00    +0.115 C 
ATOM     25  C   UNL     1      32.144 -10.955 -22.425  0.00  0.00    +0.049 C 
BRANCH  24  26
ATOM     26  O   UNL     1      31.544  -9.169 -23.933  0.00  0.00    -0.384 OA
ATOM     27  H   UNL     1      31.673  -8.236 -24.166  0.00  0.00    +0.210 HD
ENDBRANCH  24  26
BRANCH  22  28
ATOM     28  C   UNL     1      34.269  -8.209 -23.943  0.00  0.00    +0.176 C 
BRANCH  28  29
ATOM     29  O   UNL     1      33.789  -7.065 -23.257  0.00  0.00    -0.230 OA
BRANCH  29  30
ATOM     30  S   UNL     1      32.962  -5.912 -24.072  0.00  0.00    +0.045 S 
ATOM     31  O   UNL     1      33.903  -5.147 -24.872  0.00  0.00    -0.056 OA
ATOM     32  O   UNL     1      31.828  -6.559 -24.707  0.00  0.00    -0.056 OA
BRANCH  30  33
ATOM     33  N   UNL     1      32.352  -4.886 -22.841  0.00  0.00    -0.204 NA
ATOM     34  H   UNL     1      32.143  -3.969 -23.236  0.00  0.00    +0.144 HD
ATOM     35  H   UNL     1      33.050  -4.788 -22.105  0.00  0.00    +0.144 HD
ENDBRANCH  30  33
ENDBRANCH  29  30
ENDBRANCH  28  29
ENDBRANCH  22  28
ENDBRANCH   1  21
TORSDOF 7
ENDMDL
MODEL 6
REMARK VINA RESULT:      -9.8      5.344      9.895
REMARK  Name = 16720766
REMARK  7 active torsions:
REMARK  status: ('A' for Active; 'I' for Inactive)
REMARK    1  A    between atoms: N_1  and  C_10
REMARK    2  A    between atoms: C_11  and  C_17
REMARK    3  A    between atoms: C_13  and  O_15
REMARK    4  A    between atoms: C_17  and  O_18
REMARK    5  A    between atoms: O_18  and  S_19
REMARK    6  A    between atoms: S_19  and  N_22
REMARK    7  A    between atoms: N_25  and  C_27
REMARK                            x       y       z     vdW  Elec       q    Type
REMARK                         _______ _______ _______ _____ _____    ______ ____
ROOT
ATOM      1  N   UNL     1      34.330 -20.094 -20.962  0.00  0.00    -0.276 N 
ATOM      2  N   UNL     1      36.167 -21.021 -19.704  0.00  0.00    -0.233 NA
ATOM      3  N   UNL     1      35.460 -22.699 -18.089  0.00  0.00    -0.233 NA
ATOM      4  C   UNL     1      34.861 -20.928 -20.015  0.00  0.00    +0.120 C 
ATOM      5  C   UNL     1      32.970 -20.264 -21.009  0.00  0.00    +0.062 C 
ATOM      6  C   UNL     1      33.819 -21.647 -19.443  0.00  0.00    +0.131 C 
ATOM      7  C   UNL     1      32.625 -21.221 -20.079  0.00  0.00    +0.004 C 
ATOM      8  C   UNL     1      34.148 -22.571 -18.437  0.00  0.00    +0.113 C 
ATOM      9  C   UNL     1      36.369 -21.932 -18.731  0.00  0.00    +0.252 C 
ATOM     10  N   UNL     1      33.176 -23.334 -17.811  0.00  0.00    -0.319 N 
ATOM     11  H   UNL     1      32.239 -23.213 -18.091  0.00  0.00    +0.148 HD
ENDROOT
BRANCH  10  12
ATOM     12  C   UNL     1      33.456 -24.296 -16.773  0.00  0.00    +0.093 C 
ATOM     13  C   UNL     1      34.717 -23.901 -15.982  0.00  0.00    +0.029 C 
ATOM     14  C   UNL     1      32.410 -24.238 -15.700  0.00  0.00    -0.008 C 
ATOM     15  C   UNL     1      34.254 -23.005 -14.820  0.00  0.00    +0.028 C 
ATOM     16  C   UNL     1      32.866 -23.513 -14.592  0.00  0.00    -0.025 C 
ATOM     17  C   UNL     1      31.132 -24.774 -15.725  0.00  0.00    -0.003 C 
ATOM     18  C   UNL     1      32.053 -23.303 -13.492  0.00  0.00    -0.005 C 
ATOM     19  C   UNL     1      30.310 -24.577 -14.614  0.00  0.00    -0.000 C 
ATOM     20  C   UNL     1      30.766 -23.846 -13.506  0.00  0.00    -0.000 C 
ENDBRANCH  10  12
BRANCH   1  21
ATOM     21  C   UNL     1      35.083 -19.162 -21.797  0.00  0.00    +0.081 C 
ATOM     22  C   UNL     1      34.590 -16.791 -22.138  0.00  0.00    +0.061 C 
ATOM     23  C   UNL     1      35.284 -17.763 -21.176  0.00  0.00    +0.025 C 
ATOM     24  C   UNL     1      34.738 -17.469 -23.501  0.00  0.00    +0.115 C 
ATOM     25  C   UNL     1      34.447 -18.933 -23.183  0.00  0.00    +0.049 C 
BRANCH  24  26
ATOM     26  O   UNL     1      36.066 -17.338 -23.992  0.00  0.00    -0.384 OA
ATOM     27  H   UNL     1      36.475 -16.544 -23.611  0.00  0.00    +0.210 HD
ENDBRANCH  24  26
BRANCH  22  28
ATOM     28  C   UNL     1      35.166 -15.385 -22.064  0.00  0.00    +0.176 C 
BRANCH  28  29
ATOM     29  O   UNL     1      34.944 -14.736 -23.305  0.00  0.00    -0.230 OA
BRANCH  29  30
ATOM     30  S   UNL     1      33.613 -13.806 -23.512  0.00  0.00    +0.045 S 
ATOM     31  O   UNL     1      32.896 -14.281 -24.682  0.00  0.00    -0.056 OA
ATOM     32  O   UNL     1      32.937 -13.724 -22.230  0.00  0.00    -0.056 OA
BRANCH  30  33
ATOM     33  N   UNL     1      34.242 -12.251 -23.867  0.00  0.00    -0.204 NA
ATOM     34  H   UNL     1      35.219 -12.336 -24.146  0.00  0.00    +0.144 HD
ATOM     35  H   UNL     1      34.175 -11.660 -23.039  0.00  0.00    +0.144 HD
ENDBRANCH  30  33
ENDBRANCH  29  30
ENDBRANCH  28  29
ENDBRANCH  22  28
ENDBRANCH   1  21
TORSDOF 7
ENDMDL
MODEL 7
REMARK VINA RESULT:      -9.4      2.597      3.352
REMARK  Name = 16720766
REMARK  7 active torsions:
REMARK  status: ('A' for Active; 'I' for Inactive)
REMARK    1  A    between atoms: N_1  and  C_10
REMARK    2  A    between atoms: C_11  and  C_17
REMARK    3  A    between atoms: C_13  and  O_15
REMARK    4  A    between atoms: C_17  and  O_18
REMARK    5  A    between atoms: O_18  and  S_19
REMARK    6  A    between atoms: S_19  and  N_22
REMARK    7  A    between atoms: N_25  and  C_27
REMARK                            x       y       z     vdW  Elec       q    Type
REMARK                         _______ _______ _______ _____ _____    ______ ____
ROOT
ATOM      1  N   UNL     1      33.995 -22.443 -17.927  0.00  0.00    -0.276 N 
ATOM      2  N   UNL     1      36.305 -21.996 -18.454  0.00  0.00    -0.233 NA
ATOM      3  N   UNL     1      36.584 -20.778 -20.543  0.00  0.00    -0.233 NA
ATOM      4  C   UNL     1      34.987 -21.927 -18.716  0.00  0.00    +0.120 C 
ATOM      5  C   UNL     1      32.776 -22.190 -18.502  0.00  0.00    +0.062 C 
ATOM      6  C   UNL     1      34.392 -21.331 -19.821  0.00  0.00    +0.131 C 
ATOM      7  C   UNL     1      32.991 -21.501 -19.677  0.00  0.00    +0.004 C 
ATOM      8  C   UNL     1      35.240 -20.734 -20.768  0.00  0.00    +0.113 C 
ATOM      9  C   UNL     1      37.024 -21.394 -19.423  0.00  0.00    +0.252 C 
ATOM     10  N   UNL     1      34.735 -20.113 -21.900  0.00  0.00    -0.319 N 
ATOM     11  H   UNL     1      33.759 -20.101 -22.026  0.00  0.00    +0.148 HD
ENDROOT
BRANCH  10  12
ATOM     12  C   UNL     1      35.559 -19.485 -22.904  0.00  0.00    +0.093 C 
ATOM     13  C   UNL     1      35.216 -20.015 -24.309  0.00  0.00    +0.029 C 
ATOM     14  C   UNL     1      35.206 -18.035 -23.047  0.00  0.00    -0.008 C 
ATOM     15  C   UNL     1      34.103 -19.112 -24.869  0.00  0.00    +0.028 C 
ATOM     16  C   UNL     1      34.389 -17.824 -24.164  0.00  0.00    -0.025 C 
ATOM     17  C   UNL     1      35.571 -16.984 -22.221  0.00  0.00    -0.003 C 
ATOM     18  C   UNL     1      33.913 -16.561 -24.473  0.00  0.00    -0.005 C 
ATOM     19  C   UNL     1      35.105 -15.705 -22.532  0.00  0.00    -0.000 C 
ATOM     20  C   UNL     1      34.281 -15.495 -23.650  0.00  0.00    -0.000 C 
ENDBRANCH  10  12
BRANCH   1  21
ATOM     21  C   UNL     1      34.190 -23.156 -16.667  0.00  0.00    +0.081 C 
ATOM     22  C   UNL     1      36.332 -23.813 -15.685  0.00  0.00    +0.061 C 
ATOM     23  C   UNL     1      35.361 -22.631 -15.809  0.00  0.00    +0.025 C 
ATOM     24  C   UNL     1      35.415 -25.036 -15.745  0.00  0.00    +0.115 C 
ATOM     25  C   UNL     1      34.432 -24.668 -16.852  0.00  0.00    +0.049 C 
BRANCH  24  26
ATOM     26  O   UNL     1      34.718 -25.208 -14.518  0.00  0.00    -0.384 OA
ATOM     27  H   UNL     1      34.829 -26.121 -14.208  0.00  0.00    +0.210 HD
ENDBRANCH  24  26
BRANCH  22  28
ATOM     28  C   UNL     1      37.198 -23.730 -14.438  0.00  0.00    +0.176 C 
BRANCH  28  29
ATOM     29  O   UNL     1      36.416 -23.216 -13.373  0.00  0.00    -0.230 OA
BRANCH  29  30
ATOM     30  S   UNL     1      36.268 -24.069 -11.984  0.00  0.00    +0.045 S 
ATOM     31  O   UNL     1      34.882 -24.012 -11.554  0.00  0.00    -0.056 OA
ATOM     32  O   UNL     1      36.911 -25.353 -12.194  0.00  0.00    -0.056 OA
BRANCH  30  33
ATOM     33  N   UNL     1      37.213 -23.193 -10.854  0.00  0.00    -0.204 NA
ATOM     34  H   UNL     1      36.810 -22.266 -10.720  0.00  0.00    +0.144 HD
ATOM     35  H   UNL     1      38.166 -23.101 -11.206  0.00  0.00    +0.144 HD
ENDBRANCH  30  33
ENDBRANCH  29  30
ENDBRANCH  28  29
ENDBRANCH  22  28
ENDBRANCH   1  21
TORSDOF 7
ENDMDL
MODEL 8
REMARK VINA RESULT:      -9.2      5.344     10.434
REMARK  Name = 16720766
REMARK  7 active torsions:
REMARK  status: ('A' for Active; 'I' for Inactive)
REMARK    1  A    between atoms: N_1  and  C_10
REMARK    2  A    between atoms: C_11  and  C_17
REMARK    3  A    between atoms: C_13  and  O_15
REMARK    4  A    between atoms: C_17  and  O_18
REMARK    5  A    between atoms: O_18  and  S_19
REMARK    6  A    between atoms: S_19  and  N_22
REMARK    7  A    between atoms: N_25  and  C_27
REMARK                            x       y       z     vdW  Elec       q    Type
REMARK                         _______ _______ _______ _____ _____    ______ ____
ROOT
ATOM      1  N   UNL     1      35.538 -21.408 -19.890  0.00  0.00    -0.276 N 
ATOM      2  N   UNL     1      33.617 -22.651 -19.128  0.00  0.00    -0.233 NA
ATOM      3  N   UNL     1      33.965 -23.703 -16.961  0.00  0.00    -0.233 NA
ATOM      4  C   UNL     1      34.874 -22.192 -18.986  0.00  0.00    +0.120 C 
ATOM      5  C   UNL     1      36.796 -21.132 -19.418  0.00  0.00    +0.062 C 
ATOM      6  C   UNL     1      35.725 -22.425 -17.912  0.00  0.00    +0.131 C 
ATOM      7  C   UNL     1      36.939 -21.750 -18.194  0.00  0.00    +0.004 C 
ATOM      8  C   UNL     1      35.235 -23.216 -16.860  0.00  0.00    +0.113 C 
ATOM      9  C   UNL     1      33.250 -23.396 -18.067  0.00  0.00    +0.252 C 
ATOM     10  N   UNL     1      36.011 -23.500 -15.747  0.00  0.00    -0.319 N 
ATOM     11  H   UNL     1      36.923 -23.130 -15.711  0.00  0.00    +0.148 HD
ENDROOT
BRANCH  10  12
ATOM     12  C   UNL     1      35.560 -24.307 -14.640  0.00  0.00    +0.093 C 
ATOM     13  C   UNL     1      35.591 -25.804 -14.999  0.00  0.00    +0.029 C 
ATOM     14  C   UNL     1      36.547 -24.258 -13.513  0.00  0.00    -0.008 C 
ATOM     15  C   UNL     1      36.987 -26.327 -14.619  0.00  0.00    +0.028 C 
ATOM     16  C   UNL     1      37.349 -25.406 -13.497  0.00  0.00    -0.025 C 
ATOM     17  C   UNL     1      36.731 -23.247 -12.583  0.00  0.00    -0.003 C 
ATOM     18  C   UNL     1      38.355 -25.562 -12.559  0.00  0.00    -0.005 C 
ATOM     19  C   UNL     1      37.736 -23.402 -11.625  0.00  0.00    -0.000 C 
ATOM     20  C   UNL     1      38.543 -24.551 -11.614  0.00  0.00    -0.000 C 
ENDBRANCH  10  12
BRANCH   1  21
ATOM     21  C   UNL     1      35.003 -20.932 -21.163  0.00  0.00    +0.081 C 
ATOM     22  C   UNL     1      35.175 -18.661 -22.055  0.00  0.00    +0.061 C 
ATOM     23  C   UNL     1      35.942 -19.985 -21.939  0.00  0.00    +0.025 C 
ATOM     24  C   UNL     1      33.710 -19.100 -22.088  0.00  0.00    +0.115 C 
ATOM     25  C   UNL     1      33.659 -20.189 -21.021  0.00  0.00    +0.049 C 
BRANCH  24  26
ATOM     26  O   UNL     1      33.372 -19.649 -23.355  0.00  0.00    -0.384 OA
ATOM     27  H   UNL     1      32.407 -19.660 -23.456  0.00  0.00    +0.210 HD
ENDBRANCH  24  26
BRANCH  22  28
ATOM     28  C   UNL     1      35.616 -17.832 -23.251  0.00  0.00    +0.176 C 
BRANCH  28  29
ATOM     29  O   UNL     1      34.476 -17.210 -23.819  0.00  0.00    -0.230 OA
BRANCH  29  30
ATOM     30  S   UNL     1      34.225 -17.286 -25.435  0.00  0.00    +0.045 S 
ATOM     31  O   UNL     1      35.119 -16.346 -26.086  0.00  0.00    -0.056 OA
ATOM     32  O   UNL     1      34.247 -18.688 -25.811  0.00  0.00    -0.056 OA
BRANCH  30  33
ATOM     33  N   UNL     1      32.619 -16.720 -25.635  0.00  0.00    -0.204 NA
ATOM     34  H   UNL     1      32.097 -16.866 -24.771  0.00  0.00    +0.144 HD
ATOM     35  H   UNL     1      32.170 -17.232 -26.394  0.00  0.00    +0.144 HD
ENDBRANCH  30  33
ENDBRANCH  29  30
ENDBRANCH  28  29
ENDBRANCH  22  28
ENDBRANCH   1  21
TORSDOF 7
ENDMDL
MODEL 9
REMARK VINA RESULT:      -9.0      5.839      9.402
REMARK  Name = 16720766
REMARK  7 active torsions:
REMARK  status: ('A' for Active; 'I' for Inactive)
REMARK    1  A    between atoms: N_1  and  C_10
REMARK    2  A    between atoms: C_11  and  C_17
REMARK    3  A    between atoms: C_13  and  O_15
REMARK    4  A    between atoms: C_17  and  O_18
REMARK    5  A    between atoms: O_18  and  S_19
REMARK    6  A    between atoms: S_19  and  N_22
REMARK    7  A    between atoms: N_25  and  C_27
REMARK                            x       y       z     vdW  Elec       q    Type
REMARK                         _______ _______ _______ _____ _____    ______ ____
ROOT
ATOM      1  N   UNL     1      33.531 -14.013 -23.681  0.00  0.00    -0.276 N 
ATOM      2  N   UNL     1      32.180 -13.693 -21.710  0.00  0.00    -0.233 NA
ATOM      3  N   UNL     1      31.657 -11.354 -21.286  0.00  0.00    -0.233 NA
ATOM      4  C   UNL     1      32.850 -13.237 -22.783  0.00  0.00    +0.120 C 
ATOM      5  C   UNL     1      34.093 -13.214 -24.643  0.00  0.00    +0.062 C 
ATOM      6  C   UNL     1      32.979 -11.911 -23.177  0.00  0.00    +0.131 C 
ATOM      7  C   UNL     1      33.767 -11.905 -24.356  0.00  0.00    +0.004 C 
ATOM      8  C   UNL     1      32.349 -10.937 -22.384  0.00  0.00    +0.113 C 
ATOM      9  C   UNL     1      31.616 -12.680 -21.022  0.00  0.00    +0.252 C 
ATOM     10  N   UNL     1      32.422  -9.590 -22.701  0.00  0.00    -0.319 N 
ATOM     11  H   UNL     1      32.931  -9.328 -23.502  0.00  0.00    +0.148 HD
ENDROOT
BRANCH  10  12
ATOM     12  C   UNL     1      31.796  -8.548 -21.923  0.00  0.00    +0.093 C 
ATOM     13  C   UNL     1      32.713  -8.091 -20.774  0.00  0.00    +0.029 C 
ATOM     14  C   UNL     1      31.681  -7.286 -22.723  0.00  0.00    -0.008 C 
ATOM     15  C   UNL     1      33.586  -6.950 -21.325  0.00  0.00    +0.028 C 
ATOM     16  C   UNL     1      32.690  -6.379 -22.378  0.00  0.00    -0.025 C 
ATOM     17  C   UNL     1      30.754  -6.982 -23.708  0.00  0.00    -0.003 C 
ATOM     18  C   UNL     1      32.798  -5.154 -23.015  0.00  0.00    -0.005 C 
ATOM     19  C   UNL     1      30.849  -5.744 -24.347  0.00  0.00    -0.000 C 
ATOM     20  C   UNL     1      31.864  -4.837 -24.004  0.00  0.00    -0.000 C 
ENDBRANCH  10  12
BRANCH   1  21
ATOM     21  C   UNL     1      33.649 -15.469 -23.634  0.00  0.00    +0.081 C 
ATOM     22  C   UNL     1      35.697 -16.749 -23.249  0.00  0.00    +0.061 C 
ATOM     23  C   UNL     1      34.575 -16.000 -22.519  0.00  0.00    +0.025 C 
ATOM     24  C   UNL     1      35.015 -17.270 -24.514  0.00  0.00    +0.115 C 
ATOM     25  C   UNL     1      34.162 -16.083 -24.952  0.00  0.00    +0.049 C 
BRANCH  24  26
ATOM     26  O   UNL     1      34.179 -18.382 -24.220  0.00  0.00    -0.384 OA
ATOM     27  H   UNL     1      33.249 -18.123 -24.321  0.00  0.00    +0.210 HD
ENDBRANCH  24  26
BRANCH  22  28
ATOM     28  C   UNL     1      36.340 -17.824 -22.386  0.00  0.00    +0.176 C 
BRANCH  28  29
ATOM     29  O   UNL     1      35.403 -18.247 -21.411  0.00  0.00    -0.230 OA
BRANCH  29  30
ATOM     30  S   UNL     1      34.994 -19.829 -21.305  0.00  0.00    +0.045 S 
ATOM     31  O   UNL     1      33.691 -19.927 -20.672  0.00  0.00    -0.056 OA
ATOM     32  O   UNL     1      35.212 -20.422 -22.612  0.00  0.00    -0.056 OA
BRANCH  30  33
ATOM     33  N   UNL     1      36.158 -20.490 -20.234  0.00  0.00    -0.204 NA
ATOM     34  H   UNL     1      35.980 -20.152 -19.288  0.00  0.00    +0.144 HD
ATOM     35  H   UNL     1      37.092 -20.201 -20.527  0.00  0.00    +0.144 HD
ENDBRANCH  30  33
ENDBRANCH  29  30
ENDBRANCH  28  29
ENDBRANCH  22  28
ENDBRANCH   1  21
TORSDOF 7
ENDMDL
