MODEL 1
REMARK VINA RESULT:     -11.2      0.000      0.000
REMARK  Name = 4470378
REMARK  6 active torsions:
REMARK  status: ('A' for Active; 'I' for Inactive)
REMARK    1  A    between atoms: C_5  and  O_10
REMARK    2  A    between atoms: C_6  and  O_24
REMARK    3  A    between atoms: O_10  and  C_11
REMARK    4  A    between atoms: C_12  and  C_19
REMARK    5  A    between atoms: O_24  and  C_25
REMARK    6  A    between atoms: C_26  and  C_33
REMARK                            x       y       z     vdW  Elec       q    Type
REMARK                         _______ _______ _______ _____ _____    ______ ____
ROOT
ATOM      1  F   UNL     1      32.016 -23.738 -17.635  0.00  0.00    -0.221 F 
ATOM      2  F   UNL     1      34.040 -23.184 -13.370  0.00  0.00    -0.199 F 
ATOM      3  N   UNL     1      35.474 -23.158 -16.703  0.00  0.00    -0.331 NA
ATOM      4  C   UNL     1      32.980 -23.468 -15.479  0.00  0.00    +0.031 C 
ATOM      5  C   UNL     1      34.348 -23.371 -17.421  0.00  0.00    +0.298 C 
ATOM      6  C   UNL     1      35.315 -23.106 -15.368  0.00  0.00    +0.312 C 
ATOM      7  C   UNL     1      33.090 -23.530 -16.864  0.00  0.00    +0.270 C 
ATOM      8  C   UNL     1      34.115 -23.250 -14.705  0.00  0.00    +0.201 C 
ATOM      9  C   UNL     1      31.650 -23.634 -14.825  0.00  0.00    +0.032 C 
ENDROOT
BRANCH   5  10
ATOM     10  O   UNL     1      34.484 -23.429 -18.783  0.00  0.00    -0.428 OA
BRANCH  10  11
ATOM     11  C   UNL     1      34.301 -22.259 -19.491  0.00  0.00    +0.148 C 
ATOM     12  C   UNL     1      35.219 -20.318 -20.563  0.00  0.00    +0.032 C 
ATOM     13  C   UNL     1      35.405 -21.503 -19.848  0.00  0.00    +0.040 C 
ATOM     14  C   UNL     1      33.017 -21.864 -19.828  0.00  0.00    +0.038 C 
ATOM     15  C   UNL     1      33.933 -19.908 -20.910  0.00  0.00    +0.003 C 
ATOM     16  C   UNL     1      32.831 -20.681 -20.542  0.00  0.00    +0.003 C 
BRANCH  12  19
ATOM     17  N   UNL     1      37.559 -19.723 -20.370  0.00  0.00    -0.387 N 
ATOM     18  N   UNL     1      36.239 -18.556 -21.874  0.00  0.00    -0.345 N 
ATOM     19  C   UNL     1      36.361 -19.518 -20.944  0.00  0.00    +0.096 C 
ATOM     20  H   UNL     1      38.332 -19.173 -20.635  0.00  0.00    +0.157 HD
ATOM     21  H   UNL     1      37.664 -20.423 -19.686  0.00  0.00    +0.157 HD
ATOM     22  H   UNL     1      37.021 -18.014 -22.128  0.00  0.00    +0.144 HD
ATOM     23  H   UNL     1      35.367 -18.393 -22.302  0.00  0.00    +0.144 HD
ENDBRANCH  12  19
ENDBRANCH  10  11
ENDBRANCH   5  10
BRANCH   6  24
ATOM     24  O   UNL     1      36.461 -22.891 -14.622  0.00  0.00    -0.426 OA
BRANCH  24  25
ATOM     25  C   UNL     1      37.082 -23.977 -14.088  0.00  0.00    +0.148 C 
ATOM     26  C   UNL     1      38.864 -25.608 -14.146  0.00  0.00    +0.034 C 
ATOM     27  C   UNL     1      38.228 -24.493 -14.692  0.00  0.00    +0.040 C 
ATOM     28  C   UNL     1      36.570 -24.578 -12.937  0.00  0.00    +0.038 C 
ATOM     29  C   UNL     1      38.352 -26.209 -12.995  0.00  0.00    +0.003 C 
ATOM     30  C   UNL     1      37.206 -25.693 -12.391  0.00  0.00    +0.003 C 
BRANCH  26  33
ATOM     31  N   UNL     1      40.961 -26.935 -14.065  0.00  0.00    -0.343 N 
ATOM     32  N   UNL     1      40.309 -25.883 -16.047  0.00  0.00    -0.285 NA
ATOM     33  C   UNL     1      40.059 -26.146 -14.776  0.00  0.00    +0.117 C 
ATOM     34  H   UNL     1      41.764 -27.289 -14.511  0.00  0.00    +0.144 HD
ATOM     35  H   UNL     1      40.795 -27.140 -13.116  0.00  0.00    +0.144 HD
ATOM     36  H   UNL     1      41.117 -26.246 -16.474  0.00  0.00    +0.188 HD
ENDBRANCH  26  33
ENDBRANCH  24  25
ENDBRANCH   6  24
TORSDOF 6
ENDMDL
MODEL 2
REMARK VINA RESULT:     -11.1      0.268      7.581
REMARK  Name = 4470378
REMARK  6 active torsions:
REMARK  status: ('A' for Active; 'I' for Inactive)
REMARK    1  A    between atoms: C_5  and  O_10
REMARK    2  A    between atoms: C_6  and  O_24
REMARK    3  A    between atoms: O_10  and  C_11
REMARK    4  A    between atoms: C_12  and  C_19
REMARK    5  A    between atoms: O_24  and  C_25
REMARK    6  A    between atoms: C_26  and  C_33
REMARK                            x       y       z     vdW  Elec       q    Type
REMARK                         _______ _______ _______ _____ _____    ______ ____
ROOT
ATOM      1  F   UNL     1      33.609 -23.233 -13.424  0.00  0.00    -0.221 F 
ATOM      2  F   UNL     1      32.101 -23.707 -17.907  0.00  0.00    -0.199 F 
ATOM      3  N   UNL     1      35.418 -23.108 -16.567  0.00  0.00    -0.331 NA
ATOM      4  C   UNL     1      32.804 -23.477 -15.648  0.00  0.00    +0.031 C 
ATOM      5  C   UNL     1      35.116 -23.087 -15.249  0.00  0.00    +0.298 C 
ATOM      6  C   UNL     1      34.384 -23.315 -17.401  0.00  0.00    +0.312 C 
ATOM      7  C   UNL     1      33.838 -23.265 -14.743  0.00  0.00    +0.270 C 
ATOM      8  C   UNL     1      33.075 -23.504 -17.012  0.00  0.00    +0.201 C 
ATOM      9  C   UNL     1      31.409 -23.673 -15.159  0.00  0.00    +0.032 C 
ENDROOT
BRANCH   5  10
ATOM     10  O   UNL     1      36.152 -22.876 -14.378  0.00  0.00    -0.428 OA
BRANCH  10  11
ATOM     11  C   UNL     1      36.815 -23.987 -13.898  0.00  0.00    +0.148 C 
ATOM     12  C   UNL     1      38.652 -25.524 -14.031  0.00  0.00    +0.032 C 
ATOM     13  C   UNL     1      37.983 -24.400 -14.516  0.00  0.00    +0.040 C 
ATOM     14  C   UNL     1      36.297 -24.666 -12.807  0.00  0.00    +0.038 C 
ATOM     15  C   UNL     1      38.144 -26.218 -12.933  0.00  0.00    +0.003 C 
ATOM     16  C   UNL     1      36.965 -25.790 -12.322  0.00  0.00    +0.003 C 
BRANCH  12  19
ATOM     17  N   UNL     1      40.214 -25.512 -15.882  0.00  0.00    -0.387 N 
ATOM     18  N   UNL     1      40.682 -26.846 -14.047  0.00  0.00    -0.345 N 
ATOM     19  C   UNL     1      39.873 -25.968 -14.665  0.00  0.00    +0.096 C 
ATOM     20  H   UNL     1      41.047 -25.819 -16.307  0.00  0.00    +0.157 HD
ATOM     21  H   UNL     1      39.631 -24.869 -16.348  0.00  0.00    +0.157 HD
ATOM     22  H   UNL     1      41.511 -27.145 -14.485  0.00  0.00    +0.144 HD
ATOM     23  H   UNL     1      40.445 -27.190 -13.155  0.00  0.00    +0.144 HD
ENDBRANCH  12  19
ENDBRANCH  10  11
ENDBRANCH   5  10
BRANCH   6  24
ATOM     24  O   UNL     1      34.681 -23.336 -18.754  0.00  0.00    -0.426 OA
BRANCH  24  25
ATOM     25  C   UNL     1      34.451 -22.202 -19.469  0.00  0.00    +0.148 C 
ATOM     26  C   UNL     1      35.286 -20.245 -20.615  0.00  0.00    +0.034 C 
ATOM     27  C   UNL     1      35.522 -21.409 -19.883  0.00  0.00    +0.040 C 
ATOM     28  C   UNL     1      33.145 -21.831 -19.788  0.00  0.00    +0.038 C 
ATOM     29  C   UNL     1      33.979 -19.874 -20.934  0.00  0.00    +0.003 C 
ATOM     30  C   UNL     1      32.909 -20.668 -20.520  0.00  0.00    +0.003 C 
BRANCH  26  33
ATOM     31  N   UNL     1      36.328 -18.650 -22.206  0.00  0.00    -0.343 N 
ATOM     32  N   UNL     1      37.515 -19.391 -20.335  0.00  0.00    -0.285 NA
ATOM     33  C   UNL     1      36.402 -19.418 -21.046  0.00  0.00    +0.117 C 
ATOM     34  H   UNL     1      37.095 -18.097 -22.480  0.00  0.00    +0.144 HD
ATOM     35  H   UNL     1      35.509 -18.659 -22.752  0.00  0.00    +0.144 HD
ATOM     36  H   UNL     1      38.271 -18.832 -20.625  0.00  0.00    +0.188 HD
ENDBRANCH  26  33
ENDBRANCH  24  25
ENDBRANCH   6  24
TORSDOF 6
ENDMDL
MODEL 3
REMARK VINA RESULT:     -11.1      5.689      9.119
REMARK  Name = 4470378
REMARK  6 active torsions:
REMARK  status: ('A' for Active; 'I' for Inactive)
REMARK    1  A    between atoms: C_5  and  O_10
REMARK    2  A    between atoms: C_6  and  O_24
REMARK    3  A    between atoms: O_10  and  C_11
REMARK    4  A    between atoms: C_12  and  C_19
REMARK    5  A    between atoms: O_24  and  C_25
REMARK    6  A    between atoms: C_26  and  C_33
REMARK                            x       y       z     vdW  Elec       q    Type
REMARK                         _______ _______ _______ _____ _____    ______ ____
ROOT
ATOM      1  F   UNL     1      33.862 -15.361 -24.899  0.00  0.00    -0.221 F 
ATOM      2  F   UNL     1      34.607 -20.014 -24.284  0.00  0.00    -0.199 F 
ATOM      3  N   UNL     1      35.626 -17.161 -22.289  0.00  0.00    -0.331 NA
ATOM      4  C   UNL     1      34.208 -17.698 -24.637  0.00  0.00    +0.031 C 
ATOM      5  C   UNL     1      35.084 -16.173 -23.037  0.00  0.00    +0.298 C 
ATOM      6  C   UNL     1      35.439 -18.411 -22.748  0.00  0.00    +0.312 C 
ATOM      7  C   UNL     1      34.373 -16.386 -24.206  0.00  0.00    +0.270 C 
ATOM      8  C   UNL     1      34.751 -18.742 -23.895  0.00  0.00    +0.201 C 
ATOM      9  C   UNL     1      33.452 -17.985 -25.890  0.00  0.00    +0.032 C 
ENDROOT
BRANCH   5  10
ATOM     10  O   UNL     1      35.262 -14.889 -22.591  0.00  0.00    -0.428 OA
BRANCH  10  11
ATOM     11  C   UNL     1      34.156 -14.232 -22.093  0.00  0.00    +0.148 C 
ATOM     12  C   UNL     1      32.673 -12.345 -22.130  0.00  0.00    +0.032 C 
ATOM     13  C   UNL     1      33.791 -13.010 -22.636  0.00  0.00    +0.040 C 
ATOM     14  C   UNL     1      33.434 -14.806 -21.059  0.00  0.00    +0.038 C 
ATOM     15  C   UNL     1      31.937 -12.911 -21.090  0.00  0.00    +0.003 C 
ATOM     16  C   UNL     1      32.317 -14.141 -20.554  0.00  0.00    +0.003 C 
BRANCH  12  19
ATOM     17  N   UNL     1      32.988 -10.512 -23.682  0.00  0.00    -0.387 N 
ATOM     18  N   UNL     1      31.201 -10.424 -22.210  0.00  0.00    -0.345 N 
ATOM     19  C   UNL     1      32.279 -11.070 -22.685  0.00  0.00    +0.096 C 
ATOM     20  H   UNL     1      32.713  -9.643 -24.055  0.00  0.00    +0.157 HD
ATOM     21  H   UNL     1      33.781 -10.973 -24.040  0.00  0.00    +0.157 HD
ATOM     22  H   UNL     1      30.939  -9.555 -22.593  0.00  0.00    +0.144 HD
ATOM     23  H   UNL     1      30.673 -10.819 -21.479  0.00  0.00    +0.144 HD
ENDBRANCH  12  19
ENDBRANCH  10  11
ENDBRANCH   5  10
BRANCH   6  24
ATOM     24  O   UNL     1      35.992 -19.431 -21.991  0.00  0.00    -0.426 OA
BRANCH  24  25
ATOM     25  C   UNL     1      35.164 -20.123 -21.162  0.00  0.00    +0.148 C 
ATOM     26  C   UNL     1      34.849 -21.609 -19.282  0.00  0.00    +0.034 C 
ATOM     27  C   UNL     1      35.697 -20.899 -20.132  0.00  0.00    +0.040 C 
ATOM     28  C   UNL     1      33.783 -20.059 -21.342  0.00  0.00    +0.038 C 
ATOM     29  C   UNL     1      33.467 -21.544 -19.463  0.00  0.00    +0.003 C 
ATOM     30  C   UNL     1      32.934 -20.769 -20.493  0.00  0.00    +0.003 C 
BRANCH  26  33
ATOM     31  N   UNL     1      36.722 -22.251 -17.785  0.00  0.00    -0.343 N 
ATOM     32  N   UNL     1      34.658 -23.334 -17.620  0.00  0.00    -0.285 NA
ATOM     33  C   UNL     1      35.405 -22.417 -18.209  0.00  0.00    +0.117 C 
ATOM     34  H   UNL     1      37.079 -22.809 -17.057  0.00  0.00    +0.144 HD
ATOM     35  H   UNL     1      37.297 -21.575 -18.213  0.00  0.00    +0.144 HD
ATOM     36  H   UNL     1      35.033 -23.882 -16.894  0.00  0.00    +0.188 HD
ENDBRANCH  26  33
ENDBRANCH  24  25
ENDBRANCH   6  24
TORSDOF 6
ENDMDL
MODEL 4
REMARK VINA RESULT:     -11.0      2.654      4.993
REMARK  Name = 4470378
REMARK  6 active torsions:
REMARK  status: ('A' for Active; 'I' for Inactive)
REMARK    1  A    between atoms: C_5  and  O_10
REMARK    2  A    between atoms: C_6  and  O_24
REMARK    3  A    between atoms: O_10  and  C_11
REMARK    4  A    between atoms: C_12  and  C_19
REMARK    5  A    between atoms: O_24  and  C_25
REMARK    6  A    between atoms: C_26  and  C_33
REMARK                            x       y       z     vdW  Elec       q    Type
REMARK                         _______ _______ _______ _____ _____    ______ ____
ROOT
ATOM      1  F   UNL     1      34.134 -22.737 -19.529  0.00  0.00    -0.221 F 
ATOM      2  F   UNL     1      37.875 -21.357 -16.942  0.00  0.00    -0.199 F 
ATOM      3  N   UNL     1      34.955 -23.313 -16.042  0.00  0.00    -0.331 NA
ATOM      4  C   UNL     1      36.025 -22.021 -18.278  0.00  0.00    +0.031 C 
ATOM      5  C   UNL     1      34.324 -23.317 -17.238  0.00  0.00    +0.298 C 
ATOM      6  C   UNL     1      36.124 -22.650 -16.000  0.00  0.00    +0.312 C 
ATOM      7  C   UNL     1      34.811 -22.694 -18.375  0.00  0.00    +0.270 C 
ATOM      8  C   UNL     1      36.704 -21.994 -17.065  0.00  0.00    +0.201 C 
ATOM      9  C   UNL     1      36.595 -21.331 -19.471  0.00  0.00    +0.032 C 
ENDROOT
BRANCH   5  10
ATOM     10  O   UNL     1      33.130 -23.985 -17.306  0.00  0.00    -0.428 OA
BRANCH  10  11
ATOM     11  C   UNL     1      32.166 -23.660 -16.374  0.00  0.00    +0.148 C 
ATOM     12  C   UNL     1      29.882 -23.149 -15.843  0.00  0.00    +0.032 C 
ATOM     13  C   UNL     1      30.856 -23.479 -16.787  0.00  0.00    +0.040 C 
ATOM     14  C   UNL     1      32.529 -23.520 -15.044  0.00  0.00    +0.038 C 
ATOM     15  C   UNL     1      30.232 -23.005 -14.501  0.00  0.00    +0.003 C 
ATOM     16  C   UNL     1      31.556 -23.190 -14.101  0.00  0.00    +0.003 C 
BRANCH  12  19
ATOM     17  N   UNL     1      28.132 -23.244 -17.515  0.00  0.00    -0.387 N 
ATOM     18  N   UNL     1      27.596 -22.488 -15.391  0.00  0.00    -0.345 N 
ATOM     19  C   UNL     1      28.510 -22.958 -16.257  0.00  0.00    +0.096 C 
ATOM     20  H   UNL     1      27.196 -23.110 -17.789  0.00  0.00    +0.157 HD
ATOM     21  H   UNL     1      28.790 -23.588 -18.161  0.00  0.00    +0.157 HD
ATOM     22  H   UNL     1      26.664 -22.359 -15.681  0.00  0.00    +0.144 HD
ATOM     23  H   UNL     1      27.859 -22.272 -14.467  0.00  0.00    +0.144 HD
ENDBRANCH  12  19
ENDBRANCH  10  11
ENDBRANCH   5  10
BRANCH   6  24
ATOM     24  O   UNL     1      36.779 -22.637 -14.780  0.00  0.00    -0.426 OA
BRANCH  24  25
ATOM     25  C   UNL     1      37.221 -23.826 -14.287  0.00  0.00    +0.148 C 
ATOM     26  C   UNL     1      38.853 -25.607 -14.270  0.00  0.00    +0.034 C 
ATOM     27  C   UNL     1      38.401 -24.388 -14.774  0.00  0.00    +0.040 C 
ATOM     28  C   UNL     1      36.492 -24.484 -13.296  0.00  0.00    +0.038 C 
ATOM     29  C   UNL     1      38.125 -26.266 -13.279  0.00  0.00    +0.003 C 
ATOM     30  C   UNL     1      36.944 -25.703 -12.792  0.00  0.00    +0.003 C 
BRANCH  26  33
ATOM     31  N   UNL     1      40.936 -26.920 -13.949  0.00  0.00    -0.343 N 
ATOM     32  N   UNL     1      40.414 -26.034 -16.047  0.00  0.00    -0.285 NA
ATOM     33  C   UNL     1      40.084 -26.193 -14.778  0.00  0.00    +0.117 C 
ATOM     34  H   UNL     1      41.764 -27.308 -14.313  0.00  0.00    +0.144 HD
ATOM     35  H   UNL     1      40.710 -27.047 -12.999  0.00  0.00    +0.144 HD
ATOM     36  H   UNL     1      41.247 -26.429 -16.392  0.00  0.00    +0.188 HD
ENDBRANCH  26  33
ENDBRANCH  24  25
ENDBRANCH   6  24
TORSDOF 6
ENDMDL
MODEL 5
REMARK VINA RESULT:     -10.7      5.973      9.368
REMARK  Name = 4470378
REMARK  6 active torsions:
REMARK  status: ('A' for Active; 'I' for Inactive)
REMARK    1  A    between atoms: C_5  and  O_10
REMARK    2  A    between atoms: C_6  and  O_24
REMARK    3  A    between atoms: O_10  and  C_11
REMARK    4  A    between atoms: C_12  and  C_19
REMARK    5  A    between atoms: O_24  and  C_25
REMARK    6  A    between atoms: C_26  and  C_33
REMARK                            x       y       z     vdW  Elec       q    Type
REMARK                         _______ _______ _______ _____ _____    ______ ____
ROOT
ATOM      1  F   UNL     1      33.405 -16.082 -25.198  0.00  0.00    -0.221 F 
ATOM      2  F   UNL     1      35.419 -20.121 -23.707  0.00  0.00    -0.199 F 
ATOM      3  N   UNL     1      35.856 -16.695 -22.595  0.00  0.00    -0.331 NA
ATOM      4  C   UNL     1      34.384 -18.129 -24.489  0.00  0.00    +0.031 C 
ATOM      5  C   UNL     1      34.994 -16.085 -23.438  0.00  0.00    +0.298 C 
ATOM      6  C   UNL     1      35.959 -18.030 -22.727  0.00  0.00    +0.312 C 
ATOM      7  C   UNL     1      34.241 -16.749 -24.393  0.00  0.00    +0.270 C 
ATOM      8  C   UNL     1      35.262 -18.793 -23.639  0.00  0.00    +0.201 C 
ATOM      9  C   UNL     1      33.600 -18.894 -25.501  0.00  0.00    +0.032 C 
ENDROOT
BRANCH   5  10
ATOM     10  O   UNL     1      34.872 -14.725 -23.325  0.00  0.00    -0.428 OA
BRANCH  10  11
ATOM     11  C   UNL     1      33.948 -14.243 -22.420  0.00  0.00    +0.148 C 
ATOM     12  C   UNL     1      32.343 -12.578 -21.783  0.00  0.00    +0.032 C 
ATOM     13  C   UNL     1      33.277 -13.065 -22.699  0.00  0.00    +0.040 C 
ATOM     14  C   UNL     1      33.712 -14.949 -21.252  0.00  0.00    +0.038 C 
ATOM     15  C   UNL     1      32.094 -13.277 -20.603  0.00  0.00    +0.003 C 
ATOM     16  C   UNL     1      32.779 -14.463 -20.336  0.00  0.00    +0.003 C 
BRANCH  12  19
ATOM     17  N   UNL     1      32.226 -10.360 -22.751  0.00  0.00    -0.387 N 
ATOM     18  N   UNL     1      30.373 -11.177 -21.625  0.00  0.00    -0.345 N 
ATOM     19  C   UNL     1      31.633 -11.349 -22.059  0.00  0.00    +0.096 C 
ATOM     20  H   UNL     1      31.736  -9.526 -22.934  0.00  0.00    +0.157 HD
ATOM     21  H   UNL     1      33.149 -10.470 -23.075  0.00  0.00    +0.157 HD
ATOM     22  H   UNL     1      29.897 -10.337 -21.816  0.00  0.00    +0.144 HD
ATOM     23  H   UNL     1      29.926 -11.892 -21.116  0.00  0.00    +0.144 HD
ENDBRANCH  12  19
ENDBRANCH  10  11
ENDBRANCH   5  10
BRANCH   6  24
ATOM     24  O   UNL     1      36.841 -18.665 -21.869  0.00  0.00    -0.426 OA
BRANCH  24  25
ATOM     25  C   UNL     1      36.351 -19.662 -21.083  0.00  0.00    +0.148 C 
ATOM     26  C   UNL     1      34.471 -20.878 -20.175  0.00  0.00    +0.034 C 
ATOM     27  C   UNL     1      34.973 -19.857 -20.981  0.00  0.00    +0.040 C 
ATOM     28  C   UNL     1      37.226 -20.488 -20.378  0.00  0.00    +0.038 C 
ATOM     29  C   UNL     1      35.345 -21.704 -19.469  0.00  0.00    +0.003 C 
ATOM     30  C   UNL     1      36.723 -21.509 -19.571  0.00  0.00    +0.003 C 
BRANCH  26  33
ATOM     31  N   UNL     1      32.488 -21.888 -19.073  0.00  0.00    -0.343 N 
ATOM     32  N   UNL     1      32.221 -20.497 -20.931  0.00  0.00    -0.285 NA
ATOM     33  C   UNL     1      33.034 -21.081 -20.069  0.00  0.00    +0.117 C 
ATOM     34  H   UNL     1      31.514 -22.012 -19.019  0.00  0.00    +0.144 HD
ATOM     35  H   UNL     1      33.077 -22.335 -18.422  0.00  0.00    +0.144 HD
ATOM     36  H   UNL     1      31.249 -20.633 -20.860  0.00  0.00    +0.188 HD
ENDBRANCH  26  33
ENDBRANCH  24  25
ENDBRANCH   6  24
TORSDOF 6
ENDMDL
MODEL 6
REMARK VINA RESULT:     -10.7     11.701     15.610
REMARK  Name = 4470378
REMARK  6 active torsions:
REMARK  status: ('A' for Active; 'I' for Inactive)
REMARK    1  A    between atoms: C_5  and  O_10
REMARK    2  A    between atoms: C_6  and  O_24
REMARK    3  A    between atoms: O_10  and  C_11
REMARK    4  A    between atoms: C_12  and  C_19
REMARK    5  A    between atoms: O_24  and  C_25
REMARK    6  A    between atoms: C_26  and  C_33
REMARK                            x       y       z     vdW  Elec       q    Type
REMARK                         _______ _______ _______ _____ _____    ______ ____
ROOT
ATOM      1  F   UNL     1      32.755  -7.797 -20.247  0.00  0.00    -0.221 F 
ATOM      2  F   UNL     1      31.171 -12.015 -21.760  0.00  0.00    -0.199 F 
ATOM      3  N   UNL     1      33.481  -9.662 -23.273  0.00  0.00    -0.331 NA
ATOM      4  C   UNL     1      31.932  -9.911 -20.959  0.00  0.00    +0.031 C 
ATOM      5  C   UNL     1      33.469  -8.706 -22.317  0.00  0.00    +0.298 C 
ATOM      6  C   UNL     1      32.703 -10.734 -23.039  0.00  0.00    +0.312 C 
ATOM      7  C   UNL     1      32.721  -8.781 -21.154  0.00  0.00    +0.270 C 
ATOM      8  C   UNL     1      31.918 -10.916 -21.921  0.00  0.00    +0.201 C 
ATOM      9  C   UNL     1      31.105 -10.043 -19.726  0.00  0.00    +0.032 C 
ENDROOT
BRANCH   5  10
ATOM     10  O   UNL     1      34.253  -7.603 -22.533  0.00  0.00    -0.428 OA
BRANCH  10  11
ATOM     11  C   UNL     1      33.742  -6.611 -23.345  0.00  0.00    +0.148 C 
ATOM     12  C   UNL     1      32.130  -4.878 -23.738  0.00  0.00    +0.032 C 
ATOM     13  C   UNL     1      32.646  -5.881 -22.916  0.00  0.00    +0.040 C 
ATOM     14  C   UNL     1      34.337  -6.367 -24.572  0.00  0.00    +0.038 C 
ATOM     15  C   UNL     1      32.718  -4.620 -24.976  0.00  0.00    +0.003 C 
ATOM     16  C   UNL     1      33.821  -5.365 -25.394  0.00  0.00    +0.003 C 
BRANCH  12  19
ATOM     17  N   UNL     1      30.449  -3.174 -24.111  0.00  0.00    -0.387 N 
ATOM     18  N   UNL     1      30.448  -4.308 -22.091  0.00  0.00    -0.345 N 
ATOM     19  C   UNL     1      30.987  -4.106 -23.306  0.00  0.00    +0.096 C 
ATOM     20  H   UNL     1      29.671  -2.653 -23.810  0.00  0.00    +0.157 HD
ATOM     21  H   UNL     1      30.834  -3.014 -25.004  0.00  0.00    +0.157 HD
ATOM     22  H   UNL     1      29.670  -3.778 -21.804  0.00  0.00    +0.144 HD
ATOM     23  H   UNL     1      30.832  -4.986 -21.489  0.00  0.00    +0.144 HD
ENDBRANCH  12  19
ENDBRANCH  10  11
ENDBRANCH   5  10
BRANCH   6  24
ATOM     24  O   UNL     1      32.706 -11.719 -24.013  0.00  0.00    -0.426 OA
BRANCH  24  25
ATOM     25  C   UNL     1      33.310 -12.901 -23.714  0.00  0.00    +0.148 C 
ATOM     26  C   UNL     1      33.890 -15.167 -24.322  0.00  0.00    +0.034 C 
ATOM     27  C   UNL     1      33.272 -13.955 -24.628  0.00  0.00    +0.040 C 
ATOM     28  C   UNL     1      33.966 -13.061 -22.493  0.00  0.00    +0.038 C 
ATOM     29  C   UNL     1      34.546 -15.327 -23.101  0.00  0.00    +0.003 C 
ATOM     30  C   UNL     1      34.584 -14.273 -22.187  0.00  0.00    +0.003 C 
BRANCH  26  33
ATOM     31  N   UNL     1      34.597 -17.424 -25.075  0.00  0.00    -0.343 N 
ATOM     32  N   UNL     1      33.099 -16.170 -26.358  0.00  0.00    -0.285 NA
ATOM     33  C   UNL     1      33.850 -16.265 -25.275  0.00  0.00    +0.117 C 
ATOM     34  H   UNL     1      34.556 -18.156 -25.733  0.00  0.00    +0.144 HD
ATOM     35  H   UNL     1      35.166 -17.513 -24.276  0.00  0.00    +0.144 HD
ATOM     36  H   UNL     1      33.072 -16.912 -27.003  0.00  0.00    +0.188 HD
ENDBRANCH  26  33
ENDBRANCH  24  25
ENDBRANCH   6  24
TORSDOF 6
ENDMDL
MODEL 7
REMARK VINA RESULT:     -10.6      8.403     11.993
REMARK  Name = 4470378
REMARK  6 active torsions:
REMARK  status: ('A' for Active; 'I' for Inactive)
REMARK    1  A    between atoms: C_5  and  O_10
REMARK    2  A    between atoms: C_6  and  O_24
REMARK    3  A    between atoms: O_10  and  C_11
REMARK    4  A    between atoms: C_12  and  C_19
REMARK    5  A    between atoms: O_24  and  C_25
REMARK    6  A    between atoms: C_26  and  C_33
REMARK                            x       y       z     vdW  Elec       q    Type
REMARK                         _______ _______ _______ _____ _____    ______ ____
ROOT
ATOM      1  F   UNL     1      31.436 -12.003 -21.821  0.00  0.00    -0.221 F 
ATOM      2  F   UNL     1      34.212 -15.691 -20.689  0.00  0.00    -0.199 F 
ATOM      3  N   UNL     1      34.200 -13.533 -23.605  0.00  0.00    -0.331 NA
ATOM      4  C   UNL     1      32.796 -13.854 -21.209  0.00  0.00    +0.031 C 
ATOM      5  C   UNL     1      33.171 -12.723 -23.267  0.00  0.00    +0.298 C 
ATOM      6  C   UNL     1      34.501 -14.498 -22.717  0.00  0.00    +0.312 C 
ATOM      7  C   UNL     1      32.445 -12.840 -22.093  0.00  0.00    +0.270 C 
ATOM      8  C   UNL     1      33.850 -14.707 -21.521  0.00  0.00    +0.201 C 
ATOM      9  C   UNL     1      32.048 -14.026 -19.931  0.00  0.00    +0.032 C 
ENDROOT
BRANCH   5  10
ATOM     10  O   UNL     1      32.843 -11.734 -24.156  0.00  0.00    -0.428 OA
BRANCH  10  11
ATOM     11  C   UNL     1      33.249 -10.450 -23.855  0.00  0.00    +0.148 C 
ATOM     12  C   UNL     1      32.773  -8.287 -22.932  0.00  0.00    +0.032 C 
ATOM     13  C   UNL     1      32.362  -9.585 -23.235  0.00  0.00    +0.040 C 
ATOM     14  C   UNL     1      34.536 -10.052 -24.179  0.00  0.00    +0.038 C 
ATOM     15  C   UNL     1      34.065  -7.872 -23.252  0.00  0.00    +0.003 C 
ATOM     16  C   UNL     1      34.947  -8.754 -23.876  0.00  0.00    +0.003 C 
BRANCH  12  19
ATOM     17  N   UNL     1      30.870  -6.789 -22.985  0.00  0.00    -0.387 N 
ATOM     18  N   UNL     1      31.988  -7.089 -20.978  0.00  0.00    -0.345 N 
ATOM     19  C   UNL     1      31.859  -7.372 -22.286  0.00  0.00    +0.096 C 
ATOM     20  H   UNL     1      30.252  -6.167 -22.538  0.00  0.00    +0.157 HD
ATOM     21  H   UNL     1      30.763  -6.985 -23.944  0.00  0.00    +0.157 HD
ATOM     22  H   UNL     1      31.362  -6.464 -20.546  0.00  0.00    +0.144 HD
ATOM     23  H   UNL     1      32.709  -7.507 -20.453  0.00  0.00    +0.144 HD
ENDBRANCH  12  19
ENDBRANCH  10  11
ENDBRANCH   5  10
BRANCH   6  24
ATOM     24  O   UNL     1      35.552 -15.334 -23.054  0.00  0.00    -0.426 OA
BRANCH  24  25
ATOM     25  C   UNL     1      35.306 -16.671 -23.101  0.00  0.00    +0.148 C 
ATOM     26  C   UNL     1      35.456 -18.864 -22.098  0.00  0.00    +0.034 C 
ATOM     27  C   UNL     1      35.708 -17.493 -22.048  0.00  0.00    +0.040 C 
ATOM     28  C   UNL     1      34.652 -17.221 -24.204  0.00  0.00    +0.038 C 
ATOM     29  C   UNL     1      34.803 -19.414 -23.201  0.00  0.00    +0.003 C 
ATOM     30  C   UNL     1      34.400 -18.592 -24.254  0.00  0.00    +0.003 C 
BRANCH  26  33
ATOM     31  N   UNL     1      35.085 -20.783 -20.566  0.00  0.00    -0.343 N 
ATOM     32  N   UNL     1      37.026 -19.494 -20.390  0.00  0.00    -0.285 NA
ATOM     33  C   UNL     1      35.876 -19.721 -21.000  0.00  0.00    +0.117 C 
ATOM     34  H   UNL     1      35.388 -21.350 -19.821  0.00  0.00    +0.144 HD
ATOM     35  H   UNL     1      34.223 -20.967 -21.005  0.00  0.00    +0.144 HD
ATOM     36  H   UNL     1      37.311 -20.073 -19.647  0.00  0.00    +0.188 HD
ENDBRANCH  26  33
ENDBRANCH  24  25
ENDBRANCH   6  24
TORSDOF 6
ENDMDL
MODEL 8
REMARK VINA RESULT:     -10.6      2.702      7.967
REMARK  Name = 4470378
REMARK  6 active torsions:
REMARK  status: ('A' for Active; 'I' for Inactive)
REMARK    1  A    between atoms: C_5  and  O_10
REMARK    2  A    between atoms: C_6  and  O_24
REMARK    3  A    between atoms: O_10  and  C_11
REMARK    4  A    between atoms: C_12  and  C_19
REMARK    5  A    between atoms: O_24  and  C_25
REMARK    6  A    between atoms: C_26  and  C_33
REMARK                            x       y       z     vdW  Elec       q    Type
REMARK                         _______ _______ _______ _____ _____    ______ ____
ROOT
ATOM      1  F   UNL     1      37.784 -21.447 -16.512  0.00  0.00    -0.221 F 
ATOM      2  F   UNL     1      34.285 -22.791 -19.435  0.00  0.00    -0.199 F 
ATOM      3  N   UNL     1      34.723 -23.285 -15.868  0.00  0.00    -0.331 NA
ATOM      4  C   UNL     1      36.061 -22.097 -18.016  0.00  0.00    +0.031 C 
ATOM      5  C   UNL     1      35.910 -22.657 -15.709  0.00  0.00    +0.298 C 
ATOM      6  C   UNL     1      34.232 -23.301 -17.120  0.00  0.00    +0.312 C 
ATOM      7  C   UNL     1      36.612 -22.052 -16.740  0.00  0.00    +0.270 C 
ATOM      8  C   UNL     1      34.841 -22.734 -18.219  0.00  0.00    +0.201 C 
ATOM      9  C   UNL     1      36.774 -21.464 -19.162  0.00  0.00    +0.032 C 
ENDROOT
BRANCH   5  10
ATOM     10  O   UNL     1      36.432 -22.628 -14.443  0.00  0.00    -0.428 OA
BRANCH  10  11
ATOM     11  C   UNL     1      36.975 -23.799 -13.954  0.00  0.00    +0.148 C 
ATOM     12  C   UNL     1      38.685 -25.480 -14.024  0.00  0.00    +0.032 C 
ATOM     13  C   UNL     1      38.138 -24.296 -14.519  0.00  0.00    +0.040 C 
ATOM     14  C   UNL     1      36.344 -24.452 -12.908  0.00  0.00    +0.038 C 
ATOM     15  C   UNL     1      38.062 -26.150 -12.971  0.00  0.00    +0.003 C 
ATOM     16  C   UNL     1      36.891 -25.636 -12.413  0.00  0.00    +0.003 C 
BRANCH  12  19
ATOM     17  N   UNL     1      40.707 -26.806 -13.878  0.00  0.00    -0.387 N 
ATOM     18  N   UNL     1      40.234 -25.720 -15.869  0.00  0.00    -0.345 N 
ATOM     19  C   UNL     1      39.898 -26.013 -14.602  0.00  0.00    +0.096 C 
ATOM     20  H   UNL     1      41.532 -27.164 -14.279  0.00  0.00    +0.157 HD
ATOM     21  H   UNL     1      40.475 -27.029 -12.947  0.00  0.00    +0.157 HD
ATOM     22  H   UNL     1      41.063 -26.086 -16.256  0.00  0.00    +0.144 HD
ATOM     23  H   UNL     1      39.653 -25.139 -16.411  0.00  0.00    +0.144 HD
ENDBRANCH  12  19
ENDBRANCH  10  11
ENDBRANCH   5  10
BRANCH   6  24
ATOM     24  O   UNL     1      33.018 -23.943 -17.295  0.00  0.00    -0.426 OA
BRANCH  24  25
ATOM     25  C   UNL     1      32.017 -23.654 -16.419  0.00  0.00    +0.148 C 
ATOM     26  C   UNL     1      29.679 -23.236 -15.977  0.00  0.00    +0.034 C 
ATOM     27  C   UNL     1      30.704 -23.534 -16.874  0.00  0.00    +0.040 C 
ATOM     28  C   UNL     1      32.305 -23.473 -15.066  0.00  0.00    +0.038 C 
ATOM     29  C   UNL     1      29.966 -23.056 -14.624  0.00  0.00    +0.003 C 
ATOM     30  C   UNL     1      31.280 -23.175 -14.169  0.00  0.00    +0.003 C 
BRANCH  26  33
ATOM     31  N   UNL     1      27.333 -22.477 -15.688  0.00  0.00    -0.343 N 
ATOM     32  N   UNL     1      27.973 -23.612 -17.627  0.00  0.00    -0.285 NA
ATOM     33  C   UNL     1      28.310 -23.112 -16.452  0.00  0.00    +0.117 C 
ATOM     34  H   UNL     1      26.412 -22.404 -16.028  0.00  0.00    +0.144 HD
ATOM     35  H   UNL     1      27.563 -22.101 -14.807  0.00  0.00    +0.144 HD
ATOM     36  H   UNL     1      27.047 -23.529 -17.950  0.00  0.00    +0.188 HD
ENDBRANCH  26  33
ENDBRANCH  24  25
ENDBRANCH   6  24
TORSDOF 6
ENDMDL
MODEL 9
REMARK VINA RESULT:     -10.5      8.371     13.691
REMARK  Name = 4470378
REMARK  6 active torsions:
REMARK  status: ('A' for Active; 'I' for Inactive)
REMARK    1  A    between atoms: C_5  and  O_10
REMARK    2  A    between atoms: C_6  and  O_24
REMARK    3  A    between atoms: O_10  and  C_11
REMARK    4  A    between atoms: C_12  and  C_19
REMARK    5  A    between atoms: O_24  and  C_25
REMARK    6  A    between atoms: C_26  and  C_33
REMARK                            x       y       z     vdW  Elec       q    Type
REMARK                         _______ _______ _______ _____ _____    ______ ____
ROOT
ATOM      1  F   UNL     1      34.177 -15.676 -20.549  0.00  0.00    -0.221 F 
ATOM      2  F   UNL     1      31.446 -12.013 -21.860  0.00  0.00    -0.199 F 
ATOM      3  N   UNL     1      34.248 -13.605 -23.527  0.00  0.00    -0.331 NA
ATOM      4  C   UNL     1      32.783 -13.849 -21.158  0.00  0.00    +0.031 C 
ATOM      5  C   UNL     1      34.534 -14.553 -22.606  0.00  0.00    +0.298 C 
ATOM      6  C   UNL     1      33.218 -12.792 -23.230  0.00  0.00    +0.312 C 
ATOM      7  C   UNL     1      33.839 -14.715 -21.418  0.00  0.00    +0.270 C 
ATOM      8  C   UNL     1      32.458 -12.861 -22.082  0.00  0.00    +0.201 C 
ATOM      9  C   UNL     1      32.002 -13.978 -19.895  0.00  0.00    +0.032 C 
ENDROOT
BRANCH   5  10
ATOM     10  O   UNL     1      35.580 -15.392 -22.885  0.00  0.00    -0.428 OA
BRANCH  10  11
ATOM     11  C   UNL     1      35.300 -16.738 -23.001  0.00  0.00    +0.148 C 
ATOM     12  C   UNL     1      35.326 -18.950 -22.070  0.00  0.00    +0.032 C 
ATOM     13  C   UNL     1      35.608 -17.588 -21.951  0.00  0.00    +0.040 C 
ATOM     14  C   UNL     1      34.716 -17.212 -24.165  0.00  0.00    +0.038 C 
ATOM     15  C   UNL     1      34.738 -19.441 -23.235  0.00  0.00    +0.003 C 
ATOM     16  C   UNL     1      34.434 -18.572 -24.283  0.00  0.00    +0.003 C 
BRANCH  12  19
ATOM     17  N   UNL     1      34.725 -20.728 -20.538  0.00  0.00    -0.387 N 
ATOM     18  N   UNL     1      36.853 -19.822 -20.405  0.00  0.00    -0.345 N 
ATOM     19  C   UNL     1      35.641 -19.851 -20.984  0.00  0.00    +0.096 C 
ATOM     20  H   UNL     1      34.948 -21.338 -19.798  0.00  0.00    +0.157 HD
ATOM     21  H   UNL     1      33.832 -20.760 -20.952  0.00  0.00    +0.157 HD
ATOM     22  H   UNL     1      37.060 -20.438 -19.665  0.00  0.00    +0.144 HD
ATOM     23  H   UNL     1      37.534 -19.184 -20.720  0.00  0.00    +0.144 HD
ENDBRANCH  12  19
ENDBRANCH  10  11
ENDBRANCH   5  10
BRANCH   6  24
ATOM     24  O   UNL     1      32.917 -11.816 -24.165  0.00  0.00    -0.426 OA
BRANCH  24  25
ATOM     25  C   UNL     1      33.300 -10.539 -23.892  0.00  0.00    +0.148 C 
ATOM     26  C   UNL     1      32.793  -8.343 -23.022  0.00  0.00    +0.034 C 
ATOM     27  C   UNL     1      32.401  -9.652 -23.300  0.00  0.00    +0.040 C 
ATOM     28  C   UNL     1      34.592 -10.116 -24.207  0.00  0.00    +0.038 C 
ATOM     29  C   UNL     1      34.085  -7.920 -23.336  0.00  0.00    +0.003 C 
ATOM     30  C   UNL     1      34.984  -8.807 -23.928  0.00  0.00    +0.003 C 
BRANCH  26  33
ATOM     31  N   UNL     1      30.809  -6.854 -23.133  0.00  0.00    -0.343 N 
ATOM     32  N   UNL     1      31.991  -7.095 -21.131  0.00  0.00    -0.285 NA
ATOM     33  C   UNL     1      31.855  -7.418 -22.405  0.00  0.00    +0.117 C 
ATOM     34  H   UNL     1      30.186  -6.230 -22.696  0.00  0.00    +0.144 HD
ATOM     35  H   UNL     1      30.693  -7.079 -24.084  0.00  0.00    +0.144 HD
ATOM     36  H   UNL     1      31.357  -6.470 -20.712  0.00  0.00    +0.188 HD
ENDBRANCH  26  33
ENDBRANCH  24  25
ENDBRANCH   6  24
TORSDOF 6
ENDMDL
