MODEL 1
REMARK VINA RESULT:     -12.9      0.000      0.000
REMARK  Name = 10200813
REMARK  4 active torsions:
REMARK  status: ('A' for Active; 'I' for Inactive)
REMARK    1  A    between atoms: C_3  and  C_24
REMARK    2  A    between atoms: C_8  and  C_11
REMARK    3  A    between atoms: N_10  and  C_16
REMARK    4  A    between atoms: C_24  and  C_26
REMARK                            x       y       z     vdW  Elec       q    Type
REMARK                         _______ _______ _______ _____ _____    ______ ____
ROOT
ATOM      1  O   UNL     1      34.215 -18.905 -24.877  0.00  0.00    -0.265 OA
ATOM      2  N   UNL     1      34.752 -16.810 -23.956  0.00  0.00    -0.272 N 
ATOM      3  C   UNL     1      33.878 -14.073 -23.589  0.00  0.00    +0.008 C 
ATOM      4  C   UNL     1      33.336 -14.950 -24.728  0.00  0.00    +0.022 C 
ATOM      5  C   UNL     1      34.308 -14.949 -22.402  0.00  0.00    +0.022 C 
ATOM      6  C   UNL     1      34.342 -16.029 -25.121  0.00  0.00    +0.094 C 
ATOM      7  C   UNL     1      35.294 -16.030 -22.839  0.00  0.00    +0.094 C 
ATOM      8  C   UNL     1      34.654 -18.194 -23.982  0.00  0.00    +0.303 C 
ENDROOT
BRANCH   8  11
ATOM      9  O   UNL     1      36.300 -18.703 -22.448  0.00  0.00    -0.265 OA
ATOM     10  N   UNL     1      34.173 -19.711 -22.210  0.00  0.00    -0.277 N 
ATOM     11  C   UNL     1      35.140 -18.908 -22.779  0.00  0.00    +0.303 C 
ATOM     12  H   UNL     1      33.294 -19.719 -22.655  0.00  0.00    +0.155 HD
BRANCH  10  16
ATOM     13  O   UNL     1      32.333 -22.293 -18.509  0.00  0.00    -0.407 OA
ATOM     14  O   UNL     1      32.523 -23.625 -16.629  0.00  0.00    -0.223 OA
ATOM     15  N   UNL     1      34.423 -22.868 -17.745  0.00  0.00    -0.287 N 
ATOM     16  C   UNL     1      34.303 -20.524 -21.060  0.00  0.00    +0.054 C 
ATOM     17  C   UNL     1      33.154 -20.962 -20.413  0.00  0.00    +0.054 C 
ATOM     18  C   UNL     1      35.587 -20.862 -20.613  0.00  0.00    +0.016 C 
ATOM     19  C   UNL     1      33.336 -21.752 -19.299  0.00  0.00    +0.167 A 
ATOM     20  C   UNL     1      34.596 -22.086 -18.855  0.00  0.00    +0.096 A 
ATOM     21  C   UNL     1      35.748 -21.664 -19.481  0.00  0.00    +0.022 C 
ATOM     22  C   UNL     1      33.060 -22.996 -17.531  0.00  0.00    +0.419 A 
ATOM     23  H   UNL     1      35.137 -23.268 -17.196  0.00  0.00    +0.172 HD
ENDBRANCH  10  16
ENDBRANCH   8  11
BRANCH   3  24
ATOM     24  C   UNL     1      32.838 -13.042 -23.155  0.00  0.00    +0.026 C 
BRANCH  24  26
ATOM     25  F   UNL     1      34.610  -7.792 -24.093  0.00  0.00    -0.204 F 
ATOM     26  C   UNL     1      33.313 -11.637 -23.405  0.00  0.00    -0.022 C 
ATOM     27  C   UNL     1      32.662 -10.576 -22.792  0.00  0.00    -0.002 C 
ATOM     28  C   UNL     1      34.394 -11.421 -24.248  0.00  0.00    -0.002 C 
ATOM     29  C   UNL     1      33.102  -9.273 -23.024  0.00  0.00    +0.029 C 
ATOM     30  C   UNL     1      34.835 -10.118 -24.481  0.00  0.00    +0.029 C 
ATOM     31  C   UNL     1      34.189  -9.044 -23.869  0.00  0.00    +0.140 C 
ENDBRANCH  24  26
ENDBRANCH   3  24
TORSDOF 4
ENDMDL
MODEL 2
REMARK VINA RESULT:     -12.6      4.077      6.981
REMARK  Name = 10200813
REMARK  4 active torsions:
REMARK  status: ('A' for Active; 'I' for Inactive)
REMARK    1  A    between atoms: C_3  and  C_24
REMARK    2  A    between atoms: C_8  and  C_11
REMARK    3  A    between atoms: N_10  and  C_16
REMARK    4  A    between atoms: C_24  and  C_26
REMARK                            x       y       z     vdW  Elec       q    Type
REMARK                         _______ _______ _______ _____ _____    ______ ____
ROOT
ATOM      1  O   UNL     1      31.836 -22.263 -18.145  0.00  0.00    -0.265 OA
ATOM      2  N   UNL     1      33.715 -22.044 -19.541  0.00  0.00    -0.272 N 
ATOM      3  C   UNL     1      35.304 -20.214 -21.128  0.00  0.00    +0.008 C 
ATOM      4  C   UNL     1      33.837 -19.919 -20.779  0.00  0.00    +0.022 C 
ATOM      5  C   UNL     1      35.937 -21.108 -20.049  0.00  0.00    +0.022 C 
ATOM      6  C   UNL     1      33.055 -21.210 -20.542  0.00  0.00    +0.094 C 
ATOM      7  C   UNL     1      35.115 -22.375 -19.825  0.00  0.00    +0.094 C 
ATOM      8  C   UNL     1      33.001 -22.499 -18.442  0.00  0.00    +0.303 C 
ENDROOT
BRANCH   8  11
ATOM      9  O   UNL     1      33.835 -24.559 -17.821  0.00  0.00    -0.265 OA
ATOM     10  N   UNL     1      34.196 -22.707 -16.392  0.00  0.00    -0.277 N 
ATOM     11  C   UNL     1      33.733 -23.381 -17.504  0.00  0.00    +0.303 C 
ATOM     12  H   UNL     1      33.994 -21.744 -16.348  0.00  0.00    +0.155 HD
BRANCH  10  16
ATOM     13  O   UNL     1      34.530 -24.612 -11.920  0.00  0.00    -0.407 OA
ATOM     14  O   UNL     1      35.708 -25.498 -10.138  0.00  0.00    -0.223 OA
ATOM     15  N   UNL     1      36.814 -24.822 -12.074  0.00  0.00    -0.287 N 
ATOM     16  C   UNL     1      34.929 -23.246 -15.309  0.00  0.00    +0.054 C 
ATOM     17  C   UNL     1      34.245 -23.641 -14.166  0.00  0.00    +0.054 C 
ATOM     18  C   UNL     1      36.321 -23.364 -15.426  0.00  0.00    +0.016 C 
ATOM     19  C   UNL     1      35.006 -24.160 -13.140  0.00  0.00    +0.167 A 
ATOM     20  C   UNL     1      36.374 -24.278 -13.251  0.00  0.00    +0.096 A 
ATOM     21  C   UNL     1      37.071 -23.893 -14.374  0.00  0.00    +0.022 C 
ATOM     22  C   UNL     1      35.706 -25.026 -11.267  0.00  0.00    +0.419 A 
ATOM     23  H   UNL     1      37.748 -25.031 -11.842  0.00  0.00    +0.172 HD
ENDBRANCH  10  16
ENDBRANCH   8  11
BRANCH   3  24
ATOM     24  C   UNL     1      36.094 -18.918 -21.292  0.00  0.00    +0.026 C 
BRANCH  24  26
ATOM     25  F   UNL     1      34.006 -15.735 -25.427  0.00  0.00    -0.204 F 
ATOM     26  C   UNL     1      35.536 -18.066 -22.399  0.00  0.00    -0.022 C 
ATOM     27  C   UNL     1      35.426 -16.694 -22.217  0.00  0.00    -0.002 C 
ATOM     28  C   UNL     1      35.137 -18.663 -23.587  0.00  0.00    -0.002 C 
ATOM     29  C   UNL     1      34.908 -15.904 -23.244  0.00  0.00    +0.029 C 
ATOM     30  C   UNL     1      34.619 -17.874 -24.614  0.00  0.00    +0.029 C 
ATOM     31  C   UNL     1      34.505 -16.494 -24.442  0.00  0.00    +0.140 C 
ENDBRANCH  24  26
ENDBRANCH   3  24
TORSDOF 4
ENDMDL
MODEL 3
REMARK VINA RESULT:     -12.6      1.718      2.206
REMARK  Name = 10200813
REMARK  4 active torsions:
REMARK  status: ('A' for Active; 'I' for Inactive)
REMARK    1  A    between atoms: C_3  and  C_24
REMARK    2  A    between atoms: C_8  and  C_11
REMARK    3  A    between atoms: N_10  and  C_16
REMARK    4  A    between atoms: C_24  and  C_26
REMARK                            x       y       z     vdW  Elec       q    Type
REMARK                         _______ _______ _______ _____ _____    ______ ____
ROOT
ATOM      1  O   UNL     1      34.821 -17.238 -24.784  0.00  0.00    -0.265 OA
ATOM      2  N   UNL     1      34.683 -15.590 -23.114  0.00  0.00    -0.272 N 
ATOM      3  C   UNL     1      33.087 -13.434 -22.019  0.00  0.00    +0.008 C 
ATOM      4  C   UNL     1      32.926 -13.902 -23.474  0.00  0.00    +0.022 C 
ATOM      5  C   UNL     1      33.594 -14.590 -21.143  0.00  0.00    +0.022 C 
ATOM      6  C   UNL     1      34.218 -14.525 -24.000  0.00  0.00    +0.094 C 
ATOM      7  C   UNL     1      34.872 -15.201 -21.713  0.00  0.00    +0.094 C 
ATOM      8  C   UNL     1      34.955 -16.848 -23.631  0.00  0.00    +0.303 C 
ENDROOT
BRANCH   8  11
ATOM      9  O   UNL     1      36.672 -17.824 -22.438  0.00  0.00    -0.265 OA
ATOM     10  N   UNL     1      34.480 -18.679 -22.184  0.00  0.00    -0.277 N 
ATOM     11  C   UNL     1      35.471 -17.852 -22.672  0.00  0.00    +0.303 C 
ATOM     12  H   UNL     1      33.568 -18.514 -22.518  0.00  0.00    +0.155 HD
BRANCH  10  16
ATOM     13  O   UNL     1      32.699 -22.075 -19.176  0.00  0.00    -0.407 OA
ATOM     14  O   UNL     1      32.918 -23.809 -17.662  0.00  0.00    -0.223 OA
ATOM     15  N   UNL     1      34.801 -22.793 -18.585  0.00  0.00    -0.287 N 
ATOM     16  C   UNL     1      34.628 -19.738 -21.258  0.00  0.00    +0.054 C 
ATOM     17  C   UNL     1      33.489 -20.326 -20.721  0.00  0.00    +0.054 C 
ATOM     18  C   UNL     1      35.920 -20.159 -20.913  0.00  0.00    +0.016 C 
ATOM     19  C   UNL     1      33.689 -21.354 -19.825  0.00  0.00    +0.167 A 
ATOM     20  C   UNL     1      34.957 -21.771 -19.483  0.00  0.00    +0.096 A 
ATOM     21  C   UNL     1      36.099 -21.202 -20.002  0.00  0.00    +0.022 C 
ATOM     22  C   UNL     1      33.441 -22.980 -18.396  0.00  0.00    +0.419 A 
ATOM     23  H   UNL     1      35.524 -23.303 -18.152  0.00  0.00    +0.172 HD
ENDBRANCH  10  16
ENDBRANCH   8  11
BRANCH   3  24
ATOM     24  C   UNL     1      31.771 -12.879 -21.479  0.00  0.00    +0.026 C 
BRANCH  24  26
ATOM     25  F   UNL     1      32.168  -7.397 -20.304  0.00  0.00    -0.204 F 
ATOM     26  C   UNL     1      31.877 -11.412 -21.165  0.00  0.00    -0.022 C 
ATOM     27  C   UNL     1      31.966 -10.494 -22.203  0.00  0.00    -0.002 C 
ATOM     28  C   UNL     1      31.885 -10.995 -19.841  0.00  0.00    -0.002 C 
ATOM     29  C   UNL     1      32.064  -9.134 -21.911  0.00  0.00    +0.029 C 
ATOM     30  C   UNL     1      31.983  -9.634 -19.549  0.00  0.00    +0.029 C 
ATOM     31  C   UNL     1      32.072  -8.704 -20.584  0.00  0.00    +0.140 C 
ENDBRANCH  24  26
ENDBRANCH   3  24
TORSDOF 4
ENDMDL
MODEL 4
REMARK VINA RESULT:     -12.4      4.231      7.228
REMARK  Name = 10200813
REMARK  4 active torsions:
REMARK  status: ('A' for Active; 'I' for Inactive)
REMARK    1  A    between atoms: C_3  and  C_24
REMARK    2  A    between atoms: C_8  and  C_11
REMARK    3  A    between atoms: N_10  and  C_16
REMARK    4  A    between atoms: C_24  and  C_26
REMARK                            x       y       z     vdW  Elec       q    Type
REMARK                         _______ _______ _______ _____ _____    ______ ____
ROOT
ATOM      1  O   UNL     1      31.977 -22.362 -17.829  0.00  0.00    -0.265 OA
ATOM      2  N   UNL     1      33.686 -22.127 -19.426  0.00  0.00    -0.272 N 
ATOM      3  C   UNL     1      35.116 -20.271 -21.130  0.00  0.00    +0.008 C 
ATOM      4  C   UNL     1      33.705 -19.965 -20.605  0.00  0.00    +0.022 C 
ATOM      5  C   UNL     1      35.852 -21.208 -20.160  0.00  0.00    +0.022 C 
ATOM      6  C   UNL     1      32.931 -21.250 -20.319  0.00  0.00    +0.094 C 
ATOM      7  C   UNL     1      35.038 -22.469 -19.880  0.00  0.00    +0.094 C 
ATOM      8  C   UNL     1      33.095 -22.606 -18.266  0.00  0.00    +0.303 C 
ENDROOT
BRANCH   8  11
ATOM      9  O   UNL     1      33.809 -24.723 -17.692  0.00  0.00    -0.265 OA
ATOM     10  N   UNL     1      34.686 -22.868 -16.513  0.00  0.00    -0.277 N 
ATOM     11  C   UNL     1      33.913 -23.529 -17.447  0.00  0.00    +0.303 C 
ATOM     12  H   UNL     1      34.609 -21.886 -16.497  0.00  0.00    +0.155 HD
BRANCH  10  16
ATOM     13  O   UNL     1      39.106 -24.356 -15.098  0.00  0.00    -0.407 OA
ATOM     14  O   UNL     1      40.579 -25.292 -13.581  0.00  0.00    -0.223 OA
ATOM     15  N   UNL     1      38.321 -25.062 -13.056  0.00  0.00    -0.287 N 
ATOM     16  C   UNL     1      35.577 -23.444 -15.577  0.00  0.00    +0.054 C 
ATOM     17  C   UNL     1      36.918 -23.571 -15.916  0.00  0.00    +0.054 C 
ATOM     18  C   UNL     1      35.075 -23.867 -14.339  0.00  0.00    +0.016 C 
ATOM     19  C   UNL     1      37.743 -24.137 -14.968  0.00  0.00    +0.167 A 
ATOM     20  C   UNL     1      37.255 -24.554 -13.749  0.00  0.00    +0.096 A 
ATOM     21  C   UNL     1      35.929 -24.438 -13.393  0.00  0.00    +0.022 C 
ATOM     22  C   UNL     1      39.440 -24.944 -13.864  0.00  0.00    +0.419 A 
ATOM     23  H   UNL     1      38.297 -25.441 -12.147  0.00  0.00    +0.172 HD
ENDBRANCH  10  16
ENDBRANCH   8  11
BRANCH   3  24
ATOM     24  C   UNL     1      35.907 -18.983 -21.346  0.00  0.00    +0.026 C 
BRANCH  24  26
ATOM     25  F   UNL     1      34.037 -16.134 -25.816  0.00  0.00    -0.204 F 
ATOM     26  C   UNL     1      35.407 -18.220 -22.542  0.00  0.00    -0.022 C 
ATOM     27  C   UNL     1      35.428 -16.832 -22.527  0.00  0.00    -0.002 C 
ATOM     28  C   UNL     1      34.931 -18.915 -23.646  0.00  0.00    -0.002 C 
ATOM     29  C   UNL     1      34.964 -16.126 -23.637  0.00  0.00    +0.029 C 
ATOM     30  C   UNL     1      34.467 -18.208 -24.756  0.00  0.00    +0.029 C 
ATOM     31  C   UNL     1      34.484 -16.814 -24.751  0.00  0.00    +0.140 C 
ENDBRANCH  24  26
ENDBRANCH   3  24
TORSDOF 4
ENDMDL
MODEL 5
REMARK VINA RESULT:     -11.6      3.647      6.497
REMARK  Name = 10200813
REMARK  4 active torsions:
REMARK  status: ('A' for Active; 'I' for Inactive)
REMARK    1  A    between atoms: C_3  and  C_24
REMARK    2  A    between atoms: C_8  and  C_11
REMARK    3  A    between atoms: N_10  and  C_16
REMARK    4  A    between atoms: C_24  and  C_26
REMARK                            x       y       z     vdW  Elec       q    Type
REMARK                         _______ _______ _______ _____ _____    ______ ____
ROOT
ATOM      1  O   UNL     1      31.899 -11.647 -19.866  0.00  0.00    -0.265 OA
ATOM      2  N   UNL     1      32.211 -10.508 -21.899  0.00  0.00    -0.272 N 
ATOM      3  C   UNL     1      33.337  -8.158 -23.165  0.00  0.00    +0.008 C 
ATOM      4  C   UNL     1      32.989  -8.183 -21.669  0.00  0.00    +0.022 C 
ATOM      5  C   UNL     1      33.665  -9.577 -23.658  0.00  0.00    +0.022 C 
ATOM      6  C   UNL     1      31.874  -9.185 -21.378  0.00  0.00    +0.094 C 
ATOM      7  C   UNL     1      32.538 -10.553 -23.328  0.00  0.00    +0.094 C 
ATOM      8  C   UNL     1      32.163 -11.613 -21.062  0.00  0.00    +0.303 C 
ENDROOT
BRANCH   8  11
ATOM      9  O   UNL     1      31.617 -13.391 -22.426  0.00  0.00    -0.265 OA
ATOM     10  N   UNL     1      33.707 -13.408 -21.317  0.00  0.00    -0.277 N 
ATOM     11  C   UNL     1      32.470 -12.921 -21.685  0.00  0.00    +0.303 C 
ATOM     12  H   UNL     1      34.232 -12.849 -20.699  0.00  0.00    +0.155 HD
BRANCH  10  16
ATOM     13  O   UNL     1      35.809 -17.713 -20.422  0.00  0.00    -0.407 OA
ATOM     14  O   UNL     1      36.788 -19.705 -21.072  0.00  0.00    -0.223 OA
ATOM     15  N   UNL     1      36.049 -18.171 -22.662  0.00  0.00    -0.287 N 
ATOM     16  C   UNL     1      34.306 -14.622 -21.728  0.00  0.00    +0.054 C 
ATOM     17  C   UNL     1      34.738 -15.520 -20.759  0.00  0.00    +0.054 C 
ATOM     18  C   UNL     1      34.441 -14.879 -23.099  0.00  0.00    +0.016 C 
ATOM     19  C   UNL     1      35.313 -16.687 -21.212  0.00  0.00    +0.167 A 
ATOM     20  C   UNL     1      35.448 -16.945 -22.559  0.00  0.00    +0.096 A 
ATOM     21  C   UNL     1      35.027 -16.070 -23.535  0.00  0.00    +0.022 C 
ATOM     22  C   UNL     1      36.269 -18.639 -21.377  0.00  0.00    +0.419 A 
ATOM     23  H   UNL     1      36.282 -18.637 -23.498  0.00  0.00    +0.172 HD
ENDBRANCH  10  16
ENDBRANCH   8  11
BRANCH   3  24
ATOM     24  C   UNL     1      34.500  -7.207 -23.437  0.00  0.00    +0.026 C 
BRANCH  24  26
ATOM     25  F   UNL     1      33.021  -3.086 -26.961  0.00  0.00    -0.204 F 
ATOM     26  C   UNL     1      34.104  -6.103 -24.379  0.00  0.00    -0.022 C 
ATOM     27  C   UNL     1      32.906  -5.430 -24.181  0.00  0.00    -0.002 C 
ATOM     28  C   UNL     1      34.942  -5.774 -25.436  0.00  0.00    -0.002 C 
ATOM     29  C   UNL     1      32.540  -4.407 -25.055  0.00  0.00    +0.029 C 
ATOM     30  C   UNL     1      34.575  -4.751 -26.311  0.00  0.00    +0.029 C 
ATOM     31  C   UNL     1      33.374  -4.067 -26.120  0.00  0.00    +0.140 C 
ENDBRANCH  24  26
ENDBRANCH   3  24
TORSDOF 4
ENDMDL
MODEL 6
REMARK VINA RESULT:     -11.5      5.425     10.268
REMARK  Name = 10200813
REMARK  4 active torsions:
REMARK  status: ('A' for Active; 'I' for Inactive)
REMARK    1  A    between atoms: C_3  and  C_24
REMARK    2  A    between atoms: C_8  and  C_11
REMARK    3  A    between atoms: N_10  and  C_16
REMARK    4  A    between atoms: C_24  and  C_26
REMARK                            x       y       z     vdW  Elec       q    Type
REMARK                         _______ _______ _______ _____ _____    ______ ____
ROOT
ATOM      1  O   UNL     1      33.380 -13.202 -26.204  0.00  0.00    -0.265 OA
ATOM      2  N   UNL     1      33.604 -14.604 -24.331  0.00  0.00    -0.272 N 
ATOM      3  C   UNL     1      34.849 -17.001 -23.282  0.00  0.00    +0.008 C 
ATOM      4  C   UNL     1      34.661 -16.780 -24.791  0.00  0.00    +0.022 C 
ATOM      5  C   UNL     1      34.959 -15.650 -22.558  0.00  0.00    +0.022 C 
ATOM      6  C   UNL     1      33.476 -15.858 -25.071  0.00  0.00    +0.094 C 
ATOM      7  C   UNL     1      33.771 -14.748 -22.881  0.00  0.00    +0.094 C 
ATOM      8  C   UNL     1      33.519 -13.394 -25.003  0.00  0.00    +0.303 C 
ENDROOT
BRANCH   8  11
ATOM      9  O   UNL     1      34.541 -11.416 -24.397  0.00  0.00    -0.265 OA
ATOM     10  N   UNL     1      32.587 -12.087 -23.242  0.00  0.00    -0.277 N 
ATOM     11  C   UNL     1      33.607 -12.173 -24.168  0.00  0.00    +0.303 C 
ATOM     12  H   UNL     1      31.935 -12.825 -23.240  0.00  0.00    +0.155 HD
BRANCH  10  16
ATOM     13  O   UNL     1      32.588  -7.413 -21.865  0.00  0.00    -0.407 OA
ATOM     14  O   UNL     1      32.246  -5.713 -20.334  0.00  0.00    -0.223 OA
ATOM     15  N   UNL     1      31.839  -7.933 -19.755  0.00  0.00    -0.287 N 
ATOM     16  C   UNL     1      32.376 -11.057 -22.296  0.00  0.00    +0.054 C 
ATOM     17  C   UNL     1      32.627  -9.742 -22.666  0.00  0.00    +0.054 C 
ATOM     18  C   UNL     1      31.918 -11.399 -21.016  0.00  0.00    +0.016 C 
ATOM     19  C   UNL     1      32.403  -8.777 -21.708  0.00  0.00    +0.167 A 
ATOM     20  C   UNL     1      31.954  -9.108 -20.448  0.00  0.00    +0.096 A 
ATOM     21  C   UNL     1      31.699 -10.405 -20.060  0.00  0.00    +0.022 C 
ATOM     22  C   UNL     1      32.220  -6.907 -20.604  0.00  0.00    +0.419 A 
ATOM     23  H   UNL     1      31.539  -7.834 -18.822  0.00  0.00    +0.172 HD
ENDBRANCH  10  16
ENDBRANCH   8  11
BRANCH   3  24
ATOM     24  C   UNL     1      36.077 -17.866 -23.009  0.00  0.00    +0.026 C 
BRANCH  24  26
ATOM     25  F   UNL     1      34.988 -21.869 -19.217  0.00  0.00    -0.204 F 
ATOM     26  C   UNL     1      35.786 -18.936 -21.994  0.00  0.00    -0.022 C 
ATOM     27  C   UNL     1      36.804 -19.390 -21.166  0.00  0.00    -0.002 C 
ATOM     28  C   UNL     1      34.502 -19.458 -21.899  0.00  0.00    -0.002 C 
ATOM     29  C   UNL     1      36.533 -20.383 -20.225  0.00  0.00    +0.029 C 
ATOM     30  C   UNL     1      34.231 -20.451 -20.957  0.00  0.00    +0.029 C 
ATOM     31  C   UNL     1      35.247 -20.913 -20.120  0.00  0.00    +0.140 C 
ENDBRANCH  24  26
ENDBRANCH   3  24
TORSDOF 4
ENDMDL
MODEL 7
REMARK VINA RESULT:     -11.3      5.083     11.331
REMARK  Name = 10200813
REMARK  4 active torsions:
REMARK  status: ('A' for Active; 'I' for Inactive)
REMARK    1  A    between atoms: C_3  and  C_24
REMARK    2  A    between atoms: C_8  and  C_11
REMARK    3  A    between atoms: N_10  and  C_16
REMARK    4  A    between atoms: C_24  and  C_26
REMARK                            x       y       z     vdW  Elec       q    Type
REMARK                         _______ _______ _______ _____ _____    ______ ____
ROOT
ATOM      1  O   UNL     1      37.247 -19.502 -20.179  0.00  0.00    -0.265 OA
ATOM      2  N   UNL     1      35.903 -21.357 -19.651  0.00  0.00    -0.272 N 
ATOM      3  C   UNL     1      34.948 -23.080 -17.528  0.00  0.00    +0.008 C 
ATOM      4  C   UNL     1      36.243 -22.265 -17.388  0.00  0.00    +0.022 C 
ATOM      5  C   UNL     1      33.982 -22.380 -18.496  0.00  0.00    +0.022 C 
ATOM      6  C   UNL     1      36.869 -21.985 -18.752  0.00  0.00    +0.094 C 
ATOM      7  C   UNL     1      34.651 -22.096 -19.839  0.00  0.00    +0.094 C 
ATOM      8  C   UNL     1      36.225 -20.168 -20.289  0.00  0.00    +0.303 C 
ENDROOT
BRANCH   8  11
ATOM      9  O   UNL     1      34.042 -19.920 -20.993  0.00  0.00    -0.265 OA
ATOM     10  N   UNL     1      35.762 -18.860 -22.225  0.00  0.00    -0.277 N 
ATOM     11  C   UNL     1      35.209 -19.629 -21.222  0.00  0.00    +0.303 C 
ATOM     12  H   UNL     1      36.742 -18.759 -22.210  0.00  0.00    +0.155 HD
BRANCH  10  16
ATOM     13  O   UNL     1      34.018 -14.871 -24.415  0.00  0.00    -0.407 OA
ATOM     14  O   UNL     1      32.908 -13.773 -26.121  0.00  0.00    -0.223 OA
ATOM     15  N   UNL     1      33.163 -16.088 -26.167  0.00  0.00    -0.287 N 
ATOM     16  C   UNL     1      35.079 -18.201 -23.274  0.00  0.00    +0.054 C 
ATOM     17  C   UNL     1      34.940 -16.819 -23.222  0.00  0.00    +0.054 C 
ATOM     18  C   UNL     1      34.567 -18.964 -24.332  0.00  0.00    +0.016 C 
ATOM     19  C   UNL     1      34.268 -16.226 -24.269  0.00  0.00    +0.167 A 
ATOM     20  C   UNL     1      33.762 -16.973 -25.310  0.00  0.00    +0.096 A 
ATOM     21  C   UNL     1      33.889 -18.342 -25.382  0.00  0.00    +0.022 C 
ATOM     22  C   UNL     1      33.315 -14.819 -25.633  0.00  0.00    +0.419 A 
ATOM     23  H   UNL     1      32.708 -16.313 -27.011  0.00  0.00    +0.172 HD
ENDBRANCH  10  16
ENDBRANCH   8  11
BRANCH   3  24
ATOM     24  C   UNL     1      34.292 -23.295 -16.166  0.00  0.00    +0.026 C 
BRANCH  24  26
ATOM     25  F   UNL     1      37.826 -25.702 -12.518  0.00  0.00    -0.204 F 
ATOM     26  C   UNL     1      35.238 -23.939 -15.191  0.00  0.00    -0.022 C 
ATOM     27  C   UNL     1      35.606 -25.266 -15.368  0.00  0.00    -0.002 C 
ATOM     28  C   UNL     1      35.730 -23.198 -14.124  0.00  0.00    -0.002 C 
ATOM     29  C   UNL     1      36.484 -25.863 -14.463  0.00  0.00    +0.029 C 
ATOM     30  C   UNL     1      36.608 -23.795 -13.219  0.00  0.00    +0.029 C 
ATOM     31  C   UNL     1      36.985 -25.127 -13.389  0.00  0.00    +0.140 C 
ENDBRANCH  24  26
ENDBRANCH   3  24
TORSDOF 4
ENDMDL
MODEL 8
REMARK VINA RESULT:     -11.3      4.758      7.455
REMARK  Name = 10200813
REMARK  4 active torsions:
REMARK  status: ('A' for Active; 'I' for Inactive)
REMARK    1  A    between atoms: C_3  and  C_24
REMARK    2  A    between atoms: C_8  and  C_11
REMARK    3  A    between atoms: N_10  and  C_16
REMARK    4  A    between atoms: C_24  and  C_26
REMARK                            x       y       z     vdW  Elec       q    Type
REMARK                         _______ _______ _______ _____ _____    ______ ____
ROOT
ATOM      1  O   UNL     1      31.945 -10.978 -19.514  0.00  0.00    -0.265 OA
ATOM      2  N   UNL     1      32.132  -9.985 -21.637  0.00  0.00    -0.272 N 
ATOM      3  C   UNL     1      33.327  -7.833 -23.164  0.00  0.00    +0.008 C 
ATOM      4  C   UNL     1      33.152  -7.744 -21.640  0.00  0.00    +0.022 C 
ATOM      5  C   UNL     1      33.457  -9.302 -23.599  0.00  0.00    +0.022 C 
ATOM      6  C   UNL     1      31.986  -8.609 -21.167  0.00  0.00    +0.094 C 
ATOM      7  C   UNL     1      32.287 -10.138 -23.087  0.00  0.00    +0.094 C 
ATOM      8  C   UNL     1      32.072 -11.034 -20.731  0.00  0.00    +0.303 C 
ENDROOT
BRANCH   8  11
ATOM      9  O   UNL     1      31.137 -13.033 -21.402  0.00  0.00    -0.265 OA
ATOM     10  N   UNL     1      33.473 -12.736 -21.634  0.00  0.00    -0.277 N 
ATOM     11  C   UNL     1      32.177 -12.397 -21.300  0.00  0.00    +0.303 C 
ATOM     12  H   UNL     1      34.162 -12.053 -21.461  0.00  0.00    +0.155 HD
BRANCH  10  16
ATOM     13  O   UNL     1      33.810 -15.951 -25.281  0.00  0.00    -0.407 OA
ATOM     14  O   UNL     1      34.535 -17.935 -26.220  0.00  0.00    -0.223 OA
ATOM     15  N   UNL     1      35.093 -17.387 -24.025  0.00  0.00    -0.287 N 
ATOM     16  C   UNL     1      33.921 -13.954 -22.196  0.00  0.00    +0.054 C 
ATOM     17  C   UNL     1      33.574 -14.257 -23.506  0.00  0.00    +0.054 C 
ATOM     18  C   UNL     1      34.702 -14.813 -21.411  0.00  0.00    +0.016 C 
ATOM     19  C   UNL     1      34.037 -15.455 -24.006  0.00  0.00    +0.167 A 
ATOM     20  C   UNL     1      34.805 -16.304 -23.239  0.00  0.00    +0.096 A 
ATOM     21  C   UNL     1      35.161 -16.023 -21.938  0.00  0.00    +0.022 C 
ATOM     22  C   UNL     1      34.495 -17.179 -25.258  0.00  0.00    +0.419 A 
ATOM     23  H   UNL     1      35.628 -18.171 -23.763  0.00  0.00    +0.172 HD
ENDBRANCH  10  16
ENDBRANCH   8  11
BRANCH   3  24
ATOM     24  C   UNL     1      34.538  -7.022 -23.620  0.00  0.00    +0.026 C 
BRANCH  24  26
ATOM     25  F   UNL     1      33.069  -2.942 -27.195  0.00  0.00    -0.204 F 
ATOM     26  C   UNL     1      34.145  -5.931 -24.577  0.00  0.00    -0.022 C 
ATOM     27  C   UNL     1      34.985  -5.613 -25.636  0.00  0.00    -0.002 C 
ATOM     28  C   UNL     1      32.947  -5.254 -24.389  0.00  0.00    -0.002 C 
ATOM     29  C   UNL     1      34.620  -4.601 -26.523  0.00  0.00    +0.029 C 
ATOM     30  C   UNL     1      32.582  -4.242 -25.276  0.00  0.00    +0.029 C 
ATOM     31  C   UNL     1      33.419  -3.915 -26.344  0.00  0.00    +0.140 C 
ENDBRANCH  24  26
ENDBRANCH   3  24
TORSDOF 4
ENDMDL
MODEL 9
REMARK VINA RESULT:     -11.1      5.481     10.964
REMARK  Name = 10200813
REMARK  4 active torsions:
REMARK  status: ('A' for Active; 'I' for Inactive)
REMARK    1  A    between atoms: C_3  and  C_24
REMARK    2  A    between atoms: C_8  and  C_11
REMARK    3  A    between atoms: N_10  and  C_16
REMARK    4  A    between atoms: C_24  and  C_26
REMARK                            x       y       z     vdW  Elec       q    Type
REMARK                         _______ _______ _______ _____ _____    ______ ____
ROOT
ATOM      1  O   UNL     1      33.517 -13.304 -25.826  0.00  0.00    -0.265 OA
ATOM      2  N   UNL     1      33.671 -14.739 -23.970  0.00  0.00    -0.272 N 
ATOM      3  C   UNL     1      35.029 -17.034 -22.838  0.00  0.00    +0.008 C 
ATOM      4  C   UNL     1      34.990 -16.782 -24.354  0.00  0.00    +0.022 C 
ATOM      5  C   UNL     1      34.918 -15.704 -22.076  0.00  0.00    +0.022 C 
ATOM      6  C   UNL     1      33.756 -15.973 -24.747  0.00  0.00    +0.094 C 
ATOM      7  C   UNL     1      33.687 -14.914 -22.514  0.00  0.00    +0.094 C 
ATOM      8  C   UNL     1      33.538 -13.521 -24.621  0.00  0.00    +0.303 C 
ENDROOT
BRANCH   8  11
ATOM      9  O   UNL     1      33.222 -12.529 -22.562  0.00  0.00    -0.265 OA
ATOM     10  N   UNL     1      33.521 -11.145 -24.457  0.00  0.00    -0.277 N 
ATOM     11  C   UNL     1      33.407 -12.327 -23.754  0.00  0.00    +0.303 C 
ATOM     12  H   UNL     1      33.671 -11.225 -25.428  0.00  0.00    +0.155 HD
BRANCH  10  16
ATOM     13  O   UNL     1      31.067  -7.359 -22.615  0.00  0.00    -0.407 OA
ATOM     14  O   UNL     1      30.920  -5.214 -21.763  0.00  0.00    -0.223 OA
ATOM     15  N   UNL     1      32.975  -6.091 -22.425  0.00  0.00    -0.287 N 
ATOM     16  C   UNL     1      33.444  -9.831 -23.940  0.00  0.00    +0.054 C 
ATOM     17  C   UNL     1      32.206  -9.331 -23.554  0.00  0.00    +0.054 C 
ATOM     18  C   UNL     1      34.621  -9.076 -23.833  0.00  0.00    +0.016 C 
ATOM     19  C   UNL     1      32.187  -8.047 -23.055  0.00  0.00    +0.167 A 
ATOM     20  C   UNL     1      33.341  -7.301 -22.949  0.00  0.00    +0.096 A 
ATOM     21  C   UNL     1      34.578  -7.776 -23.325  0.00  0.00    +0.022 C 
ATOM     22  C   UNL     1      31.605  -6.120 -22.221  0.00  0.00    +0.419 A 
ATOM     23  H   UNL     1      33.576  -5.336 -22.227  0.00  0.00    +0.172 HD
ENDBRANCH  10  16
ENDBRANCH   8  11
BRANCH   3  24
ATOM     24  C   UNL     1      36.301 -17.781 -22.445  0.00  0.00    +0.026 C 
BRANCH  24  26
ATOM     25  F   UNL     1      35.165 -22.253 -19.235  0.00  0.00    -0.204 F 
ATOM     26  C   UNL     1      35.997 -18.978 -21.586  0.00  0.00    -0.022 C 
ATOM     27  C   UNL     1      34.698 -19.465 -21.526  0.00  0.00    -0.002 C 
ATOM     28  C   UNL     1      37.019 -19.580 -20.864  0.00  0.00    -0.002 C 
ATOM     29  C   UNL     1      34.417 -20.575 -20.730  0.00  0.00    +0.029 C 
ATOM     30  C   UNL     1      36.738 -20.690 -20.068  0.00  0.00    +0.029 C 
ATOM     31  C   UNL     1      35.436 -21.188 -20.001  0.00  0.00    +0.140 C 
ENDBRANCH  24  26
ENDBRANCH   3  24
TORSDOF 4
ENDMDL
