MODEL 1
REMARK VINA RESULT:     -11.7      0.000      0.000
REMARK  Name = 16122642
REMARK  7 active torsions:
REMARK  status: ('A' for Active; 'I' for Inactive)
REMARK    1  A    between atoms: C_2  and  C_10
REMARK    2  A    between atoms: C_3  and  O_18
REMARK    3  A    between atoms: O_18  and  C_19
REMARK    4  A    between atoms: C_19  and  C_20
REMARK    5  A    between atoms: C_20  and  N_21
REMARK    6  A    between atoms: C_20  and  C_25
REMARK    7  A    between atoms: C_25  and  C_27
REMARK                            x       y       z     vdW  Elec       q    Type
REMARK                         _______ _______ _______ _____ _____    ______ ____
ROOT
ATOM      1  N   UNL     1      33.483 -15.323 -25.263  0.00  0.00    -0.239 NA
ATOM      2  C   UNL     1      33.473 -13.699 -23.481  0.00  0.00    +0.022 C 
ATOM      3  C   UNL     1      34.809 -15.681 -23.274  0.00  0.00    +0.158 C 
ATOM      4  C   UNL     1      34.358 -14.476 -22.748  0.00  0.00    +0.040 C 
ATOM      5  C   UNL     1      33.068 -14.156 -24.720  0.00  0.00    +0.099 C 
ATOM      6  C   UNL     1      34.346 -16.056 -24.525  0.00  0.00    +0.136 C 
ENDROOT
BRANCH   2  10
ATOM      7  N   UNL     1      32.484  -8.105 -22.315  0.00  0.00    -0.280 N 
ATOM      8  N   UNL     1      31.666  -8.839 -21.537  0.00  0.00    -0.173 NA
ATOM      9  C   UNL     1      32.976 -10.132 -22.868  0.00  0.00    +0.032 A 
ATOM     10  C   UNL     1      32.986 -12.436 -22.958  0.00  0.00    +0.002 C 
ATOM     11  C   UNL     1      31.946 -10.115 -21.857  0.00  0.00    +0.102 A 
ATOM     12  C   UNL     1      33.547 -11.248 -23.468  0.00  0.00    +0.003 C 
ATOM     13  C   UNL     1      33.295  -8.832 -23.137  0.00  0.00    +0.053 A 
ATOM     14  C   UNL     1      31.965 -12.472 -21.957  0.00  0.00    +0.002 C 
ATOM     15  C   UNL     1      31.405 -11.318 -21.367  0.00  0.00    +0.021 C 
ATOM     16  C   UNL     1      34.251  -8.192 -24.056  0.00  0.00    +0.051 C 
ATOM     17  H   UNL     1      32.496  -7.121 -22.292  0.00  0.00    +0.189 HD
ENDBRANCH   2  10
BRANCH   3  18
ATOM     18  O   UNL     1      35.675 -16.464 -22.585  0.00  0.00    -0.476 OA
BRANCH  18  19
ATOM     19  C   UNL     1      35.859 -17.804 -23.049  0.00  0.00    +0.184 C 
BRANCH  19  20
ATOM     20  C   UNL     1      35.784 -18.788 -21.875  0.00  0.00    -0.017 C 
BRANCH  20  21
ATOM     21  N   UNL     1      35.669 -18.017 -20.633  0.00  0.00    +0.384 N 
ATOM     22  H   UNL     1      34.691 -17.971 -20.351  0.00  0.00    -0.089 HD
ATOM     23  H   UNL     1      36.024 -17.073 -20.785  0.00  0.00    -0.089 HD
ATOM     24  H   UNL     1      36.214 -18.471 -19.900  0.00  0.00    -0.089 HD
ENDBRANCH  20  21
BRANCH  20  25
ATOM     25  C   UNL     1      34.577 -19.746 -21.963  0.00  0.00    +0.008 C 
BRANCH  25  27
ATOM     26 BR   UNL     1      33.879 -23.470 -17.092  0.00  0.00    -0.049 Br
ATOM     27  C   UNL     1      34.407 -20.656 -20.771  0.00  0.00    -0.024 C 
ATOM     28  C   UNL     1      35.526 -21.228 -20.187  0.00  0.00    -0.004 C 
ATOM     29  C   UNL     1      33.134 -20.904 -20.284  0.00  0.00    -0.004 C 
ATOM     30  C   UNL     1      35.368 -22.070 -19.086  0.00  0.00    +0.006 C 
ATOM     31  C   UNL     1      32.976 -21.746 -19.183  0.00  0.00    +0.006 C 
ATOM     32  C   UNL     1      34.093 -22.328 -18.584  0.00  0.00    +0.035 C 
ENDBRANCH  25  27
ENDBRANCH  20  25
ENDBRANCH  19  20
ENDBRANCH  18  19
ENDBRANCH   3  18
TORSDOF 7
ENDMDL
MODEL 2
REMARK VINA RESULT:     -11.6      4.031     10.114
REMARK  Name = 16122642
REMARK  7 active torsions:
REMARK  status: ('A' for Active; 'I' for Inactive)
REMARK    1  A    between atoms: C_2  and  C_10
REMARK    2  A    between atoms: C_3  and  O_18
REMARK    3  A    between atoms: O_18  and  C_19
REMARK    4  A    between atoms: C_19  and  C_20
REMARK    5  A    between atoms: C_20  and  N_21
REMARK    6  A    between atoms: C_20  and  C_25
REMARK    7  A    between atoms: C_25  and  C_27
REMARK                            x       y       z     vdW  Elec       q    Type
REMARK                         _______ _______ _______ _____ _____    ______ ____
ROOT
ATOM      1  N   UNL     1      33.421 -18.348 -25.771  0.00  0.00    -0.239 NA
ATOM      2  C   UNL     1      34.637 -18.222 -23.693  0.00  0.00    +0.022 C 
ATOM      3  C   UNL     1      34.126 -16.209 -24.894  0.00  0.00    +0.158 C 
ATOM      4  C   UNL     1      34.704 -16.841 -23.798  0.00  0.00    +0.040 C 
ATOM      5  C   UNL     1      33.993 -18.927 -24.691  0.00  0.00    +0.099 C 
ATOM      6  C   UNL     1      33.502 -17.001 -25.844  0.00  0.00    +0.136 C 
ENDROOT
BRANCH   2  10
ATOM      7  N   UNL     1      35.694 -21.550 -19.063  0.00  0.00    -0.280 N 
ATOM      8  N   UNL     1      36.827 -20.883 -19.359  0.00  0.00    -0.173 NA
ATOM      9  C   UNL     1      35.133 -20.376 -20.784  0.00  0.00    +0.032 A 
ATOM     10  C   UNL     1      35.230 -18.910 -22.561  0.00  0.00    +0.002 C 
ATOM     11  C   UNL     1      36.512 -20.138 -20.433  0.00  0.00    +0.102 A 
ATOM     12  C   UNL     1      34.421 -19.803 -21.831  0.00  0.00    +0.003 C 
ATOM     13  C   UNL     1      34.642 -21.283 -19.888  0.00  0.00    +0.053 A 
ATOM     14  C   UNL     1      36.600 -18.640 -22.253  0.00  0.00    +0.002 C 
ATOM     15  C   UNL     1      37.296 -19.240 -21.181  0.00  0.00    +0.021 C 
ATOM     16  C   UNL     1      33.327 -21.923 -19.711  0.00  0.00    +0.051 C 
ATOM     17  H   UNL     1      35.630 -22.179 -18.309  0.00  0.00    +0.189 HD
ENDBRANCH   2  10
BRANCH   3  18
ATOM     18  O   UNL     1      34.172 -14.861 -25.028  0.00  0.00    -0.476 OA
BRANCH  18  19
ATOM     19  C   UNL     1      33.042 -14.117 -24.568  0.00  0.00    +0.184 C 
BRANCH  19  20
ATOM     20  C   UNL     1      33.492 -12.996 -23.622  0.00  0.00    -0.017 C 
BRANCH  20  21
ATOM     21  N   UNL     1      34.443 -13.559 -22.659  0.00  0.00    +0.384 N 
ATOM     22  H   UNL     1      35.203 -14.018 -23.161  0.00  0.00    -0.089 HD
ATOM     23  H   UNL     1      33.967 -14.240 -22.068  0.00  0.00    -0.089 HD
ATOM     24  H   UNL     1      34.822 -12.811 -22.079  0.00  0.00    -0.089 HD
ENDBRANCH  20  21
BRANCH  20  25
ATOM     25  C   UNL     1      34.179 -11.824 -24.354  0.00  0.00    +0.008 C 
BRANCH  25  27
ATOM     26 BR   UNL     1      32.613  -6.223 -22.292  0.00  0.00    -0.049 Br
ATOM     27  C   UNL     1      33.796 -10.455 -23.848  0.00  0.00    -0.024 C 
ATOM     28  C   UNL     1      32.579 -10.283 -23.207  0.00  0.00    -0.004 C 
ATOM     29  C   UNL     1      34.667  -9.395 -24.036  0.00  0.00    -0.004 C 
ATOM     30  C   UNL     1      32.226  -9.016 -22.741  0.00  0.00    +0.006 C 
ATOM     31  C   UNL     1      34.314  -8.128 -23.571  0.00  0.00    +0.006 C 
ATOM     32  C   UNL     1      33.093  -7.939 -22.923  0.00  0.00    +0.035 C 
ENDBRANCH  25  27
ENDBRANCH  20  25
ENDBRANCH  19  20
ENDBRANCH  18  19
ENDBRANCH   3  18
TORSDOF 7
ENDMDL
MODEL 3
REMARK VINA RESULT:     -11.5      0.745      1.956
REMARK  Name = 16122642
REMARK  7 active torsions:
REMARK  status: ('A' for Active; 'I' for Inactive)
REMARK    1  A    between atoms: C_2  and  C_10
REMARK    2  A    between atoms: C_3  and  O_18
REMARK    3  A    between atoms: O_18  and  C_19
REMARK    4  A    between atoms: C_19  and  C_20
REMARK    5  A    between atoms: C_20  and  N_21
REMARK    6  A    between atoms: C_20  and  C_25
REMARK    7  A    between atoms: C_25  and  C_27
REMARK                            x       y       z     vdW  Elec       q    Type
REMARK                         _______ _______ _______ _____ _____    ______ ____
ROOT
ATOM      1  N   UNL     1      33.431 -15.846 -25.569  0.00  0.00    -0.239 NA
ATOM      2  C   UNL     1      33.801 -13.967 -24.104  0.00  0.00    +0.022 C 
ATOM      3  C   UNL     1      34.823 -16.080 -23.606  0.00  0.00    +0.158 C 
ATOM      4  C   UNL     1      34.604 -14.745 -23.284  0.00  0.00    +0.040 C 
ATOM      5  C   UNL     1      33.242 -14.552 -25.224  0.00  0.00    +0.099 C 
ATOM      6  C   UNL     1      34.219 -16.577 -24.750  0.00  0.00    +0.136 C 
ENDROOT
BRANCH   2  10
ATOM      7  N   UNL     1      31.984  -8.948 -21.835  0.00  0.00    -0.280 N 
ATOM      8  N   UNL     1      32.810  -8.663 -22.860  0.00  0.00    -0.173 NA
ATOM      9  C   UNL     1      32.560 -10.900 -22.555  0.00  0.00    +0.032 A 
ATOM     10  C   UNL     1      33.554 -12.571 -23.794  0.00  0.00    +0.002 C 
ATOM     11  C   UNL     1      33.190  -9.862 -23.335  0.00  0.00    +0.102 A 
ATOM     12  C   UNL     1      32.691 -12.273 -22.720  0.00  0.00    +0.003 C 
ATOM     13  C   UNL     1      31.798 -10.280 -21.606  0.00  0.00    +0.053 A 
ATOM     14  C   UNL     1      34.202 -11.580 -24.596  0.00  0.00    +0.002 C 
ATOM     15  C   UNL     1      34.048 -10.190 -24.402  0.00  0.00    +0.021 C 
ATOM     16  C   UNL     1      30.928 -10.772 -20.525  0.00  0.00    +0.051 C 
ATOM     17  H   UNL     1      31.549  -8.251 -21.294  0.00  0.00    +0.189 HD
ENDBRANCH   2  10
BRANCH   3  18
ATOM     18  O   UNL     1      35.602 -16.868 -22.827  0.00  0.00    -0.476 OA
BRANCH  18  19
ATOM     19  C   UNL     1      35.633 -18.265 -23.130  0.00  0.00    +0.184 C 
BRANCH  19  20
ATOM     20  C   UNL     1      35.612 -19.090 -21.837  0.00  0.00    -0.017 C 
BRANCH  20  21
ATOM     21  N   UNL     1      35.672 -18.167 -20.700  0.00  0.00    +0.384 N 
ATOM     22  H   UNL     1      34.796 -17.650 -20.636  0.00  0.00    -0.089 HD
ATOM     23  H   UNL     1      36.443 -17.513 -20.833  0.00  0.00    -0.089 HD
ATOM     24  H   UNL     1      35.818 -18.696 -19.840  0.00  0.00    -0.089 HD
ENDBRANCH  20  21
BRANCH  20  25
ATOM     25  C   UNL     1      34.343 -19.956 -21.691  0.00  0.00    +0.008 C 
BRANCH  25  27
ATOM     26 BR   UNL     1      34.311 -23.655 -16.752  0.00  0.00    -0.049 Br
ATOM     27  C   UNL     1      34.334 -20.861 -20.483  0.00  0.00    -0.024 C 
ATOM     28  C   UNL     1      33.123 -21.243 -19.928  0.00  0.00    -0.004 C 
ATOM     29  C   UNL     1      35.538 -21.293 -19.952  0.00  0.00    -0.004 C 
ATOM     30  C   UNL     1      33.116 -22.079 -18.812  0.00  0.00    +0.006 C 
ATOM     31  C   UNL     1      35.531 -22.129 -18.835  0.00  0.00    +0.006 C 
ATOM     32  C   UNL     1      34.320 -22.523 -18.266  0.00  0.00    +0.035 C 
ENDBRANCH  25  27
ENDBRANCH  20  25
ENDBRANCH  19  20
ENDBRANCH  18  19
ENDBRANCH   3  18
TORSDOF 7
ENDMDL
MODEL 4
REMARK VINA RESULT:     -11.2      3.471      6.272
REMARK  Name = 16122642
REMARK  7 active torsions:
REMARK  status: ('A' for Active; 'I' for Inactive)
REMARK    1  A    between atoms: C_2  and  C_10
REMARK    2  A    between atoms: C_3  and  O_18
REMARK    3  A    between atoms: O_18  and  C_19
REMARK    4  A    between atoms: C_19  and  C_20
REMARK    5  A    between atoms: C_20  and  N_21
REMARK    6  A    between atoms: C_20  and  C_25
REMARK    7  A    between atoms: C_25  and  C_27
REMARK                            x       y       z     vdW  Elec       q    Type
REMARK                         _______ _______ _______ _____ _____    ______ ____
ROOT
ATOM      1  N   UNL     1      37.888 -19.149 -21.087  0.00  0.00    -0.239 NA
ATOM      2  C   UNL     1      35.814 -18.842 -22.279  0.00  0.00    +0.022 C 
ATOM      3  C   UNL     1      35.894 -20.330 -20.398  0.00  0.00    +0.158 C 
ATOM      4  C   UNL     1      35.175 -19.729 -21.427  0.00  0.00    +0.040 C 
ATOM      5  C   UNL     1      37.156 -18.584 -22.074  0.00  0.00    +0.099 C 
ATOM      6  C   UNL     1      37.236 -20.008 -20.273  0.00  0.00    +0.136 C 
ENDROOT
BRANCH   2  10
ATOM      7  N   UNL     1      33.132 -15.097 -25.802  0.00  0.00    -0.280 N 
ATOM      8  N   UNL     1      33.059 -16.318 -26.366  0.00  0.00    -0.173 NA
ATOM      9  C   UNL     1      34.164 -16.352 -24.381  0.00  0.00    +0.032 A 
ATOM     10  C   UNL     1      35.091 -18.199 -23.361  0.00  0.00    +0.002 C 
ATOM     11  C   UNL     1      33.696 -17.129 -25.503  0.00  0.00    +0.102 A 
ATOM     12  C   UNL     1      34.866 -16.811 -23.274  0.00  0.00    +0.003 C 
ATOM     13  C   UNL     1      33.786 -15.058 -24.606  0.00  0.00    +0.053 A 
ATOM     14  C   UNL     1      34.648 -19.013 -24.450  0.00  0.00    +0.002 C 
ATOM     15  C   UNL     1      33.935 -18.515 -25.562  0.00  0.00    +0.021 C 
ATOM     16  C   UNL     1      33.960 -13.806 -23.850  0.00  0.00    +0.051 C 
ATOM     17  H   UNL     1      32.743 -14.295 -26.220  0.00  0.00    +0.189 HD
ENDBRANCH   2  10
BRANCH   3  18
ATOM     18  O   UNL     1      35.300 -21.201 -19.547  0.00  0.00    -0.476 OA
BRANCH  18  19
ATOM     19  C   UNL     1      33.934 -21.538 -19.800  0.00  0.00    +0.184 C 
BRANCH  19  20
ATOM     20  C   UNL     1      33.548 -22.807 -19.031  0.00  0.00    -0.017 C 
BRANCH  20  21
ATOM     21  N   UNL     1      33.929 -23.970 -19.838  0.00  0.00    +0.384 N 
ATOM     22  H   UNL     1      33.090 -24.455 -20.153  0.00  0.00    -0.089 HD
ATOM     23  H   UNL     1      34.497 -24.603 -19.276  0.00  0.00    -0.089 HD
ATOM     24  H   UNL     1      34.467 -23.660 -20.648  0.00  0.00    -0.089 HD
ENDBRANCH  20  21
BRANCH  20  25
ATOM     25  C   UNL     1      34.246 -22.921 -17.659  0.00  0.00    +0.008 C 
BRANCH  25  27
ATOM     26 BR   UNL     1      30.608 -24.891 -13.081  0.00  0.00    -0.049 Br
ATOM     27  C   UNL     1      33.357 -23.402 -16.538  0.00  0.00    -0.024 C 
ATOM     28  C   UNL     1      33.931 -23.948 -15.401  0.00  0.00    -0.004 C 
ATOM     29  C   UNL     1      31.982 -23.290 -16.668  0.00  0.00    -0.004 C 
ATOM     30  C   UNL     1      33.109 -24.394 -14.367  0.00  0.00    +0.006 C 
ATOM     31  C   UNL     1      31.160 -23.736 -15.634  0.00  0.00    +0.006 C 
ATOM     32  C   UNL     1      31.723 -24.287 -14.483  0.00  0.00    +0.035 C 
ENDBRANCH  25  27
ENDBRANCH  20  25
ENDBRANCH  19  20
ENDBRANCH  18  19
ENDBRANCH   3  18
TORSDOF 7
ENDMDL
MODEL 5
REMARK VINA RESULT:     -11.2      5.231      7.829
REMARK  Name = 16122642
REMARK  7 active torsions:
REMARK  status: ('A' for Active; 'I' for Inactive)
REMARK    1  A    between atoms: C_2  and  C_10
REMARK    2  A    between atoms: C_3  and  O_18
REMARK    3  A    between atoms: O_18  and  C_19
REMARK    4  A    between atoms: C_19  and  C_20
REMARK    5  A    between atoms: C_20  and  N_21
REMARK    6  A    between atoms: C_20  and  C_25
REMARK    7  A    between atoms: C_25  and  C_27
REMARK                            x       y       z     vdW  Elec       q    Type
REMARK                         _______ _______ _______ _____ _____    ______ ____
ROOT
ATOM      1  N   UNL     1      33.044 -22.064 -19.432  0.00  0.00    -0.239 NA
ATOM      2  C   UNL     1      34.553 -20.555 -20.554  0.00  0.00    +0.022 C 
ATOM      3  C   UNL     1      35.408 -22.096 -18.926  0.00  0.00    +0.158 C 
ATOM      4  C   UNL     1      35.625 -21.076 -19.845  0.00  0.00    +0.040 C 
ATOM      5  C   UNL     1      33.295 -21.074 -20.318  0.00  0.00    +0.099 C 
ATOM      6  C   UNL     1      34.109 -22.551 -18.758  0.00  0.00    +0.136 C 
ENDROOT
BRANCH   2  10
ATOM      7  N   UNL     1      34.592 -17.184 -25.273  0.00  0.00    -0.280 N 
ATOM      8  N   UNL     1      35.260 -16.537 -24.298  0.00  0.00    -0.173 NA
ATOM      9  C   UNL     1      34.484 -18.559 -23.613  0.00  0.00    +0.032 A 
ATOM     10  C   UNL     1      34.749 -19.490 -21.521  0.00  0.00    +0.002 C 
ATOM     11  C   UNL     1      35.212 -17.369 -23.243  0.00  0.00    +0.102 A 
ATOM     12  C   UNL     1      34.210 -19.660 -22.812  0.00  0.00    +0.003 C 
ATOM     13  C   UNL     1      34.102 -18.406 -24.916  0.00  0.00    +0.053 A 
ATOM     14  C   UNL     1      35.478 -18.332 -21.106  0.00  0.00    +0.002 C 
ATOM     15  C   UNL     1      35.739 -17.227 -21.946  0.00  0.00    +0.021 C 
ATOM     16  C   UNL     1      33.346 -19.250 -25.856  0.00  0.00    +0.051 C 
ATOM     17  H   UNL     1      34.468 -16.805 -26.173  0.00  0.00    +0.189 HD
ENDBRANCH   2  10
BRANCH   3  18
ATOM     18  O   UNL     1      36.433 -22.628 -18.217  0.00  0.00    -0.476 OA
BRANCH  18  19
ATOM     19  C   UNL     1      36.544 -22.252 -16.842  0.00  0.00    +0.184 C 
BRANCH  19  20
ATOM     20  C   UNL     1      36.276 -23.462 -15.937  0.00  0.00    -0.017 C 
BRANCH  20  21
ATOM     21  N   UNL     1      37.565 -24.003 -15.497  0.00  0.00    +0.384 N 
ATOM     22  H   UNL     1      38.218 -23.237 -15.337  0.00  0.00    -0.089 HD
ATOM     23  H   UNL     1      37.938 -24.622 -16.217  0.00  0.00    -0.089 HD
ATOM     24  H   UNL     1      37.437 -24.526 -14.631  0.00  0.00    -0.089 HD
ENDBRANCH  20  21
BRANCH  20  25
ATOM     25  C   UNL     1      35.446 -23.110 -14.685  0.00  0.00    +0.008 C 
BRANCH  25  27
ATOM     26 BR   UNL     1      29.678 -25.303 -14.716  0.00  0.00    -0.049 Br
ATOM     27  C   UNL     1      34.035 -23.647 -14.694  0.00  0.00    -0.024 C 
ATOM     28  C   UNL     1      33.174 -23.280 -15.716  0.00  0.00    -0.004 C 
ATOM     29  C   UNL     1      33.627 -24.496 -13.678  0.00  0.00    -0.004 C 
ATOM     30  C   UNL     1      31.870 -23.775 -15.723  0.00  0.00    +0.006 C 
ATOM     31  C   UNL     1      32.323 -24.992 -13.685  0.00  0.00    +0.006 C 
ATOM     32  C   UNL     1      31.445 -24.632 -14.707  0.00  0.00    +0.035 C 
ENDBRANCH  25  27
ENDBRANCH  20  25
ENDBRANCH  19  20
ENDBRANCH  18  19
ENDBRANCH   3  18
TORSDOF 7
ENDMDL
MODEL 6
REMARK VINA RESULT:     -11.1      5.593     11.461
REMARK  Name = 16122642
REMARK  7 active torsions:
REMARK  status: ('A' for Active; 'I' for Inactive)
REMARK    1  A    between atoms: C_2  and  C_10
REMARK    2  A    between atoms: C_3  and  O_18
REMARK    3  A    between atoms: O_18  and  C_19
REMARK    4  A    between atoms: C_19  and  C_20
REMARK    5  A    between atoms: C_20  and  N_21
REMARK    6  A    between atoms: C_20  and  C_25
REMARK    7  A    between atoms: C_25  and  C_27
REMARK                            x       y       z     vdW  Elec       q    Type
REMARK                         _______ _______ _______ _____ _____    ______ ____
ROOT
ATOM      1  N   UNL     1      36.831 -22.412 -16.985  0.00  0.00    -0.239 NA
ATOM      2  C   UNL     1      34.502 -23.028 -16.881  0.00  0.00    +0.022 C 
ATOM      3  C   UNL     1      35.401 -22.119 -18.912  0.00  0.00    +0.158 C 
ATOM      4  C   UNL     1      34.322 -22.629 -18.197  0.00  0.00    +0.040 C 
ATOM      5  C   UNL     1      35.760 -22.903 -16.322  0.00  0.00    +0.099 C 
ATOM      6  C   UNL     1      36.624 -22.033 -18.265  0.00  0.00    +0.136 C 
ENDROOT
BRANCH   2  10
ATOM      7  N   UNL     1      29.296 -24.554 -14.831  0.00  0.00    -0.280 N 
ATOM      8  N   UNL     1      30.229 -25.042 -13.991  0.00  0.00    -0.173 NA
ATOM      9  C   UNL     1      31.148 -23.904 -15.730  0.00  0.00    +0.032 A 
ATOM     10  C   UNL     1      33.396 -23.564 -16.109  0.00  0.00    +0.002 C 
ATOM     11  C   UNL     1      31.402 -24.654 -14.523  0.00  0.00    +0.102 A 
ATOM     12  C   UNL     1      32.087 -23.329 -16.576  0.00  0.00    +0.003 C 
ATOM     13  C   UNL     1      29.792 -23.860 -15.896  0.00  0.00    +0.053 A 
ATOM     14  C   UNL     1      33.700 -24.300 -14.921  0.00  0.00    +0.002 C 
ATOM     15  C   UNL     1      32.720 -24.873 -14.082  0.00  0.00    +0.021 C 
ATOM     16  C   UNL     1      28.915 -23.258 -16.914  0.00  0.00    +0.051 C 
ATOM     17  H   UNL     1      28.332 -24.687 -14.688  0.00  0.00    +0.189 HD
ENDBRANCH   2  10
BRANCH   3  18
ATOM     18  O   UNL     1      35.260 -21.720 -20.199  0.00  0.00    -0.476 OA
BRANCH  18  19
ATOM     19  C   UNL     1      34.395 -20.610 -20.451  0.00  0.00    +0.184 C 
BRANCH  19  20
ATOM     20  C   UNL     1      35.162 -19.489 -21.162  0.00  0.00    -0.017 C 
BRANCH  20  21
ATOM     21  N   UNL     1      36.505 -19.408 -20.581  0.00  0.00    +0.384 N 
ATOM     22  H   UNL     1      36.615 -20.136 -19.876  0.00  0.00    -0.089 HD
ATOM     23  H   UNL     1      36.633 -18.493 -20.147  0.00  0.00    -0.089 HD
ATOM     24  H   UNL     1      37.202 -19.537 -21.315  0.00  0.00    -0.089 HD
ENDBRANCH  20  21
BRANCH  20  25
ATOM     25  C   UNL     1      35.306 -19.721 -22.682  0.00  0.00    +0.008 C 
BRANCH  25  27
ATOM     26 BR   UNL     1      33.413 -15.016 -26.196  0.00  0.00    -0.049 Br
ATOM     27  C   UNL     1      34.842 -18.571 -23.541  0.00  0.00    -0.024 C 
ATOM     28  C   UNL     1      34.123 -18.833 -24.697  0.00  0.00    -0.004 C 
ATOM     29  C   UNL     1      35.145 -17.275 -23.159  0.00  0.00    -0.004 C 
ATOM     30  C   UNL     1      33.695 -17.769 -25.491  0.00  0.00    +0.006 C 
ATOM     31  C   UNL     1      34.717 -16.211 -23.954  0.00  0.00    +0.006 C 
ATOM     32  C   UNL     1      33.992 -16.458 -25.119  0.00  0.00    +0.035 C 
ENDBRANCH  25  27
ENDBRANCH  20  25
ENDBRANCH  19  20
ENDBRANCH  18  19
ENDBRANCH   3  18
TORSDOF 7
ENDMDL
MODEL 7
REMARK VINA RESULT:     -11.1      3.611      6.504
REMARK  Name = 16122642
REMARK  7 active torsions:
REMARK  status: ('A' for Active; 'I' for Inactive)
REMARK    1  A    between atoms: C_2  and  C_10
REMARK    2  A    between atoms: C_3  and  O_18
REMARK    3  A    between atoms: O_18  and  C_19
REMARK    4  A    between atoms: C_19  and  C_20
REMARK    5  A    between atoms: C_20  and  N_21
REMARK    6  A    between atoms: C_20  and  C_25
REMARK    7  A    between atoms: C_25  and  C_27
REMARK                            x       y       z     vdW  Elec       q    Type
REMARK                         _______ _______ _______ _____ _____    ______ ____
ROOT
ATOM      1  N   UNL     1      37.483 -19.348 -20.537  0.00  0.00    -0.239 NA
ATOM      2  C   UNL     1      35.615 -19.176 -22.052  0.00  0.00    +0.022 C 
ATOM      3  C   UNL     1      35.618 -20.875 -20.358  0.00  0.00    +0.158 C 
ATOM      4  C   UNL     1      34.993 -20.249 -21.432  0.00  0.00    +0.040 C 
ATOM      5  C   UNL     1      36.846 -18.764 -21.576  0.00  0.00    +0.099 C 
ATOM      6  C   UNL     1      36.851 -20.390 -19.953  0.00  0.00    +0.136 C 
ENDROOT
BRANCH   2  10
ATOM      7  N   UNL     1      33.314 -15.316 -25.718  0.00  0.00    -0.280 N 
ATOM      8  N   UNL     1      33.230 -16.532 -26.293  0.00  0.00    -0.173 NA
ATOM      9  C   UNL     1      34.202 -16.616 -24.241  0.00  0.00    +0.032 A 
ATOM     10  C   UNL     1      34.989 -18.501 -23.174  0.00  0.00    +0.002 C 
ATOM     11  C   UNL     1      33.778 -17.370 -25.395  0.00  0.00    +0.102 A 
ATOM     12  C   UNL     1      34.814 -17.105 -23.094  0.00  0.00    +0.003 C 
ATOM     13  C   UNL     1      33.891 -15.307 -24.482  0.00  0.00    +0.053 A 
ATOM     14  C   UNL     1      34.585 -19.294 -24.294  0.00  0.00    +0.002 C 
ATOM     15  C   UNL     1      33.966 -18.764 -25.447  0.00  0.00    +0.021 C 
ATOM     16  C   UNL     1      34.064 -14.065 -23.709  0.00  0.00    +0.051 C 
ATOM     17  H   UNL     1      32.985 -14.499 -26.155  0.00  0.00    +0.189 HD
ENDBRANCH   2  10
BRANCH   3  18
ATOM     18  O   UNL     1      35.037 -21.926 -19.729  0.00  0.00    -0.476 OA
BRANCH  18  19
ATOM     19  C   UNL     1      33.623 -21.871 -19.530  0.00  0.00    +0.184 C 
BRANCH  19  20
ATOM     20  C   UNL     1      33.270 -22.309 -18.103  0.00  0.00    -0.017 C 
BRANCH  20  21
ATOM     21  N   UNL     1      31.817 -22.486 -18.020  0.00  0.00    +0.384 N 
ATOM     22  H   UNL     1      31.608 -23.340 -17.504  0.00  0.00    -0.089 HD
ATOM     23  H   UNL     1      31.429 -22.554 -18.961  0.00  0.00    -0.089 HD
ATOM     24  H   UNL     1      31.404 -21.688 -17.539  0.00  0.00    -0.089 HD
ENDBRANCH  20  21
BRANCH  20  25
ATOM     25  C   UNL     1      33.943 -23.635 -17.691  0.00  0.00    +0.008 C 
BRANCH  25  27
ATOM     26 BR   UNL     1      37.135 -23.377 -12.416  0.00  0.00    -0.049 Br
ATOM     27  C   UNL     1      34.724 -23.571 -16.401  0.00  0.00    -0.024 C 
ATOM     28  C   UNL     1      35.952 -22.929 -16.380  0.00  0.00    -0.004 C 
ATOM     29  C   UNL     1      34.199 -24.157 -15.261  0.00  0.00    -0.004 C 
ATOM     30  C   UNL     1      36.673 -22.871 -15.188  0.00  0.00    +0.006 C 
ATOM     31  C   UNL     1      34.920 -24.099 -14.068  0.00  0.00    +0.006 C 
ATOM     32  C   UNL     1      36.157 -23.456 -14.032  0.00  0.00    +0.035 C 
ENDBRANCH  25  27
ENDBRANCH  20  25
ENDBRANCH  19  20
ENDBRANCH  18  19
ENDBRANCH   3  18
TORSDOF 7
ENDMDL
MODEL 8
REMARK VINA RESULT:     -11.0      5.076      7.838
REMARK  Name = 16122642
REMARK  7 active torsions:
REMARK  status: ('A' for Active; 'I' for Inactive)
REMARK    1  A    between atoms: C_2  and  C_10
REMARK    2  A    between atoms: C_3  and  O_18
REMARK    3  A    between atoms: O_18  and  C_19
REMARK    4  A    between atoms: C_19  and  C_20
REMARK    5  A    between atoms: C_20  and  N_21
REMARK    6  A    between atoms: C_20  and  C_25
REMARK    7  A    between atoms: C_25  and  C_27
REMARK                            x       y       z     vdW  Elec       q    Type
REMARK                         _______ _______ _______ _____ _____    ______ ____
ROOT
ATOM      1  N   UNL     1      36.655 -21.700 -19.193  0.00  0.00    -0.239 NA
ATOM      2  C   UNL     1      35.258 -20.344 -20.617  0.00  0.00    +0.022 C 
ATOM      3  C   UNL     1      34.261 -22.035 -19.236  0.00  0.00    +0.158 C 
ATOM      4  C   UNL     1      34.128 -21.016 -20.174  0.00  0.00    +0.040 C 
ATOM      5  C   UNL     1      36.486 -20.715 -20.104  0.00  0.00    +0.099 C 
ATOM      6  C   UNL     1      35.535 -22.335 -18.781  0.00  0.00    +0.136 C 
ENDROOT
BRANCH   2  10
ATOM      7  N   UNL     1      34.309 -17.130 -25.350  0.00  0.00    -0.280 N 
ATOM      8  N   UNL     1      34.822 -16.324 -24.399  0.00  0.00    -0.173 NA
ATOM      9  C   UNL     1      34.599 -18.468 -23.680  0.00  0.00    +0.032 A 
ATOM     10  C   UNL     1      35.151 -19.277 -21.594  0.00  0.00    +0.002 C 
ATOM     11  C   UNL     1      35.015 -17.129 -23.339  0.00  0.00    +0.102 A 
ATOM     12  C   UNL     1      34.634 -19.593 -22.866  0.00  0.00    +0.003 C 
ATOM     13  C   UNL     1      34.153 -18.432 -24.971  0.00  0.00    +0.053 A 
ATOM     14  C   UNL     1      35.577 -17.967 -21.207  0.00  0.00    +0.002 C 
ATOM     15  C   UNL     1      35.527 -16.843 -22.060  0.00  0.00    +0.021 C 
ATOM     16  C   UNL     1      33.606 -19.450 -25.884  0.00  0.00    +0.051 C 
ATOM     17  H   UNL     1      34.067 -16.806 -26.246  0.00  0.00    +0.189 HD
ENDBRANCH   2  10
BRANCH   3  18
ATOM     18  O   UNL     1      33.178 -22.711 -18.781  0.00  0.00    -0.476 OA
BRANCH  18  19
ATOM     19  C   UNL     1      33.388 -23.649 -17.723  0.00  0.00    +0.184 C 
BRANCH  19  20
ATOM     20  C   UNL     1      32.823 -23.101 -16.407  0.00  0.00    -0.017 C 
BRANCH  20  21
ATOM     21  N   UNL     1      31.359 -23.128 -16.486  0.00  0.00    +0.384 N 
ATOM     22  H   UNL     1      31.074 -23.267 -17.455  0.00  0.00    -0.089 HD
ATOM     23  H   UNL     1      30.984 -22.243 -16.145  0.00  0.00    -0.089 HD
ATOM     24  H   UNL     1      31.002 -23.892 -15.913  0.00  0.00    -0.089 HD
ENDBRANCH  20  21
BRANCH  20  25
ATOM     25  C   UNL     1      33.256 -23.921 -15.173  0.00  0.00    +0.008 C 
BRANCH  25  27
ATOM     26 BR   UNL     1      39.308 -25.078 -14.847  0.00  0.00    -0.049 Br
ATOM     27  C   UNL     1      34.736 -24.203 -15.092  0.00  0.00    -0.024 C 
ATOM     28  C   UNL     1      35.630 -23.144 -15.070  0.00  0.00    -0.004 C 
ATOM     29  C   UNL     1      35.174 -25.516 -15.043  0.00  0.00    -0.004 C 
ATOM     30  C   UNL     1      36.998 -23.406 -14.996  0.00  0.00    +0.006 C 
ATOM     31  C   UNL     1      36.542 -25.778 -14.970  0.00  0.00    +0.006 C 
ATOM     32  C   UNL     1      37.454 -24.724 -14.946  0.00  0.00    +0.035 C 
ENDBRANCH  25  27
ENDBRANCH  20  25
ENDBRANCH  19  20
ENDBRANCH  18  19
ENDBRANCH   3  18
TORSDOF 7
ENDMDL
MODEL 9
REMARK VINA RESULT:     -10.9      5.164     12.136
REMARK  Name = 16122642
REMARK  7 active torsions:
REMARK  status: ('A' for Active; 'I' for Inactive)
REMARK    1  A    between atoms: C_2  and  C_10
REMARK    2  A    between atoms: C_3  and  O_18
REMARK    3  A    between atoms: O_18  and  C_19
REMARK    4  A    between atoms: C_19  and  C_20
REMARK    5  A    between atoms: C_20  and  N_21
REMARK    6  A    between atoms: C_20  and  C_25
REMARK    7  A    between atoms: C_25  and  C_27
REMARK                            x       y       z     vdW  Elec       q    Type
REMARK                         _______ _______ _______ _____ _____    ______ ____
ROOT
ATOM      1  N   UNL     1      32.691 -22.787 -18.413  0.00  0.00    -0.239 NA
ATOM      2  C   UNL     1      34.500 -23.174 -16.867  0.00  0.00    +0.022 C 
ATOM      3  C   UNL     1      34.905 -21.937 -18.882  0.00  0.00    +0.158 C 
ATOM      4  C   UNL     1      35.373 -22.481 -17.691  0.00  0.00    +0.040 C 
ATOM      5  C   UNL     1      33.182 -23.300 -17.263  0.00  0.00    +0.099 C 
ATOM      6  C   UNL     1      33.566 -22.116 -19.194  0.00  0.00    +0.136 C 
ENDROOT
BRANCH   2  10
ATOM      7  N   UNL     1      37.565 -25.634 -12.602  0.00  0.00    -0.280 N 
ATOM      8  N   UNL     1      36.325 -25.392 -12.133  0.00  0.00    -0.173 NA
ATOM      9  C   UNL     1      36.571 -24.731 -14.292  0.00  0.00    +0.032 A 
ATOM     10  C   UNL     1      34.959 -23.752 -15.617  0.00  0.00    +0.002 C 
ATOM     11  C   UNL     1      35.675 -24.827 -13.165  0.00  0.00    +0.102 A 
ATOM     12  C   UNL     1      36.291 -24.208 -15.548  0.00  0.00    +0.003 C 
ATOM     13  C   UNL     1      37.769 -25.256 -13.896  0.00  0.00    +0.053 A 
ATOM     14  C   UNL     1      34.033 -23.824 -14.530  0.00  0.00    +0.002 C 
ATOM     15  C   UNL     1      34.350 -24.362 -13.263  0.00  0.00    +0.021 C 
ATOM     16  C   UNL     1      39.065 -25.445 -14.570  0.00  0.00    +0.051 C 
ATOM     17  H   UNL     1      38.267 -26.051 -12.054  0.00  0.00    +0.189 HD
ENDBRANCH   2  10
BRANCH   3  18
ATOM     18  O   UNL     1      35.731 -21.253 -19.711  0.00  0.00    -0.476 OA
BRANCH  18  19
ATOM     19  C   UNL     1      35.128 -20.516 -20.777  0.00  0.00    +0.184 C 
BRANCH  19  20
ATOM     20  C   UNL     1      35.886 -19.203 -21.011  0.00  0.00    -0.017 C 
BRANCH  20  21
ATOM     21  N   UNL     1      37.270 -19.384 -20.564  0.00  0.00    +0.384 N 
ATOM     22  H   UNL     1      37.646 -20.243 -20.963  0.00  0.00    -0.089 HD
ATOM     23  H   UNL     1      37.294 -19.443 -19.547  0.00  0.00    -0.089 HD
ATOM     24  H   UNL     1      37.833 -18.591 -20.873  0.00  0.00    -0.089 HD
ENDBRANCH  20  21
BRANCH  20  25
ATOM     25  C   UNL     1      35.907 -18.771 -22.492  0.00  0.00    +0.008 C 
BRANCH  25  27
ATOM     26 BR   UNL     1      33.560 -13.166 -23.569  0.00  0.00    -0.049 Br
ATOM     27  C   UNL     1      35.332 -17.400 -22.756  0.00  0.00    -0.024 C 
ATOM     28  C   UNL     1      34.887 -17.083 -24.030  0.00  0.00    -0.004 C 
ATOM     29  C   UNL     1      35.261 -16.484 -21.720  0.00  0.00    -0.004 C 
ATOM     30  C   UNL     1      34.357 -15.816 -24.273  0.00  0.00    +0.006 C 
ATOM     31  C   UNL     1      34.731 -15.217 -21.963  0.00  0.00    +0.006 C 
ATOM     32  C   UNL     1      34.278 -14.884 -23.239  0.00  0.00    +0.035 C 
ENDBRANCH  25  27
ENDBRANCH  20  25
ENDBRANCH  19  20
ENDBRANCH  18  19
ENDBRANCH   3  18
TORSDOF 7
ENDMDL
