MODEL 1
REMARK VINA RESULT:     -11.6      0.000      0.000
REMARK  Name = 208951
REMARK  4 active torsions:
REMARK  status: ('A' for Active; 'I' for Inactive)
REMARK    1  A    between atoms: N_1  and  C_19
REMARK    2  A    between atoms: N_2  and  C_11
REMARK    3  A    between atoms: C_19  and  C_20
REMARK    4  A    between atoms: C_23  and  C_26
REMARK                            x       y       z     vdW  Elec       q    Type
REMARK                         _______ _______ _______ _____ _____    ______ ____
ROOT
ATOM      1  N   UNL     1      32.283 -11.279 -21.861  0.00  0.00    +0.392 N 
ATOM      2  N   UNL     1      33.485 -13.832 -22.304  0.00  0.00    -0.309 N 
ATOM      3  C   UNL     1      32.809 -11.634 -23.185  0.00  0.00    -0.055 C 
ATOM      4  C   UNL     1      31.749 -12.475 -21.199  0.00  0.00    -0.055 C 
ATOM      5  C   UNL     1      33.933 -12.667 -23.073  0.00  0.00    +0.068 C 
ATOM      6  C   UNL     1      32.838 -13.536 -21.019  0.00  0.00    +0.068 C 
ATOM      7  H   UNL     1      33.044 -10.901 -21.295  0.00  0.00    -0.079 HD
ENDROOT
BRANCH   2  11
ATOM      8  O   UNL     1      33.546 -15.401 -24.796  0.00  0.00    -0.406 OA
ATOM      9  O   UNL     1      33.490 -16.501 -26.830  0.00  0.00    -0.223 OA
ATOM     10  N   UNL     1      34.652 -17.403 -25.023  0.00  0.00    -0.287 N 
ATOM     11  C   UNL     1      34.160 -15.052 -22.434  0.00  0.00    +0.084 C 
ATOM     12  C   UNL     1      34.176 -15.776 -23.620  0.00  0.00    +0.179 A 
ATOM     13  C   UNL     1      34.872 -15.620 -21.358  0.00  0.00    +0.018 C 
ATOM     14  C   UNL     1      34.846 -16.974 -23.736  0.00  0.00    +0.098 A 
ATOM     15  C   UNL     1      35.552 -16.848 -21.488  0.00  0.00    +0.003 C 
ATOM     16  C   UNL     1      35.545 -17.546 -22.698  0.00  0.00    +0.020 C 
ATOM     17  C   UNL     1      33.869 -16.459 -25.666  0.00  0.00    +0.419 A 
ATOM     18  H   UNL     1      35.005 -18.232 -25.418  0.00  0.00    +0.172 HD
ENDBRANCH   2  11
BRANCH   1  19
ATOM     19  C   UNL     1      31.249 -10.253 -21.979  0.00  0.00    -0.050 C 
BRANCH  19  20
ATOM     20  C   UNL     1      31.821  -8.879 -21.758  0.00  0.00    -0.043 C 
ATOM     21  C   UNL     1      32.187  -8.106 -22.852  0.00  0.00    -0.006 C 
ATOM     22  C   UNL     1      31.974  -8.401 -20.463  0.00  0.00    -0.006 C 
ATOM     23  C   UNL     1      32.716  -6.832 -22.646  0.00  0.00    -0.000 C 
ATOM     24  C   UNL     1      32.503  -7.128 -20.258  0.00  0.00    -0.000 C 
ATOM     25  C   UNL     1      32.875  -6.343 -21.349  0.00  0.00    -0.000 C 
BRANCH  23  26
ATOM     26  C   UNL     1      33.100  -6.016 -23.779  0.00  0.00    -0.000 C 
ATOM     27  C   UNL     1      32.281  -4.965 -24.191  0.00  0.00    -0.000 C 
ATOM     28  C   UNL     1      34.290  -6.281 -24.458  0.00  0.00    -0.000 C 
ATOM     29  C   UNL     1      32.652  -4.178 -25.282  0.00  0.00    -0.000 C 
ATOM     30  C   UNL     1      34.660  -5.495 -25.549  0.00  0.00    -0.000 C 
ATOM     31  C   UNL     1      33.841  -4.443 -25.960  0.00  0.00    +0.000 C 
ENDBRANCH  23  26
ENDBRANCH  19  20
ENDBRANCH   1  19
TORSDOF 4
ENDMDL
MODEL 2
REMARK VINA RESULT:     -11.6      3.302     10.761
REMARK  Name = 208951
REMARK  4 active torsions:
REMARK  status: ('A' for Active; 'I' for Inactive)
REMARK    1  A    between atoms: N_1  and  C_19
REMARK    2  A    between atoms: N_2  and  C_11
REMARK    3  A    between atoms: C_19  and  C_20
REMARK    4  A    between atoms: C_23  and  C_26
REMARK                            x       y       z     vdW  Elec       q    Type
REMARK                         _______ _______ _______ _____ _____    ______ ____
ROOT
ATOM      1  N   UNL     1      34.028 -16.602 -24.022  0.00  0.00    +0.392 N 
ATOM      2  N   UNL     1      33.993 -13.746 -24.058  0.00  0.00    -0.309 N 
ATOM      3  C   UNL     1      33.730 -15.878 -25.263  0.00  0.00    -0.055 C 
ATOM      4  C   UNL     1      34.988 -15.838 -23.216  0.00  0.00    -0.055 C 
ATOM      5  C   UNL     1      33.127 -14.503 -24.968  0.00  0.00    +0.068 C 
ATOM      6  C   UNL     1      34.426 -14.462 -22.851  0.00  0.00    +0.068 C 
ATOM      7  H   UNL     1      33.164 -16.711 -23.489  0.00  0.00    -0.079 HD
ENDROOT
BRANCH   2  11
ATOM      8  O   UNL     1      32.088 -12.349 -22.301  0.00  0.00    -0.406 OA
ATOM      9  O   UNL     1      30.535 -11.418 -20.861  0.00  0.00    -0.223 OA
ATOM     10  N   UNL     1      31.896 -10.061 -22.180  0.00  0.00    -0.287 N 
ATOM     11  C   UNL     1      33.882 -12.353 -23.991  0.00  0.00    +0.084 C 
ATOM     12  C   UNL     1      32.976 -11.714 -23.154  0.00  0.00    +0.179 A 
ATOM     13  C   UNL     1      34.693 -11.508 -24.776  0.00  0.00    +0.018 C 
ATOM     14  C   UNL     1      32.876 -10.341 -23.096  0.00  0.00    +0.098 A 
ATOM     15  C   UNL     1      34.582 -10.104 -24.709  0.00  0.00    +0.003 C 
ATOM     16  C   UNL     1      33.658  -9.500 -23.854  0.00  0.00    +0.020 C 
ATOM     17  C   UNL     1      31.417 -11.268 -21.697  0.00  0.00    +0.419 A 
ATOM     18  H   UNL     1      31.588  -9.166 -21.913  0.00  0.00    +0.172 HD
ENDBRANCH   2  11
BRANCH   1  19
ATOM     19  C   UNL     1      34.552 -17.934 -24.318  0.00  0.00    -0.050 C 
BRANCH  19  20
ATOM     20  C   UNL     1      35.273 -18.510 -23.129  0.00  0.00    -0.043 C 
ATOM     21  C   UNL     1      34.604 -19.382 -22.279  0.00  0.00    -0.006 C 
ATOM     22  C   UNL     1      36.597 -18.163 -22.898  0.00  0.00    -0.006 C 
ATOM     23  C   UNL     1      35.274 -19.915 -21.178  0.00  0.00    -0.000 C 
ATOM     24  C   UNL     1      37.266 -18.696 -21.797  0.00  0.00    -0.000 C 
ATOM     25  C   UNL     1      36.605 -19.572 -20.937  0.00  0.00    -0.000 C 
BRANCH  23  26
ATOM     26  C   UNL     1      34.589 -20.826 -20.286  0.00  0.00    -0.000 C 
ATOM     27  C   UNL     1      35.322 -21.696 -19.479  0.00  0.00    -0.000 C 
ATOM     28  C   UNL     1      33.194 -20.833 -20.232  0.00  0.00    -0.000 C 
ATOM     29  C   UNL     1      34.661 -22.573 -18.619  0.00  0.00    -0.000 C 
ATOM     30  C   UNL     1      32.534 -21.710 -19.373  0.00  0.00    -0.000 C 
ATOM     31  C   UNL     1      33.268 -22.580 -18.566  0.00  0.00    +0.000 C 
ENDBRANCH  23  26
ENDBRANCH  19  20
ENDBRANCH   1  19
TORSDOF 4
ENDMDL
MODEL 3
REMARK VINA RESULT:     -11.4      8.860     13.215
REMARK  Name = 208951
REMARK  4 active torsions:
REMARK  status: ('A' for Active; 'I' for Inactive)
REMARK    1  A    between atoms: N_1  and  C_19
REMARK    2  A    between atoms: N_2  and  C_11
REMARK    3  A    between atoms: C_19  and  C_20
REMARK    4  A    between atoms: C_23  and  C_26
REMARK                            x       y       z     vdW  Elec       q    Type
REMARK                         _______ _______ _______ _____ _____    ______ ____
ROOT
ATOM      1  N   UNL     1      34.489 -22.398 -17.969  0.00  0.00    +0.392 N 
ATOM      2  N   UNL     1      35.268 -23.692 -15.544  0.00  0.00    -0.309 N 
ATOM      3  C   UNL     1      35.908 -22.611 -17.663  0.00  0.00    -0.055 C 
ATOM      4  C   UNL     1      33.690 -23.505 -17.428  0.00  0.00    -0.055 C 
ATOM      5  C   UNL     1      36.141 -22.683 -16.152  0.00  0.00    +0.068 C 
ATOM      6  C   UNL     1      33.848 -23.606 -15.909  0.00  0.00    +0.068 C 
ATOM      7  H   UNL     1      34.184 -21.528 -17.530  0.00  0.00    -0.079 HD
ENDROOT
BRANCH   2  11
ATOM      8  O   UNL     1      37.503 -25.560 -15.110  0.00  0.00    -0.406 OA
ATOM      9  O   UNL     1      39.295 -27.014 -14.951  0.00  0.00    -0.223 OA
ATOM     10  N   UNL     1      38.050 -26.451 -13.063  0.00  0.00    -0.287 N 
ATOM     11  C   UNL     1      35.594 -24.231 -14.294  0.00  0.00    +0.084 C 
ATOM     12  C   UNL     1      36.653 -25.111 -14.112  0.00  0.00    +0.179 A 
ATOM     13  C   UNL     1      34.859 -23.908 -13.136  0.00  0.00    +0.018 C 
ATOM     14  C   UNL     1      36.965 -25.634 -12.876  0.00  0.00    +0.098 A 
ATOM     15  C   UNL     1      35.186 -24.450 -11.876  0.00  0.00    +0.003 C 
ATOM     16  C   UNL     1      36.260 -25.331 -11.734  0.00  0.00    +0.020 C 
ATOM     17  C   UNL     1      38.378 -26.410 -14.408  0.00  0.00    +0.419 A 
ATOM     18  H   UNL     1      38.511 -26.972 -12.368  0.00  0.00    +0.172 HD
ENDBRANCH   2  11
BRANCH   1  19
ATOM     19  C   UNL     1      34.287 -22.277 -19.411  0.00  0.00    -0.050 C 
BRANCH  19  20
ATOM     20  C   UNL     1      35.231 -21.267 -20.008  0.00  0.00    -0.043 C 
ATOM     21  C   UNL     1      34.788 -20.438 -21.030  0.00  0.00    -0.006 C 
ATOM     22  C   UNL     1      36.530 -21.177 -19.527  0.00  0.00    -0.006 C 
ATOM     23  C   UNL     1      35.664 -19.502 -21.582  0.00  0.00    -0.000 C 
ATOM     24  C   UNL     1      37.404 -20.242 -20.079  0.00  0.00    -0.000 C 
ATOM     25  C   UNL     1      36.971 -19.404 -21.106  0.00  0.00    -0.000 C 
BRANCH  23  26
ATOM     26  C   UNL     1      35.215 -18.631 -22.647  0.00  0.00    -0.000 C 
ATOM     27  C   UNL     1      34.571 -19.167 -23.762  0.00  0.00    -0.000 C 
ATOM     28  C   UNL     1      35.425 -17.254 -22.558  0.00  0.00    -0.000 C 
ATOM     29  C   UNL     1      34.137 -18.328 -24.788  0.00  0.00    -0.000 C 
ATOM     30  C   UNL     1      34.992 -16.416 -23.585  0.00  0.00    -0.000 C 
ATOM     31  C   UNL     1      34.348 -16.953 -24.699  0.00  0.00    +0.000 C 
ENDBRANCH  23  26
ENDBRANCH  19  20
ENDBRANCH   1  19
TORSDOF 4
ENDMDL
MODEL 4
REMARK VINA RESULT:     -11.3      9.044     13.307
REMARK  Name = 208951
REMARK  4 active torsions:
REMARK  status: ('A' for Active; 'I' for Inactive)
REMARK    1  A    between atoms: N_1  and  C_19
REMARK    2  A    between atoms: N_2  and  C_11
REMARK    3  A    between atoms: C_19  and  C_20
REMARK    4  A    between atoms: C_23  and  C_26
REMARK                            x       y       z     vdW  Elec       q    Type
REMARK                         _______ _______ _______ _____ _____    ______ ____
ROOT
ATOM      1  N   UNL     1      36.182 -21.913 -17.908  0.00  0.00    +0.392 N 
ATOM      2  N   UNL     1      36.213 -23.323 -15.424  0.00  0.00    -0.309 N 
ATOM      3  C   UNL     1      37.435 -22.079 -17.163  0.00  0.00    -0.055 C 
ATOM      4  C   UNL     1      35.325 -23.089 -17.711  0.00  0.00    -0.055 C 
ATOM      5  C   UNL     1      37.169 -22.237 -15.665  0.00  0.00    +0.068 C 
ATOM      6  C   UNL     1      34.986 -23.280 -16.231  0.00  0.00    +0.068 C 
ATOM      7  H   UNL     1      35.695 -21.088 -17.556  0.00  0.00    -0.079 HD
ENDROOT
BRANCH   2  11
ATOM      8  O   UNL     1      38.282 -25.140 -14.381  0.00  0.00    -0.406 OA
ATOM      9  O   UNL     1      40.000 -26.542 -13.722  0.00  0.00    -0.223 OA
ATOM     10  N   UNL     1      38.190 -26.135 -12.311  0.00  0.00    -0.287 N 
ATOM     11  C   UNL     1      36.149 -23.925 -14.162  0.00  0.00    +0.084 C 
ATOM     12  C   UNL     1      37.137 -24.780 -13.690  0.00  0.00    +0.179 A 
ATOM     13  C   UNL     1      35.067 -23.695 -13.288  0.00  0.00    +0.018 C 
ATOM     14  C   UNL     1      37.063 -25.366 -12.445  0.00  0.00    +0.098 A 
ATOM     15  C   UNL     1      35.002 -24.302 -12.017  0.00  0.00    +0.003 C 
ATOM     16  C   UNL     1      36.016 -25.155 -11.578  0.00  0.00    +0.020 C 
ATOM     17  C   UNL     1      38.929 -26.002 -13.476  0.00  0.00    +0.419 A 
ATOM     18  H   UNL     1      38.431 -26.681 -11.530  0.00  0.00    +0.172 HD
ENDBRANCH   2  11
BRANCH   1  19
ATOM     19  C   UNL     1      36.453 -21.709 -19.330  0.00  0.00    -0.050 C 
BRANCH  19  20
ATOM     20  C   UNL     1      35.252 -21.140 -20.036  0.00  0.00    -0.043 C 
ATOM     21  C   UNL     1      35.433 -20.246 -21.082  0.00  0.00    -0.006 C 
ATOM     22  C   UNL     1      33.978 -21.518 -19.631  0.00  0.00    -0.006 C 
ATOM     23  C   UNL     1      34.318 -19.720 -21.737  0.00  0.00    -0.000 C 
ATOM     24  C   UNL     1      32.865 -20.992 -20.285  0.00  0.00    -0.000 C 
ATOM     25  C   UNL     1      33.034 -20.093 -21.337  0.00  0.00    -0.000 C 
BRANCH  23  26
ATOM     26  C   UNL     1      34.493 -18.788 -22.830  0.00  0.00    -0.000 C 
ATOM     27  C   UNL     1      35.087 -17.547 -22.600  0.00  0.00    -0.000 C 
ATOM     28  C   UNL     1      34.069 -19.132 -24.114  0.00  0.00    -0.000 C 
ATOM     29  C   UNL     1      35.256 -16.649 -23.654  0.00  0.00    -0.000 C 
ATOM     30  C   UNL     1      34.238 -18.234 -25.167  0.00  0.00    -0.000 C 
ATOM     31  C   UNL     1      34.832 -16.993 -24.937  0.00  0.00    +0.000 C 
ENDBRANCH  23  26
ENDBRANCH  19  20
ENDBRANCH   1  19
TORSDOF 4
ENDMDL
MODEL 5
REMARK VINA RESULT:     -11.0      5.977      9.927
REMARK  Name = 208951
REMARK  4 active torsions:
REMARK  status: ('A' for Active; 'I' for Inactive)
REMARK    1  A    between atoms: N_1  and  C_19
REMARK    2  A    between atoms: N_2  and  C_11
REMARK    3  A    between atoms: C_19  and  C_20
REMARK    4  A    between atoms: C_23  and  C_26
REMARK                            x       y       z     vdW  Elec       q    Type
REMARK                         _______ _______ _______ _____ _____    ______ ____
ROOT
ATOM      1  N   UNL     1      35.703 -19.979 -21.627  0.00  0.00    +0.392 N 
ATOM      2  N   UNL     1      34.810 -21.444 -19.343  0.00  0.00    -0.309 N 
ATOM      3  C   UNL     1      34.413 -19.667 -21.001  0.00  0.00    -0.055 C 
ATOM      4  C   UNL     1      36.661 -20.416 -20.604  0.00  0.00    -0.055 C 
ATOM      5  C   UNL     1      33.835 -20.892 -20.289  0.00  0.00    +0.068 C 
ATOM      6  C   UNL     1      36.159 -21.667 -19.879  0.00  0.00    +0.068 C 
ATOM      7  H   UNL     1      35.569 -20.737 -22.297  0.00  0.00    -0.079 HD
ENDROOT
BRANCH   2  11
ATOM      8  O   UNL     1      36.581 -22.438 -17.211  0.00  0.00    -0.406 OA
ATOM      9  O   UNL     1      38.111 -23.126 -15.618  0.00  0.00    -0.223 OA
ATOM     10  N   UNL     1      35.880 -23.787 -15.486  0.00  0.00    -0.287 N 
ATOM     11  C   UNL     1      34.375 -22.266 -18.297  0.00  0.00    +0.084 C 
ATOM     12  C   UNL     1      35.228 -22.724 -17.301  0.00  0.00    +0.179 A 
ATOM     13  C   UNL     1      33.031 -22.680 -18.192  0.00  0.00    +0.018 C 
ATOM     14  C   UNL     1      34.788 -23.531 -16.275  0.00  0.00    +0.098 A 
ATOM     15  C   UNL     1      32.593 -23.507 -17.138  0.00  0.00    +0.003 C 
ATOM     16  C   UNL     1      33.481 -23.946 -16.155  0.00  0.00    +0.020 C 
ATOM     17  C   UNL     1      36.963 -23.130 -16.046  0.00  0.00    +0.419 A 
ATOM     18  H   UNL     1      35.892 -24.336 -14.671  0.00  0.00    +0.172 HD
ENDBRANCH   2  11
BRANCH   1  19
ATOM     19  C   UNL     1      36.218 -18.817 -22.349  0.00  0.00    -0.050 C 
BRANCH  19  20
ATOM     20  C   UNL     1      35.280 -18.404 -23.450  0.00  0.00    -0.043 C 
ATOM     21  C   UNL     1      35.007 -17.056 -23.647  0.00  0.00    -0.006 C 
ATOM     22  C   UNL     1      34.700 -19.375 -24.256  0.00  0.00    -0.006 C 
ATOM     23  C   UNL     1      34.137 -16.674 -24.669  0.00  0.00    -0.000 C 
ATOM     24  C   UNL     1      33.831 -18.992 -25.277  0.00  0.00    -0.000 C 
ATOM     25  C   UNL     1      33.549 -17.642 -25.484  0.00  0.00    -0.000 C 
BRANCH  23  26
ATOM     26  C   UNL     1      33.846 -15.273 -24.886  0.00  0.00    -0.000 C 
ATOM     27  C   UNL     1      33.474 -14.825 -26.153  0.00  0.00    -0.000 C 
ATOM     28  C   UNL     1      33.938 -14.370 -23.826  0.00  0.00    -0.000 C 
ATOM     29  C   UNL     1      33.193 -13.475 -26.361  0.00  0.00    -0.000 C 
ATOM     30  C   UNL     1      33.657 -13.020 -24.034  0.00  0.00    -0.000 C 
ATOM     31  C   UNL     1      33.284 -12.573 -25.302  0.00  0.00    +0.000 C 
ENDBRANCH  23  26
ENDBRANCH  19  20
ENDBRANCH   1  19
TORSDOF 4
ENDMDL
MODEL 6
REMARK VINA RESULT:     -10.8      7.014     13.228
REMARK  Name = 208951
REMARK  4 active torsions:
REMARK  status: ('A' for Active; 'I' for Inactive)
REMARK    1  A    between atoms: N_1  and  C_19
REMARK    2  A    between atoms: N_2  and  C_11
REMARK    3  A    between atoms: C_19  and  C_20
REMARK    4  A    between atoms: C_23  and  C_26
REMARK                            x       y       z     vdW  Elec       q    Type
REMARK                         _______ _______ _______ _____ _____    ______ ____
ROOT
ATOM      1  N   UNL     1      34.951 -21.554 -19.352  0.00  0.00    +0.392 N 
ATOM      2  N   UNL     1      34.945 -19.389 -21.216  0.00  0.00    -0.309 N 
ATOM      3  C   UNL     1      33.794 -21.329 -20.227  0.00  0.00    -0.055 C 
ATOM      4  C   UNL     1      36.185 -21.171 -20.049  0.00  0.00    -0.055 C 
ATOM      5  C   UNL     1      33.686 -19.856 -20.629  0.00  0.00    +0.068 C 
ATOM      6  C   UNL     1      36.157 -19.693 -20.444  0.00  0.00    +0.068 C 
ATOM      7  H   UNL     1      34.851 -20.975 -18.518  0.00  0.00    -0.079 HD
ENDROOT
BRANCH   2  11
ATOM      8  O   UNL     1      34.422 -19.456 -24.113  0.00  0.00    -0.406 OA
ATOM      9  O   UNL     1      33.988 -19.693 -26.373  0.00  0.00    -0.223 OA
ATOM     10  N   UNL     1      34.430 -17.594 -25.461  0.00  0.00    -0.287 N 
ATOM     11  C   UNL     1      34.953 -18.250 -22.030  0.00  0.00    +0.084 C 
ATOM     12  C   UNL     1      34.703 -18.305 -23.395  0.00  0.00    +0.179 A 
ATOM     13  C   UNL     1      35.216 -16.969 -21.505  0.00  0.00    +0.018 C 
ATOM     14  C   UNL     1      34.712 -17.176 -24.186  0.00  0.00    +0.098 A 
ATOM     15  C   UNL     1      35.224 -15.821 -22.324  0.00  0.00    +0.003 C 
ATOM     16  C   UNL     1      34.967 -15.918 -23.693  0.00  0.00    +0.020 C 
ATOM     17  C   UNL     1      34.254 -18.968 -25.422  0.00  0.00    +0.419 A 
ATOM     18  H   UNL     1      34.364 -17.022 -26.258  0.00  0.00    +0.172 HD
ENDBRANCH   2  11
BRANCH   1  19
ATOM     19  C   UNL     1      35.011 -22.953 -18.932  0.00  0.00    -0.050 C 
BRANCH  19  20
ATOM     20  C   UNL     1      34.429 -23.131 -17.556  0.00  0.00    -0.043 C 
ATOM     21  C   UNL     1      33.062 -23.329 -17.412  0.00  0.00    -0.006 C 
ATOM     22  C   UNL     1      35.265 -23.097 -16.449  0.00  0.00    -0.006 C 
ATOM     23  C   UNL     1      32.523 -23.496 -16.136  0.00  0.00    -0.000 C 
ATOM     24  C   UNL     1      34.726 -23.263 -15.174  0.00  0.00    -0.000 C 
ATOM     25  C   UNL     1      33.355 -23.462 -15.018  0.00  0.00    -0.000 C 
BRANCH  23  26
ATOM     26  C   UNL     1      31.100 -23.704 -15.974  0.00  0.00    -0.000 C 
ATOM     27  C   UNL     1      30.193 -22.880 -16.640  0.00  0.00    -0.000 C 
ATOM     28  C   UNL     1      30.635 -24.731 -15.151  0.00  0.00    -0.000 C 
ATOM     29  C   UNL     1      28.822 -23.081 -16.483  0.00  0.00    -0.000 C 
ATOM     30  C   UNL     1      29.264 -24.932 -14.994  0.00  0.00    -0.000 C 
ATOM     31  C   UNL     1      28.357 -24.107 -15.661  0.00  0.00    +0.000 C 
ENDBRANCH  23  26
ENDBRANCH  19  20
ENDBRANCH   1  19
TORSDOF 4
ENDMDL
MODEL 7
REMARK VINA RESULT:     -10.7      6.413     13.414
REMARK  Name = 208951
REMARK  4 active torsions:
REMARK  status: ('A' for Active; 'I' for Inactive)
REMARK    1  A    between atoms: N_1  and  C_19
REMARK    2  A    between atoms: N_2  and  C_11
REMARK    3  A    between atoms: C_19  and  C_20
REMARK    4  A    between atoms: C_23  and  C_26
REMARK                            x       y       z     vdW  Elec       q    Type
REMARK                         _______ _______ _______ _____ _____    ______ ____
ROOT
ATOM      1  N   UNL     1      36.113 -20.555 -19.873  0.00  0.00    +0.392 N 
ATOM      2  N   UNL     1      35.311 -19.099 -22.195  0.00  0.00    -0.309 N 
ATOM      3  C   UNL     1      35.003 -21.035 -20.704  0.00  0.00    -0.055 C 
ATOM      4  C   UNL     1      37.115 -19.889 -20.714  0.00  0.00    -0.055 C 
ATOM      5  C   UNL     1      34.324 -19.876 -21.438  0.00  0.00    +0.068 C 
ATOM      6  C   UNL     1      36.508 -18.691 -21.448  0.00  0.00    +0.068 C 
ATOM      7  H   UNL     1      35.752 -19.882 -19.196  0.00  0.00    -0.079 HD
ENDROOT
BRANCH   2  11
ATOM      8  O   UNL     1      34.962 -16.183 -21.976  0.00  0.00    -0.406 OA
ATOM      9  O   UNL     1      34.741 -13.907 -21.626  0.00  0.00    -0.223 OA
ATOM     10  N   UNL     1      34.275 -14.840 -23.710  0.00  0.00    -0.287 N 
ATOM     11  C   UNL     1      34.891 -18.288 -23.257  0.00  0.00    +0.084 C 
ATOM     12  C   UNL     1      34.733 -16.914 -23.131  0.00  0.00    +0.179 A 
ATOM     13  C   UNL     1      34.603 -18.825 -24.528  0.00  0.00    +0.018 C 
ATOM     14  C   UNL     1      34.321 -16.126 -24.183  0.00  0.00    +0.098 A 
ATOM     15  C   UNL     1      34.181 -18.009 -25.597  0.00  0.00    +0.003 C 
ATOM     16  C   UNL     1      34.035 -16.631 -25.431  0.00  0.00    +0.020 C 
ATOM     17  C   UNL     1      34.660 -14.869 -22.380  0.00  0.00    +0.419 A 
ATOM     18  H   UNL     1      34.015 -14.041 -24.223  0.00  0.00    +0.172 HD
ENDBRANCH   2  11
BRANCH   1  19
ATOM     19  C   UNL     1      36.718 -21.663 -19.135  0.00  0.00    -0.050 C 
BRANCH  19  20
ATOM     20  C   UNL     1      35.728 -22.289 -18.191  0.00  0.00    -0.043 C 
ATOM     21  C   UNL     1      36.116 -22.587 -16.891  0.00  0.00    -0.006 C 
ATOM     22  C   UNL     1      34.439 -22.561 -18.631  0.00  0.00    -0.006 C 
ATOM     23  C   UNL     1      35.197 -23.167 -16.016  0.00  0.00    -0.000 C 
ATOM     24  C   UNL     1      33.522 -23.141 -17.756  0.00  0.00    -0.000 C 
ATOM     25  C   UNL     1      33.900 -23.444 -16.449  0.00  0.00    -0.000 C 
BRANCH  23  26
ATOM     26  C   UNL     1      35.589 -23.481 -14.658  0.00  0.00    -0.000 C 
ATOM     27  C   UNL     1      34.682 -24.094 -13.794  0.00  0.00    -0.000 C 
ATOM     28  C   UNL     1      36.876 -23.170 -14.214  0.00  0.00    -0.000 C 
ATOM     29  C   UNL     1      35.060 -24.397 -12.486  0.00  0.00    -0.000 C 
ATOM     30  C   UNL     1      37.253 -23.473 -12.906  0.00  0.00    -0.000 C 
ATOM     31  C   UNL     1      36.345 -24.086 -12.042  0.00  0.00    +0.000 C 
ENDBRANCH  23  26
ENDBRANCH  19  20
ENDBRANCH   1  19
TORSDOF 4
ENDMDL
MODEL 8
REMARK VINA RESULT:     -10.7      1.729      3.111
REMARK  Name = 208951
REMARK  4 active torsions:
REMARK  status: ('A' for Active; 'I' for Inactive)
REMARK    1  A    between atoms: N_1  and  C_19
REMARK    2  A    between atoms: N_2  and  C_11
REMARK    3  A    between atoms: C_19  and  C_20
REMARK    4  A    between atoms: C_23  and  C_26
REMARK                            x       y       z     vdW  Elec       q    Type
REMARK                         _______ _______ _______ _____ _____    ______ ____
ROOT
ATOM      1  N   UNL     1      32.844  -9.785 -22.879  0.00  0.00    +0.392 N 
ATOM      2  N   UNL     1      33.372 -12.437 -23.800  0.00  0.00    -0.309 N 
ATOM      3  C   UNL     1      32.519 -10.943 -22.038  0.00  0.00    -0.055 C 
ATOM      4  C   UNL     1      34.043 -10.069 -23.677  0.00  0.00    -0.055 C 
ATOM      5  C   UNL     1      32.250 -12.185 -22.890  0.00  0.00    +0.068 C 
ATOM      6  C   UNL     1      33.825 -11.282 -24.585  0.00  0.00    +0.068 C 
ATOM      7  H   UNL     1      32.063  -9.608 -23.511  0.00  0.00    -0.079 HD
ENDROOT
BRANCH   2  11
ATOM      8  O   UNL     1      34.483 -14.711 -22.294  0.00  0.00    -0.406 OA
ATOM      9  O   UNL     1      35.370 -16.384 -20.965  0.00  0.00    -0.223 OA
ATOM     10  N   UNL     1      34.779 -16.812 -23.179  0.00  0.00    -0.287 N 
ATOM     11  C   UNL     1      33.550 -13.713 -24.346  0.00  0.00    +0.084 C 
ATOM     12  C   UNL     1      34.076 -14.773 -23.618  0.00  0.00    +0.179 A 
ATOM     13  C   UNL     1      33.201 -14.001 -25.682  0.00  0.00    +0.018 C 
ATOM     14  C   UNL     1      34.246 -16.025 -24.166  0.00  0.00    +0.098 A 
ATOM     15  C   UNL     1      33.380 -15.286 -26.232  0.00  0.00    +0.003 C 
ATOM     16  C   UNL     1      33.912 -16.325 -25.467  0.00  0.00    +0.020 C 
ATOM     17  C   UNL     1      34.924 -16.025 -22.048  0.00  0.00    +0.419 A 
ATOM     18  H   UNL     1      35.016 -17.763 -23.258  0.00  0.00    +0.172 HD
ENDBRANCH   2  11
BRANCH   1  19
ATOM     19  C   UNL     1      33.045  -8.593 -22.057  0.00  0.00    -0.050 C 
BRANCH  19  20
ATOM     20  C   UNL     1      32.521  -7.363 -22.747  0.00  0.00    -0.043 C 
ATOM     21  C   UNL     1      33.280  -6.761 -23.742  0.00  0.00    -0.006 C 
ATOM     22  C   UNL     1      31.284  -6.848 -22.382  0.00  0.00    -0.006 C 
ATOM     23  C   UNL     1      32.792  -5.621 -24.382  0.00  0.00    -0.000 C 
ATOM     24  C   UNL     1      30.798  -5.709 -23.022  0.00  0.00    -0.000 C 
ATOM     25  C   UNL     1      31.552  -5.095 -24.021  0.00  0.00    -0.000 C 
BRANCH  23  26
ATOM     26  C   UNL     1      33.573  -4.984 -25.421  0.00  0.00    -0.000 C 
ATOM     27  C   UNL     1      34.834  -5.481 -25.749  0.00  0.00    -0.000 C 
ATOM     28  C   UNL     1      33.064  -3.873 -26.095  0.00  0.00    -0.000 C 
ATOM     29  C   UNL     1      35.587  -4.868 -26.751  0.00  0.00    -0.000 C 
ATOM     30  C   UNL     1      33.817  -3.261 -27.096  0.00  0.00    -0.000 C 
ATOM     31  C   UNL     1      35.078  -3.758 -27.424  0.00  0.00    +0.000 C 
ENDBRANCH  23  26
ENDBRANCH  19  20
ENDBRANCH   1  19
TORSDOF 4
ENDMDL
MODEL 9
REMARK VINA RESULT:     -10.7      1.366      2.337
REMARK  Name = 208951
REMARK  4 active torsions:
REMARK  status: ('A' for Active; 'I' for Inactive)
REMARK    1  A    between atoms: N_1  and  C_19
REMARK    2  A    between atoms: N_2  and  C_11
REMARK    3  A    between atoms: C_19  and  C_20
REMARK    4  A    between atoms: C_23  and  C_26
REMARK                            x       y       z     vdW  Elec       q    Type
REMARK                         _______ _______ _______ _____ _____    ______ ____
ROOT
ATOM      1  N   UNL     1      32.270 -11.455 -21.776  0.00  0.00    +0.392 N 
ATOM      2  N   UNL     1      33.144 -13.734 -23.259  0.00  0.00    -0.309 N 
ATOM      3  C   UNL     1      32.384 -11.392 -23.238  0.00  0.00    -0.055 C 
ATOM      4  C   UNL     1      31.869 -12.806 -21.365  0.00  0.00    -0.055 C 
ATOM      5  C   UNL     1      33.431 -12.384 -23.752  0.00  0.00    +0.068 C 
ATOM      6  C   UNL     1      32.899 -13.845 -21.815  0.00  0.00    +0.068 C 
ATOM      7  H   UNL     1      33.179 -11.242 -21.365  0.00  0.00    -0.079 HD
ENDROOT
BRANCH   2  11
ATOM      8  O   UNL     1      34.711 -15.832 -21.910  0.00  0.00    -0.406 OA
ATOM      9  O   UNL     1      35.917 -17.385 -20.692  0.00  0.00    -0.223 OA
ATOM     10  N   UNL     1      35.598 -17.660 -22.984  0.00  0.00    -0.287 N 
ATOM     11  C   UNL     1      33.682 -14.844 -23.921  0.00  0.00    +0.084 C 
ATOM     12  C   UNL     1      34.418 -15.823 -23.265  0.00  0.00    +0.179 A 
ATOM     13  C   UNL     1      33.504 -15.037 -25.306  0.00  0.00    +0.018 C 
ATOM     14  C   UNL     1      34.941 -16.912 -23.927  0.00  0.00    +0.098 A 
ATOM     15  C   UNL     1      34.045 -16.155 -25.973  0.00  0.00    +0.003 C 
ATOM     16  C   UNL     1      34.779 -17.117 -25.278  0.00  0.00    +0.020 C 
ATOM     17  C   UNL     1      35.462 -17.013 -21.767  0.00  0.00    +0.419 A 
ATOM     18  H   UNL     1      36.078 -18.504 -23.144  0.00  0.00    +0.172 HD
ENDBRANCH   2  11
BRANCH   1  19
ATOM     19  C   UNL     1      31.308 -10.466 -21.294  0.00  0.00    -0.050 C 
BRANCH  19  20
ATOM     20  C   UNL     1      31.933  -9.100 -21.205  0.00  0.00    -0.043 C 
ATOM     21  C   UNL     1      32.257  -8.419 -22.371  0.00  0.00    -0.006 C 
ATOM     22  C   UNL     1      32.176  -8.538 -19.959  0.00  0.00    -0.006 C 
ATOM     23  C   UNL     1      32.836  -7.152 -22.288  0.00  0.00    -0.000 C 
ATOM     24  C   UNL     1      32.755  -7.272 -19.876  0.00  0.00    -0.000 C 
ATOM     25  C   UNL     1      33.085  -6.579 -21.040  0.00  0.00    -0.000 C 
BRANCH  23  26
ATOM     26  C   UNL     1      33.176  -6.431 -23.496  0.00  0.00    -0.000 C 
ATOM     27  C   UNL     1      34.439  -6.586 -24.068  0.00  0.00    -0.000 C 
ATOM     28  C   UNL     1      32.241  -5.581 -24.088  0.00  0.00    -0.000 C 
ATOM     29  C   UNL     1      34.767  -5.892 -25.232  0.00  0.00    -0.000 C 
ATOM     30  C   UNL     1      32.570  -4.887 -25.252  0.00  0.00    -0.000 C 
ATOM     31  C   UNL     1      33.833  -5.043 -25.825  0.00  0.00    +0.000 C 
ENDBRANCH  23  26
ENDBRANCH  19  20
ENDBRANCH   1  19
TORSDOF 4
ENDMDL
