MODEL 1
REMARK VINA RESULT:     -11.0      0.000      0.000
REMARK  Name = 60854
REMARK  3 active torsions:
REMARK  status: ('A' for Active; 'I' for Inactive)
REMARK    1  A    between atoms: N_2  and  C_17
REMARK    2  A    between atoms: C_17  and  C_18
REMARK    3  A    between atoms: C_18  and  C_22
REMARK                            x       y       z     vdW  Elec       q    Type
REMARK                         _______ _______ _______ _____ _____    ______ ____
ROOT
ATOM      1  S   UNL     1      33.453 -17.844 -25.875  0.00  0.00    +0.014 S 
ATOM      2  N   UNL     1      33.111 -11.439 -24.334  0.00  0.00    +0.389 N 
ATOM      3  N   UNL     1      33.564 -14.236 -24.697  0.00  0.00    -0.297 N 
ATOM      4  N   UNL     1      33.101 -16.228 -25.962  0.00  0.00    -0.194 NA
ATOM      5  C   UNL     1      33.383 -12.303 -23.179  0.00  0.00    -0.055 C 
ATOM      6  C   UNL     1      33.849 -11.926 -25.506  0.00  0.00    -0.055 C 
ATOM      7  C   UNL     1      32.951 -13.746 -23.458  0.00  0.00    +0.069 C 
ATOM      8  C   UNL     1      33.431 -13.354 -25.863  0.00  0.00    +0.069 C 
ATOM      9  C   UNL     1      33.668 -15.613 -24.922  0.00  0.00    +0.140 A 
ATOM     10  C   UNL     1      34.415 -16.431 -24.006  0.00  0.00    +0.040 A 
ATOM     11  C   UNL     1      34.382 -17.762 -24.429  0.00  0.00    +0.050 A 
ATOM     12  C   UNL     1      35.127 -16.118 -22.827  0.00  0.00    +0.003 C 
ATOM     13  C   UNL     1      35.030 -18.788 -23.724  0.00  0.00    +0.008 C 
ATOM     14  C   UNL     1      35.775 -17.133 -22.117  0.00  0.00    +0.000 C 
ATOM     15  C   UNL     1      35.726 -18.450 -22.561  0.00  0.00    +0.001 C 
ATOM     16  H   UNL     1      32.112 -11.466 -24.538  0.00  0.00    -0.080 HD
ENDROOT
BRANCH   2  17
ATOM     17  C   UNL     1      33.479 -10.055 -24.036  0.00  0.00    -0.072 C 
BRANCH  17  18
ATOM     18  C   UNL     1      33.067  -9.674 -22.613  0.00  0.00    +0.004 C 
BRANCH  18  22
ATOM     19 CL   UNL     1      32.004  -8.665 -19.909  0.00  0.00    -0.083 Cl
ATOM     20  O   UNL     1      31.797  -2.706 -24.343  0.00  0.00    -0.274 OA
ATOM     21  N   UNL     1      31.661  -4.238 -22.564  0.00  0.00    -0.284 N 
ATOM     22  C   UNL     1      32.669  -8.222 -22.522  0.00  0.00    -0.014 C 
ATOM     23  C   UNL     1      32.445  -6.113 -23.584  0.00  0.00    +0.000 C 
ATOM     24  C   UNL     1      32.810  -7.442 -23.668  0.00  0.00    -0.006 C 
ATOM     25  C   UNL     1      31.956  -5.585 -22.392  0.00  0.00    +0.048 C 
ATOM     26  C   UNL     1      32.175  -7.689 -21.324  0.00  0.00    +0.055 C 
ATOM     27  C   UNL     1      32.481  -5.042 -24.627  0.00  0.00    +0.113 C 
ATOM     28  C   UNL     1      31.809  -6.343 -21.248  0.00  0.00    +0.025 C 
ATOM     29  C   UNL     1      31.943  -3.823 -23.870  0.00  0.00    +0.231 C 
ATOM     30  H   UNL     1      31.301  -3.652 -21.859  0.00  0.00    +0.155 HD
ENDBRANCH  18  22
ENDBRANCH  17  18
ENDBRANCH   2  17
TORSDOF 3
ENDMDL
MODEL 2
REMARK VINA RESULT:     -11.0      7.580     12.992
REMARK  Name = 60854
REMARK  3 active torsions:
REMARK  status: ('A' for Active; 'I' for Inactive)
REMARK    1  A    between atoms: N_2  and  C_17
REMARK    2  A    between atoms: C_17  and  C_18
REMARK    3  A    between atoms: C_18  and  C_22
REMARK                            x       y       z     vdW  Elec       q    Type
REMARK                         _______ _______ _______ _____ _____    ______ ____
ROOT
ATOM      1  S   UNL     1      33.554 -16.277 -25.969  0.00  0.00    +0.014 S 
ATOM      2  N   UNL     1      36.204 -20.059 -21.258  0.00  0.00    +0.389 N 
ATOM      3  N   UNL     1      35.018 -18.122 -22.990  0.00  0.00    -0.297 N 
ATOM      4  N   UNL     1      34.120 -17.608 -25.161  0.00  0.00    -0.194 NA
ATOM      5  C   UNL     1      36.540 -18.636 -21.122  0.00  0.00    -0.055 C 
ATOM      6  C   UNL     1      34.807 -20.203 -21.687  0.00  0.00    -0.055 C 
ATOM      7  C   UNL     1      36.364 -17.900 -22.453  0.00  0.00    +0.069 C 
ATOM      8  C   UNL     1      34.575 -19.521 -23.037  0.00  0.00    +0.069 C 
ATOM      9  C   UNL     1      34.492 -17.233 -23.935  0.00  0.00    +0.140 A 
ATOM     10  C   UNL     1      34.335 -15.844 -23.599  0.00  0.00    +0.040 A 
ATOM     11  C   UNL     1      33.797 -15.155 -24.687  0.00  0.00    +0.050 A 
ATOM     12  C   UNL     1      34.620 -15.122 -22.420  0.00  0.00    +0.003 C 
ATOM     13  C   UNL     1      33.533 -13.777 -24.645  0.00  0.00    +0.008 C 
ATOM     14  C   UNL     1      34.362 -13.749 -22.367  0.00  0.00    +0.000 C 
ATOM     15  C   UNL     1      33.826 -13.087 -23.466  0.00  0.00    +0.001 C 
ATOM     16  H   UNL     1      36.810 -20.474 -21.964  0.00  0.00    -0.080 HD
ENDROOT
BRANCH   2  17
ATOM     17  C   UNL     1      36.427 -20.761 -19.994  0.00  0.00    -0.072 C 
BRANCH  17  18
ATOM     18  C   UNL     1      35.248 -21.676 -19.661  0.00  0.00    +0.004 C 
BRANCH  18  22
ATOM     19 CL   UNL     1      32.676 -22.684 -18.307  0.00  0.00    -0.083 Cl
ATOM     20  O   UNL     1      38.042 -23.986 -13.335  0.00  0.00    -0.274 OA
ATOM     21  N   UNL     1      36.019 -23.798 -14.519  0.00  0.00    -0.284 N 
ATOM     22  C   UNL     1      35.376 -22.261 -18.276  0.00  0.00    -0.014 C 
ATOM     23  C   UNL     1      36.764 -22.837 -16.441  0.00  0.00    +0.000 C 
ATOM     24  C   UNL     1      36.648 -22.302 -17.709  0.00  0.00    -0.006 C 
ATOM     25  C   UNL     1      35.643 -23.314 -15.767  0.00  0.00    +0.048 C 
ATOM     26  C   UNL     1      34.249 -22.740 -17.595  0.00  0.00    +0.055 C 
ATOM     27  C   UNL     1      37.976 -23.015 -15.584  0.00  0.00    +0.113 C 
ATOM     28  C   UNL     1      34.376 -23.281 -16.313  0.00  0.00    +0.025 C 
ATOM     29  C   UNL     1      37.397 -23.661 -14.320  0.00  0.00    +0.231 C 
ATOM     30  H   UNL     1      35.398 -24.186 -13.861  0.00  0.00    +0.155 HD
ENDBRANCH  18  22
ENDBRANCH  17  18
ENDBRANCH   2  17
TORSDOF 3
ENDMDL
MODEL 3
REMARK VINA RESULT:     -10.8      5.484     10.786
REMARK  Name = 60854
REMARK  3 active torsions:
REMARK  status: ('A' for Active; 'I' for Inactive)
REMARK    1  A    between atoms: N_2  and  C_17
REMARK    2  A    between atoms: C_17  and  C_18
REMARK    3  A    between atoms: C_18  and  C_22
REMARK                            x       y       z     vdW  Elec       q    Type
REMARK                         _______ _______ _______ _____ _____    ______ ____
ROOT
ATOM      1  S   UNL     1      32.864  -9.398 -23.671  0.00  0.00    +0.014 S 
ATOM      2  N   UNL     1      34.450 -15.793 -23.986  0.00  0.00    +0.389 N 
ATOM      3  N   UNL     1      33.540 -13.130 -23.496  0.00  0.00    -0.297 N 
ATOM      4  N   UNL     1      33.406 -10.851 -24.251  0.00  0.00    -0.194 NA
ATOM      5  C   UNL     1      34.344 -15.285 -22.612  0.00  0.00    -0.055 C 
ATOM      6  C   UNL     1      33.393 -15.205 -24.818  0.00  0.00    -0.055 C 
ATOM      7  C   UNL     1      34.493 -13.761 -22.577  0.00  0.00    +0.069 C 
ATOM      8  C   UNL     1      33.511 -13.679 -24.857  0.00  0.00    +0.069 C 
ATOM      9  C   UNL     1      33.195 -11.785 -23.322  0.00  0.00    +0.140 A 
ATOM     10  C   UNL     1      32.582 -11.359 -22.093  0.00  0.00    +0.040 A 
ATOM     11  C   UNL     1      32.329  -9.986 -22.145  0.00  0.00    +0.050 A 
ATOM     12  C   UNL     1      32.224 -12.065 -20.924  0.00  0.00    +0.003 C 
ATOM     13  C   UNL     1      31.732  -9.294 -21.080  0.00  0.00    +0.008 C 
ATOM     14  C   UNL     1      31.629 -11.385 -19.857  0.00  0.00    +0.000 C 
ATOM     15  C   UNL     1      31.387 -10.017 -19.935  0.00  0.00    +0.001 C 
ATOM     16  H   UNL     1      35.357 -15.526 -24.367  0.00  0.00    -0.080 HD
ENDROOT
BRANCH   2  17
ATOM     17  C   UNL     1      34.360 -17.253 -24.000  0.00  0.00    -0.072 C 
BRANCH  17  18
ATOM     18  C   UNL     1      35.687 -17.886 -23.581  0.00  0.00    +0.004 C 
BRANCH  18  22
ATOM     19 CL   UNL     1      38.205 -18.748 -22.037  0.00  0.00    -0.083 Cl
ATOM     20  O   UNL     1      32.635 -22.359 -18.698  0.00  0.00    -0.274 OA
ATOM     21  N   UNL     1      34.707 -21.476 -19.375  0.00  0.00    -0.284 N 
ATOM     22  C   UNL     1      35.503 -18.851 -22.436  0.00  0.00    -0.014 C 
ATOM     23  C   UNL     1      34.040 -20.165 -21.110  0.00  0.00    +0.000 C 
ATOM     24  C   UNL     1      34.208 -19.282 -22.159  0.00  0.00    -0.006 C 
ATOM     25  C   UNL     1      35.133 -20.599 -20.366  0.00  0.00    +0.048 C 
ATOM     26  C   UNL     1      36.603 -19.289 -21.685  0.00  0.00    +0.055 C 
ATOM     27  C   UNL     1      32.792 -20.796 -20.580  0.00  0.00    +0.113 C 
ATOM     28  C   UNL     1      36.423 -20.182 -20.626  0.00  0.00    +0.025 C 
ATOM     29  C   UNL     1      33.320 -21.656 -19.425  0.00  0.00    +0.231 C 
ATOM     30  H   UNL     1      35.301 -21.913 -18.724  0.00  0.00    +0.155 HD
ENDBRANCH  18  22
ENDBRANCH  17  18
ENDBRANCH   2  17
TORSDOF 3
ENDMDL
MODEL 4
REMARK VINA RESULT:     -10.8      4.983     10.153
REMARK  Name = 60854
REMARK  3 active torsions:
REMARK  status: ('A' for Active; 'I' for Inactive)
REMARK    1  A    between atoms: N_2  and  C_17
REMARK    2  A    between atoms: C_17  and  C_18
REMARK    3  A    between atoms: C_18  and  C_22
REMARK                            x       y       z     vdW  Elec       q    Type
REMARK                         _______ _______ _______ _____ _____    ______ ____
ROOT
ATOM      1  S   UNL     1      34.435  -7.872 -23.583  0.00  0.00    +0.014 S 
ATOM      2  N   UNL     1      33.648 -14.214 -25.216  0.00  0.00    +0.389 N 
ATOM      3  N   UNL     1      33.650 -11.527 -24.249  0.00  0.00    -0.297 N 
ATOM      4  N   UNL     1      34.567  -9.308 -24.396  0.00  0.00    -0.194 NA
ATOM      5  C   UNL     1      33.334 -13.930 -23.811  0.00  0.00    -0.055 C 
ATOM      6  C   UNL     1      33.166 -13.119 -26.066  0.00  0.00    -0.055 C 
ATOM      7  C   UNL     1      34.000 -12.630 -23.350  0.00  0.00    +0.069 C 
ATOM      8  C   UNL     1      33.827 -11.794 -25.682  0.00  0.00    +0.069 C 
ATOM      9  C   UNL     1      33.774 -10.205 -23.806  0.00  0.00    +0.140 A 
ATOM     10  C   UNL     1      33.023  -9.762 -22.663  0.00  0.00    +0.040 A 
ATOM     11  C   UNL     1      33.303  -8.418 -22.408  0.00  0.00    +0.050 A 
ATOM     12  C   UNL     1      32.110 -10.431 -21.819  0.00  0.00    +0.003 C 
ATOM     13  C   UNL     1      32.709  -7.718 -21.346  0.00  0.00    +0.008 C 
ATOM     14  C   UNL     1      31.513  -9.742 -20.758  0.00  0.00    +0.000 C 
ATOM     15  C   UNL     1      31.810  -8.404 -20.526  0.00  0.00    +0.001 C 
ATOM     16  H   UNL     1      34.660 -14.290 -25.319  0.00  0.00    -0.080 HD
ENDROOT
BRANCH   2  17
ATOM     17  C   UNL     1      33.051 -15.485 -25.628  0.00  0.00    -0.072 C 
BRANCH  17  18
ATOM     18  C   UNL     1      34.131 -16.503 -25.995  0.00  0.00    +0.004 C 
BRANCH  18  22
ATOM     19 CL   UNL     1      32.372 -19.027 -25.965  0.00  0.00    -0.083 Cl
ATOM     20  O   UNL     1      36.791 -19.754 -20.036  0.00  0.00    -0.274 OA
ATOM     21  N   UNL     1      35.193 -20.012 -21.740  0.00  0.00    -0.284 N 
ATOM     22  C   UNL     1      34.358 -17.494 -24.881  0.00  0.00    -0.014 C 
ATOM     23  C   UNL     1      35.555 -18.104 -22.925  0.00  0.00    +0.000 C 
ATOM     24  C   UNL     1      35.347 -17.197 -23.945  0.00  0.00    -0.006 C 
ATOM     25  C   UNL     1      34.797 -19.270 -22.848  0.00  0.00    +0.048 C 
ATOM     26  C   UNL     1      33.596 -18.668 -24.799  0.00  0.00    +0.055 C 
ATOM     27  C   UNL     1      36.527 -18.064 -21.790  0.00  0.00    +0.113 C 
ATOM     28  C   UNL     1      33.813 -19.580 -23.765  0.00  0.00    +0.025 C 
ATOM     29  C   UNL     1      36.224 -19.369 -21.046  0.00  0.00    +0.231 C 
ATOM     30  H   UNL     1      34.799 -20.875 -21.479  0.00  0.00    +0.155 HD
ENDBRANCH  18  22
ENDBRANCH  17  18
ENDBRANCH   2  17
TORSDOF 3
ENDMDL
MODEL 5
REMARK VINA RESULT:     -10.8      5.826     11.363
REMARK  Name = 60854
REMARK  3 active torsions:
REMARK  status: ('A' for Active; 'I' for Inactive)
REMARK    1  A    between atoms: N_2  and  C_17
REMARK    2  A    between atoms: C_17  and  C_18
REMARK    3  A    between atoms: C_18  and  C_22
REMARK                            x       y       z     vdW  Elec       q    Type
REMARK                         _______ _______ _______ _____ _____    ______ ____
ROOT
ATOM      1  S   UNL     1      30.959 -10.609 -21.408  0.00  0.00    +0.014 S 
ATOM      2  N   UNL     1      34.546 -16.054 -22.407  0.00  0.00    +0.389 N 
ATOM      3  N   UNL     1      33.307 -13.490 -22.186  0.00  0.00    -0.297 N 
ATOM      4  N   UNL     1      31.520 -12.161 -21.277  0.00  0.00    -0.194 NA
ATOM      5  C   UNL     1      34.617 -15.096 -23.517  0.00  0.00    -0.055 C 
ATOM      6  C   UNL     1      34.550 -15.336 -21.127  0.00  0.00    -0.055 C 
ATOM      7  C   UNL     1      33.422 -14.139 -23.496  0.00  0.00    +0.069 C 
ATOM      8  C   UNL     1      33.352 -14.388 -21.026  0.00  0.00    +0.069 C 
ATOM      9  C   UNL     1      32.589 -12.294 -22.065  0.00  0.00    +0.140 A 
ATOM     10  C   UNL     1      32.999 -11.137 -22.813  0.00  0.00    +0.040 A 
ATOM     11  C   UNL     1      32.142 -10.070 -22.535  0.00  0.00    +0.050 A 
ATOM     12  C   UNL     1      34.060 -10.929 -23.721  0.00  0.00    +0.003 C 
ATOM     13  C   UNL     1      32.303  -8.807 -23.127  0.00  0.00    +0.008 C 
ATOM     14  C   UNL     1      34.229  -9.675 -24.317  0.00  0.00    +0.000 C 
ATOM     15  C   UNL     1      33.361  -8.629 -24.022  0.00  0.00    +0.001 C 
ATOM     16  H   UNL     1      33.678 -16.584 -22.485  0.00  0.00    -0.080 HD
ENDROOT
BRANCH   2  17
ATOM     17  C   UNL     1      35.663 -16.996 -22.470  0.00  0.00    -0.072 C 
BRANCH  17  18
ATOM     18  C   UNL     1      35.189 -18.378 -22.918  0.00  0.00    +0.004 C 
BRANCH  18  22
ATOM     19 CL   UNL     1      38.004 -18.959 -21.820  0.00  0.00    -0.083 Cl
ATOM     20  O   UNL     1      33.505 -23.340 -17.848  0.00  0.00    -0.274 OA
ATOM     21  N   UNL     1      35.322 -22.183 -18.790  0.00  0.00    -0.284 N 
ATOM     22  C   UNL     1      35.305 -19.391 -21.806  0.00  0.00    -0.014 C 
ATOM     23  C   UNL     1      34.237 -20.917 -20.337  0.00  0.00    +0.000 C 
ATOM     24  C   UNL     1      34.131 -19.990 -21.356  0.00  0.00    -0.006 C 
ATOM     25  C   UNL     1      35.479 -21.230 -19.790  0.00  0.00    +0.048 C 
ATOM     26  C   UNL     1      36.554 -19.708 -21.254  0.00  0.00    +0.055 C 
ATOM     27  C   UNL     1      33.175 -21.716 -19.654  0.00  0.00    +0.113 C 
ATOM     28  C   UNL     1      36.652 -20.646 -20.224  0.00  0.00    +0.025 C 
ATOM     29  C   UNL     1      33.976 -22.535 -18.636  0.00  0.00    +0.231 C 
ATOM     30  H   UNL     1      36.060 -22.560 -18.259  0.00  0.00    +0.155 HD
ENDBRANCH  18  22
ENDBRANCH  17  18
ENDBRANCH   2  17
TORSDOF 3
ENDMDL
MODEL 6
REMARK VINA RESULT:     -10.6      1.731      2.347
REMARK  Name = 60854
REMARK  3 active torsions:
REMARK  status: ('A' for Active; 'I' for Inactive)
REMARK    1  A    between atoms: N_2  and  C_17
REMARK    2  A    between atoms: C_17  and  C_18
REMARK    3  A    between atoms: C_18  and  C_22
REMARK                            x       y       z     vdW  Elec       q    Type
REMARK                         _______ _______ _______ _____ _____    ______ ____
ROOT
ATOM      1  S   UNL     1      34.234 -15.803 -25.062  0.00  0.00    +0.014 S 
ATOM      2  N   UNL     1      32.158 -10.039 -22.617  0.00  0.00    +0.389 N 
ATOM      3  N   UNL     1      33.238 -12.596 -23.289  0.00  0.00    -0.297 N 
ATOM      4  N   UNL     1      33.628 -14.264 -24.977  0.00  0.00    -0.194 NA
ATOM      5  C   UNL     1      32.181 -11.120 -21.624  0.00  0.00    -0.055 C 
ATOM      6  C   UNL     1      33.330 -10.142 -23.494  0.00  0.00    -0.055 C 
ATOM      7  C   UNL     1      32.156 -12.491 -22.304  0.00  0.00    +0.069 C 
ATOM      8  C   UNL     1      33.343 -11.480 -24.237  0.00  0.00    +0.069 C 
ATOM      9  C   UNL     1      33.676 -13.858 -23.707  0.00  0.00    +0.140 A 
ATOM     10  C   UNL     1      34.208 -14.783 -22.744  0.00  0.00    +0.040 A 
ATOM     11  C   UNL     1      34.579 -15.968 -23.385  0.00  0.00    +0.050 A 
ATOM     12  C   UNL     1      34.400 -14.685 -21.349  0.00  0.00    +0.003 C 
ATOM     13  C   UNL     1      35.132 -17.054 -22.689  0.00  0.00    +0.008 C 
ATOM     14  C   UNL     1      34.951 -15.762 -20.646  0.00  0.00    +0.000 C 
ATOM     15  C   UNL     1      35.311 -16.930 -21.309  0.00  0.00    +0.001 C 
ATOM     16  H   UNL     1      31.314 -10.129 -23.182  0.00  0.00    -0.080 HD
ENDROOT
BRANCH   2  17
ATOM     17  C   UNL     1      32.127  -8.735 -21.954  0.00  0.00    -0.072 C 
BRANCH  17  18
ATOM     18  C   UNL     1      33.378  -7.922 -22.289  0.00  0.00    +0.004 C 
BRANCH  18  22
ATOM     19 CL   UNL     1      31.512  -5.898 -20.914  0.00  0.00    -0.083 Cl
ATOM     20  O   UNL     1      33.060  -2.837 -27.505  0.00  0.00    -0.274 OA
ATOM     21  N   UNL     1      32.270  -3.345 -25.350  0.00  0.00    -0.284 N 
ATOM     22  C   UNL     1      33.034  -6.665 -23.050  0.00  0.00    -0.014 C 
ATOM     23  C   UNL     1      33.270  -5.361 -25.017  0.00  0.00    +0.000 C 
ATOM     24  C   UNL     1      33.585  -6.511 -24.320  0.00  0.00    -0.006 C 
ATOM     25  C   UNL     1      32.432  -4.400 -24.458  0.00  0.00    +0.048 C 
ATOM     26  C   UNL     1      32.190  -5.696 -22.490  0.00  0.00    +0.055 C 
ATOM     27  C   UNL     1      33.699  -4.918 -26.379  0.00  0.00    +0.113 C 
ATOM     28  C   UNL     1      31.878  -4.536 -23.202  0.00  0.00    +0.025 C 
ATOM     29  C   UNL     1      32.991  -3.567 -26.528  0.00  0.00    +0.231 C 
ATOM     30  H   UNL     1      31.720  -2.548 -25.175  0.00  0.00    +0.155 HD
ENDBRANCH  18  22
ENDBRANCH  17  18
ENDBRANCH   2  17
TORSDOF 3
ENDMDL
MODEL 7
REMARK VINA RESULT:     -10.4      7.533     11.106
REMARK  Name = 60854
REMARK  3 active torsions:
REMARK  status: ('A' for Active; 'I' for Inactive)
REMARK    1  A    between atoms: N_2  and  C_17
REMARK    2  A    between atoms: C_17  and  C_18
REMARK    3  A    between atoms: C_18  and  C_22
REMARK                            x       y       z     vdW  Elec       q    Type
REMARK                         _______ _______ _______ _____ _____    ______ ____
ROOT
ATOM      1  S   UNL     1      35.811 -24.751 -14.653  0.00  0.00    +0.014 S 
ATOM      2  N   UNL     1      34.737 -21.484 -20.282  0.00  0.00    +0.389 N 
ATOM      3  N   UNL     1      34.825 -22.733 -17.714  0.00  0.00    -0.297 N 
ATOM      4  N   UNL     1      36.069 -24.044 -16.128  0.00  0.00    -0.194 NA
ATOM      5  C   UNL     1      33.510 -22.008 -19.667  0.00  0.00    -0.055 C 
ATOM      6  C   UNL     1      35.640 -20.978 -19.241  0.00  0.00    -0.055 C 
ATOM      7  C   UNL     1      33.825 -23.153 -18.701  0.00  0.00    +0.069 C 
ATOM      8  C   UNL     1      36.026 -22.090 -18.262  0.00  0.00    +0.069 C 
ATOM      9  C   UNL     1      34.946 -23.432 -16.508  0.00  0.00    +0.140 A 
ATOM     10  C   UNL     1      33.823 -23.512 -15.614  0.00  0.00    +0.040 A 
ATOM     11  C   UNL     1      34.173 -24.252 -14.483  0.00  0.00    +0.050 A 
ATOM     12  C   UNL     1      32.512 -22.993 -15.699  0.00  0.00    +0.003 C 
ATOM     13  C   UNL     1      33.269 -24.494 -13.437  0.00  0.00    +0.008 C 
ATOM     14  C   UNL     1      31.603 -23.228 -14.662  0.00  0.00    +0.000 C 
ATOM     15  C   UNL     1      31.979 -23.969 -13.547  0.00  0.00    +0.001 C 
ATOM     16  H   UNL     1      35.202 -22.241 -20.783  0.00  0.00    -0.080 HD
ENDROOT
BRANCH   2  17
ATOM     17  C   UNL     1      34.418 -20.428 -21.242  0.00  0.00    -0.072 C 
BRANCH  17  18
ATOM     18  C   UNL     1      35.611 -19.494 -21.443  0.00  0.00    +0.004 C 
BRANCH  18  22
ATOM     19 CL   UNL     1      35.027 -19.894 -24.437  0.00  0.00    -0.083 Cl
ATOM     20  O   UNL     1      34.048 -12.617 -23.297  0.00  0.00    -0.274 OA
ATOM     21  N   UNL     1      34.222 -14.790 -24.179  0.00  0.00    -0.284 N 
ATOM     22  C   UNL     1      35.230 -18.274 -22.246  0.00  0.00    -0.014 C 
ATOM     23  C   UNL     1      34.822 -15.938 -22.309  0.00  0.00    +0.000 C 
ATOM     24  C   UNL     1      35.171 -17.055 -21.575  0.00  0.00    -0.006 C 
ATOM     25  C   UNL     1      34.543 -16.043 -23.670  0.00  0.00    +0.048 C 
ATOM     26  C   UNL     1      34.950 -18.377 -23.615  0.00  0.00    +0.055 C 
ATOM     27  C   UNL     1      34.676 -14.514 -21.878  0.00  0.00    +0.113 C 
ATOM     28  C   UNL     1      34.598 -17.243 -24.350  0.00  0.00    +0.025 C 
ATOM     29  C   UNL     1      34.275 -13.812 -23.179  0.00  0.00    +0.231 C 
ATOM     30  H   UNL     1      33.988 -14.614 -25.118  0.00  0.00    +0.155 HD
ENDBRANCH  18  22
ENDBRANCH  17  18
ENDBRANCH   2  17
TORSDOF 3
ENDMDL
MODEL 8
REMARK VINA RESULT:     -10.2      1.733      2.298
REMARK  Name = 60854
REMARK  3 active torsions:
REMARK  status: ('A' for Active; 'I' for Inactive)
REMARK    1  A    between atoms: N_2  and  C_17
REMARK    2  A    between atoms: C_17  and  C_18
REMARK    3  A    between atoms: C_18  and  C_22
REMARK                            x       y       z     vdW  Elec       q    Type
REMARK                         _______ _______ _______ _____ _____    ______ ____
ROOT
ATOM      1  S   UNL     1      34.524 -16.247 -24.992  0.00  0.00    +0.014 S 
ATOM      2  N   UNL     1      31.931 -10.720 -22.494  0.00  0.00    +0.389 N 
ATOM      3  N   UNL     1      33.226 -13.170 -23.184  0.00  0.00    -0.297 N 
ATOM      4  N   UNL     1      33.799 -14.761 -24.894  0.00  0.00    -0.194 NA
ATOM      5  C   UNL     1      32.005 -11.820 -21.524  0.00  0.00    -0.055 C 
ATOM      6  C   UNL     1      33.136 -10.712 -23.332  0.00  0.00    -0.055 C 
ATOM      7  C   UNL     1      32.109 -13.173 -22.235  0.00  0.00    +0.069 C 
ATOM      8  C   UNL     1      33.276 -12.027 -24.103  0.00  0.00    +0.069 C 
ATOM      9  C   UNL     1      33.774 -14.385 -23.614  0.00  0.00    +0.140 A 
ATOM     10  C   UNL     1      34.345 -15.290 -22.654  0.00  0.00    +0.040 A 
ATOM     11  C   UNL     1      34.826 -16.426 -23.307  0.00  0.00    +0.050 A 
ATOM     12  C   UNL     1      34.483 -15.211 -21.251  0.00  0.00    +0.003 C 
ATOM     13  C   UNL     1      35.439 -17.483 -22.617  0.00  0.00    +0.008 C 
ATOM     14  C   UNL     1      35.091 -16.260 -20.553  0.00  0.00    +0.000 C 
ATOM     15  C   UNL     1      35.562 -17.380 -21.229  0.00  0.00    +0.001 C 
ATOM     16  H   UNL     1      31.116 -10.860 -23.090  0.00  0.00    -0.080 HD
ENDROOT
BRANCH   2  17
ATOM     17  C   UNL     1      31.778  -9.439 -21.804  0.00  0.00    -0.072 C 
BRANCH  17  18
ATOM     18  C   UNL     1      33.051  -8.600 -21.920  0.00  0.00    +0.004 C 
BRANCH  18  22
ATOM     19 CL   UNL     1      34.696  -7.782 -24.388  0.00  0.00    -0.083 Cl
ATOM     20  O   UNL     1      30.188  -2.007 -23.147  0.00  0.00    -0.274 OA
ATOM     21  N   UNL     1      31.791  -3.522 -23.962  0.00  0.00    -0.284 N 
ATOM     22  C   UNL     1      32.769  -7.247 -22.526  0.00  0.00    -0.014 C 
ATOM     23  C   UNL     1      31.526  -5.227 -22.480  0.00  0.00    +0.000 C 
ATOM     24  C   UNL     1      31.784  -6.465 -21.925  0.00  0.00    -0.006 C 
ATOM     25  C   UNL     1      32.231  -4.790 -23.598  0.00  0.00    +0.048 C 
ATOM     26  C   UNL     1      33.477  -6.804 -23.651  0.00  0.00    +0.055 C 
ATOM     27  C   UNL     1      30.545  -4.178 -22.066  0.00  0.00    +0.113 C 
ATOM     28  C   UNL     1      33.209  -5.551 -24.206  0.00  0.00    +0.025 C 
ATOM     29  C   UNL     1      30.783  -3.073 -23.102  0.00  0.00    +0.231 C 
ATOM     30  H   UNL     1      32.143  -3.007 -24.723  0.00  0.00    +0.155 HD
ENDBRANCH  18  22
ENDBRANCH  17  18
ENDBRANCH   2  17
TORSDOF 3
ENDMDL
MODEL 9
REMARK VINA RESULT:     -10.2      8.772     12.892
REMARK  Name = 60854
REMARK  3 active torsions:
REMARK  status: ('A' for Active; 'I' for Inactive)
REMARK    1  A    between atoms: N_2  and  C_17
REMARK    2  A    between atoms: C_17  and  C_18
REMARK    3  A    between atoms: C_18  and  C_22
REMARK                            x       y       z     vdW  Elec       q    Type
REMARK                         _______ _______ _______ _____ _____    ______ ____
ROOT
ATOM      1  S   UNL     1      35.290 -24.660 -12.526  0.00  0.00    +0.014 S 
ATOM      2  N   UNL     1      35.600 -21.815 -18.470  0.00  0.00    +0.389 N 
ATOM      3  N   UNL     1      35.829 -23.250 -16.011  0.00  0.00    -0.297 N 
ATOM      4  N   UNL     1      34.854 -23.827 -13.890  0.00  0.00    -0.194 NA
ATOM      5  C   UNL     1      36.917 -22.044 -17.863  0.00  0.00    -0.055 C 
ATOM      6  C   UNL     1      34.717 -22.954 -18.190  0.00  0.00    -0.055 C 
ATOM      7  C   UNL     1      36.802 -22.205 -16.345  0.00  0.00    +0.069 C 
ATOM      8  C   UNL     1      34.528 -23.144 -16.683  0.00  0.00    +0.069 C 
ATOM      9  C   UNL     1      35.871 -23.861 -14.752  0.00  0.00    +0.140 A 
ATOM     10  C   UNL     1      37.054 -24.568 -14.342  0.00  0.00    +0.040 A 
ATOM     11  C   UNL     1      36.868 -25.092 -13.061  0.00  0.00    +0.050 A 
ATOM     12  C   UNL     1      38.287 -24.797 -14.990  0.00  0.00    +0.003 C 
ATOM     13  C   UNL     1      37.862 -25.834 -12.404  0.00  0.00    +0.008 C 
ATOM     14  C   UNL     1      39.285 -25.535 -14.344  0.00  0.00    +0.000 C 
ATOM     15  C   UNL     1      39.073 -26.045 -13.068  0.00  0.00    +0.001 C 
ATOM     16  H   UNL     1      35.192 -20.973 -18.063  0.00  0.00    -0.080 HD
ENDROOT
BRANCH   2  17
ATOM     17  C   UNL     1      35.730 -21.609 -19.912  0.00  0.00    -0.072 C 
BRANCH  17  18
ATOM     18  C   UNL     1      34.468 -20.965 -20.488  0.00  0.00    +0.004 C 
BRANCH  18  22
ATOM     19 CL   UNL     1      37.025 -19.316 -20.027  0.00  0.00    -0.083 Cl
ATOM     20  O   UNL     1      34.172 -16.620 -26.336  0.00  0.00    -0.274 OA
ATOM     21  N   UNL     1      35.468 -17.094 -24.432  0.00  0.00    -0.284 N 
ATOM     22  C   UNL     1      34.804 -19.904 -21.507  0.00  0.00    -0.014 C 
ATOM     23  C   UNL     1      34.241 -18.775 -23.516  0.00  0.00    +0.000 C 
ATOM     24  C   UNL     1      33.933 -19.747 -22.583  0.00  0.00    -0.006 C 
ATOM     25  C   UNL     1      35.382 -17.991 -23.373  0.00  0.00    +0.048 C 
ATOM     26  C   UNL     1      35.952 -19.112 -21.365  0.00  0.00    +0.055 C 
ATOM     27  C   UNL     1      33.512 -18.376 -24.759  0.00  0.00    +0.113 C 
ATOM     28  C   UNL     1      36.255 -18.133 -22.314  0.00  0.00    +0.025 C 
ATOM     29  C   UNL     1      34.392 -17.250 -25.313  0.00  0.00    +0.231 C 
ATOM     30  H   UNL     1      36.191 -16.435 -24.547  0.00  0.00    +0.155 HD
ENDBRANCH  18  22
ENDBRANCH  17  18
ENDBRANCH   2  17
TORSDOF 3
ENDMDL
