MODEL 1
REMARK VINA RESULT:     -12.7      0.000      0.000
REMARK  Name = 25025505
REMARK  6 active torsions:
REMARK  status: ('A' for Active; 'I' for Inactive)
REMARK    1  A    between atoms: C_3  and  C_9
REMARK    2  A    between atoms: C_4  and  C_20
REMARK    3  A    between atoms: C_17  and  C_18
REMARK    4  A    between atoms: C_20  and  O_21
REMARK    5  A    between atoms: O_21  and  C_22
REMARK    6  A    between atoms: C_25  and  N_28
REMARK                            x       y       z     vdW  Elec       q    Type
REMARK                         _______ _______ _______ _____ _____    ______ ____
ROOT
ATOM      1  S   UNL     1      36.402 -23.894 -15.383  0.00  0.00    -0.079 S 
ATOM      2  N   UNL     1      33.841 -23.692 -15.675  0.00  0.00    -0.404 NA
ATOM      3  C   UNL     1      34.991 -23.520 -16.287  0.00  0.00    +0.134 C 
ATOM      4  C   UNL     1      34.081 -24.154 -14.395  0.00  0.00    +0.142 C 
ATOM      5  C   UNL     1      35.407 -24.326 -14.055  0.00  0.00    +0.122 C 
ENDROOT
BRANCH   3   9
ATOM      6  N   UNL     1      35.143 -21.031 -19.814  0.00  0.00    -0.253 N 
ATOM      7  N   UNL     1      36.266 -19.309 -20.923  0.00  0.00    -0.203 NA
ATOM      8  N   UNL     1      34.145 -20.126 -21.723  0.00  0.00    -0.181 NA
ATOM      9  C   UNL     1      35.139 -23.021 -17.712  0.00  0.00    +0.062 C 
ATOM     10  C   UNL     1      33.834 -22.414 -18.250  0.00  0.00    +0.030 C 
ATOM     11  C   UNL     1      36.277 -21.999 -17.852  0.00  0.00    +0.030 C 
ATOM     12  C   UNL     1      33.994 -21.937 -19.694  0.00  0.00    +0.102 C 
ATOM     13  C   UNL     1      36.426 -21.531 -19.300  0.00  0.00    +0.102 C 
ATOM     14  C   UNL     1      35.187 -20.113 -20.870  0.00  0.00    +0.090 C 
ATOM     15  C   UNL     1      36.276 -18.436 -21.951  0.00  0.00    +0.161 C 
ATOM     16  C   UNL     1      34.220 -19.227 -22.726  0.00  0.00    +0.104 C 
ATOM     17  C   UNL     1      35.270 -18.348 -22.892  0.00  0.00    +0.001 C 
BRANCH  17  18
ATOM     18  C   UNL     1      35.318 -17.374 -24.009  0.00  0.00    +0.026 C 
ATOM     19  C   UNL     1      34.295 -17.682 -25.104  0.00  0.00    +0.005 C 
ENDBRANCH  17  18
ENDBRANCH   3   9
BRANCH   4  20
ATOM     20  C   UNL     1      32.925 -24.420 -13.517  0.00  0.00    +0.260 C 
BRANCH  20  21
ATOM     21  O   UNL     1      31.996 -25.276 -14.180  0.00  0.00    -0.468 OA
BRANCH  21  22
ATOM     22  C   UNL     1      30.881 -24.681 -14.702  0.00  0.00    +0.139 C 
ATOM     23  C   UNL     1      30.047 -25.395 -15.565  0.00  0.00    +0.038 C 
ATOM     24  C   UNL     1      30.575 -23.361 -14.374  0.00  0.00    +0.038 C 
ATOM     25  C   UNL     1      28.607 -23.468 -15.769  0.00  0.00    +0.078 C 
ATOM     26  C   UNL     1      28.911 -24.788 -16.098  0.00  0.00    +0.020 C 
ATOM     27  C   UNL     1      29.438 -22.753 -14.907  0.00  0.00    +0.020 C 
BRANCH  25  28
ATOM     28  N   UNL     1      27.479 -22.866 -16.298  0.00  0.00    -0.149 N 
ATOM     29  N   UNL     1      26.444 -22.486 -15.536  0.00  0.00    -0.048 NA
ATOM     30  N   UNL     1      26.043 -22.002 -17.675  0.00  0.00    -0.107 NA
ATOM     31  N   UNL     1      25.569 -21.958 -16.383  0.00  0.00    -0.024 NA
ATOM     32  C   UNL     1      27.226 -22.567 -17.600  0.00  0.00    +0.215 C 
ENDBRANCH  25  28
ENDBRANCH  21  22
ENDBRANCH  20  21
ENDBRANCH   4  20
TORSDOF 6
ENDMDL
MODEL 2
REMARK VINA RESULT:     -12.2      6.986     10.392
REMARK  Name = 25025505
REMARK  6 active torsions:
REMARK  status: ('A' for Active; 'I' for Inactive)
REMARK    1  A    between atoms: C_3  and  C_9
REMARK    2  A    between atoms: C_4  and  C_20
REMARK    3  A    between atoms: C_17  and  C_18
REMARK    4  A    between atoms: C_20  and  O_21
REMARK    5  A    between atoms: O_21  and  C_22
REMARK    6  A    between atoms: C_25  and  N_28
REMARK                            x       y       z     vdW  Elec       q    Type
REMARK                         _______ _______ _______ _____ _____    ______ ____
ROOT
ATOM      1  S   UNL     1      33.801 -16.072 -25.300  0.00  0.00    -0.079 S 
ATOM      2  N   UNL     1      34.634 -15.599 -22.899  0.00  0.00    -0.404 NA
ATOM      3  C   UNL     1      33.932 -15.100 -23.892  0.00  0.00    +0.134 C 
ATOM      4  C   UNL     1      35.107 -16.843 -23.268  0.00  0.00    +0.142 C 
ATOM      5  C   UNL     1      34.759 -17.270 -24.533  0.00  0.00    +0.122 C 
ENDROOT
BRANCH   3   9
ATOM      6  N   UNL     1      32.969 -10.957 -23.141  0.00  0.00    -0.253 N 
ATOM      7  N   UNL     1      33.556  -8.730 -23.533  0.00  0.00    -0.203 NA
ATOM      8  N   UNL     1      31.869  -9.303 -21.910  0.00  0.00    -0.181 NA
ATOM      9  C   UNL     1      33.249 -13.745 -23.864  0.00  0.00    +0.062 C 
ATOM     10  C   UNL     1      32.874 -13.316 -22.438  0.00  0.00    +0.030 C 
ATOM     11  C   UNL     1      34.106 -12.652 -24.521  0.00  0.00    +0.030 C 
ATOM     12  C   UNL     1      32.168 -11.960 -22.430  0.00  0.00    +0.102 C 
ATOM     13  C   UNL     1      33.388 -11.303 -24.506  0.00  0.00    +0.102 C 
ATOM     14  C   UNL     1      32.789  -9.599 -22.848  0.00  0.00    +0.090 C 
ATOM     15  C   UNL     1      33.358  -7.431 -23.225  0.00  0.00    +0.161 C 
ATOM     16  C   UNL     1      31.723  -7.987 -21.652  0.00  0.00    +0.104 C 
ATOM     17  C   UNL     1      32.447  -6.996 -22.283  0.00  0.00    +0.001 C 
BRANCH  17  18
ATOM     18  C   UNL     1      32.259  -5.559 -21.973  0.00  0.00    +0.026 C 
ATOM     19  C   UNL     1      30.790  -5.135 -22.012  0.00  0.00    +0.005 C 
ENDBRANCH  17  18
ENDBRANCH   3   9
BRANCH   4  20
ATOM     20  C   UNL     1      35.928 -17.597 -22.301  0.00  0.00    +0.260 C 
BRANCH  20  21
ATOM     21  O   UNL     1      35.859 -18.993 -22.586  0.00  0.00    -0.468 OA
BRANCH  21  22
ATOM     22  C   UNL     1      35.280 -19.785 -21.633  0.00  0.00    +0.139 C 
ATOM     23  C   UNL     1      36.078 -20.540 -20.772  0.00  0.00    +0.038 C 
ATOM     24  C   UNL     1      33.891 -19.839 -21.520  0.00  0.00    +0.038 C 
ATOM     25  C   UNL     1      34.098 -21.400 -19.689  0.00  0.00    +0.078 C 
ATOM     26  C   UNL     1      35.487 -21.347 -19.801  0.00  0.00    +0.020 C 
ATOM     27  C   UNL     1      33.299 -20.646 -20.549  0.00  0.00    +0.020 C 
BRANCH  25  28
ATOM     28  N   UNL     1      33.512 -22.201 -18.725  0.00  0.00    -0.149 N 
ATOM     29  N   UNL     1      32.198 -22.167 -18.467  0.00  0.00    -0.048 NA
ATOM     30  N   UNL     1      33.204 -23.654 -17.145  0.00  0.00    -0.107 NA
ATOM     31  N   UNL     1      32.014 -23.058 -17.500  0.00  0.00    -0.024 NA
ATOM     32  C   UNL     1      34.117 -23.110 -17.916  0.00  0.00    +0.215 C 
ENDBRANCH  25  28
ENDBRANCH  21  22
ENDBRANCH  20  21
ENDBRANCH   4  20
TORSDOF 6
ENDMDL
MODEL 3
REMARK VINA RESULT:     -11.6      7.520     11.578
REMARK  Name = 25025505
REMARK  6 active torsions:
REMARK  status: ('A' for Active; 'I' for Inactive)
REMARK    1  A    between atoms: C_3  and  C_9
REMARK    2  A    between atoms: C_4  and  C_20
REMARK    3  A    between atoms: C_17  and  C_18
REMARK    4  A    between atoms: C_20  and  O_21
REMARK    5  A    between atoms: O_21  and  C_22
REMARK    6  A    between atoms: C_25  and  N_28
REMARK                            x       y       z     vdW  Elec       q    Type
REMARK                         _______ _______ _______ _____ _____    ______ ____
ROOT
ATOM      1  S   UNL     1      33.056 -14.536 -25.929  0.00  0.00    -0.079 S 
ATOM      2  N   UNL     1      34.375 -15.426 -23.892  0.00  0.00    -0.404 NA
ATOM      3  C   UNL     1      33.852 -14.343 -24.421  0.00  0.00    +0.134 C 
ATOM      4  C   UNL     1      34.135 -16.495 -24.733  0.00  0.00    +0.142 C 
ATOM      5  C   UNL     1      33.434 -16.208 -25.886  0.00  0.00    +0.122 C 
ENDROOT
BRANCH   3   9
ATOM      6  N   UNL     1      33.147 -10.194 -23.447  0.00  0.00    -0.253 N 
ATOM      7  N   UNL     1      31.636  -8.639 -22.577  0.00  0.00    -0.203 NA
ATOM      8  N   UNL     1      33.671  -7.927 -23.653  0.00  0.00    -0.181 NA
ATOM      9  C   UNL     1      33.911 -12.965 -23.788  0.00  0.00    +0.062 C 
ATOM     10  C   UNL     1      34.327 -11.884 -24.797  0.00  0.00    +0.030 C 
ATOM     11  C   UNL     1      32.579 -12.571 -23.134  0.00  0.00    +0.030 C 
ATOM     12  C   UNL     1      34.403 -10.505 -24.139  0.00  0.00    +0.102 C 
ATOM     13  C   UNL     1      32.668 -11.193 -22.480  0.00  0.00    +0.102 C 
ATOM     14  C   UNL     1      32.802  -8.857 -23.214  0.00  0.00    +0.090 C 
ATOM     15  C   UNL     1      31.335  -7.340 -22.371  0.00  0.00    +0.161 C 
ATOM     16  C   UNL     1      33.307  -6.650 -23.414  0.00  0.00    +0.104 C 
ATOM     17  C   UNL     1      32.139  -6.293 -22.771  0.00  0.00    +0.001 C 
BRANCH  17  18
ATOM     18  C   UNL     1      31.773  -4.878 -22.526  0.00  0.00    +0.026 C 
ATOM     19  C   UNL     1      31.297  -4.164 -23.792  0.00  0.00    +0.005 C 
ENDBRANCH  17  18
ENDBRANCH   3   9
BRANCH   4  20
ATOM     20  C   UNL     1      34.636 -17.826 -24.338  0.00  0.00    +0.260 C 
BRANCH  20  21
ATOM     21  O   UNL     1      35.613 -17.692 -23.306  0.00  0.00    -0.468 OA
BRANCH  21  22
ATOM     22  C   UNL     1      35.588 -18.634 -22.314  0.00  0.00    +0.139 C 
ATOM     23  C   UNL     1      34.425 -19.366 -22.075  0.00  0.00    +0.038 C 
ATOM     24  C   UNL     1      36.726 -18.863 -21.541  0.00  0.00    +0.038 C 
ATOM     25  C   UNL     1      35.538 -20.553 -20.290  0.00  0.00    +0.078 C 
ATOM     26  C   UNL     1      34.400 -20.325 -21.062  0.00  0.00    +0.020 C 
ATOM     27  C   UNL     1      36.702 -19.822 -20.529  0.00  0.00    +0.020 C 
BRANCH  25  28
ATOM     28  N   UNL     1      35.513 -21.505 -19.287  0.00  0.00    -0.149 N 
ATOM     29  N   UNL     1      36.515 -21.647 -18.408  0.00  0.00    -0.048 NA
ATOM     30  N   UNL     1      34.904 -23.129 -17.986  0.00  0.00    -0.107 NA
ATOM     31  N   UNL     1      36.137 -22.642 -17.615  0.00  0.00    -0.024 NA
ATOM     32  C   UNL     1      34.536 -22.411 -19.021  0.00  0.00    +0.215 C 
ENDBRANCH  25  28
ENDBRANCH  21  22
ENDBRANCH  20  21
ENDBRANCH   4  20
TORSDOF 6
ENDMDL
MODEL 4
REMARK VINA RESULT:     -11.4      5.008      7.030
REMARK  Name = 25025505
REMARK  6 active torsions:
REMARK  status: ('A' for Active; 'I' for Inactive)
REMARK    1  A    between atoms: C_3  and  C_9
REMARK    2  A    between atoms: C_4  and  C_20
REMARK    3  A    between atoms: C_17  and  C_18
REMARK    4  A    between atoms: C_20  and  O_21
REMARK    5  A    between atoms: O_21  and  C_22
REMARK    6  A    between atoms: C_25  and  N_28
REMARK                            x       y       z     vdW  Elec       q    Type
REMARK                         _______ _______ _______ _____ _____    ______ ____
ROOT
ATOM      1  S   UNL     1      34.001 -21.347 -20.366  0.00  0.00    -0.079 S 
ATOM      2  N   UNL     1      36.366 -20.633 -19.606  0.00  0.00    -0.404 NA
ATOM      3  C   UNL     1      35.431 -20.408 -20.501  0.00  0.00    +0.134 C 
ATOM      4  C   UNL     1      35.930 -21.619 -18.743  0.00  0.00    +0.142 C 
ATOM      5  C   UNL     1      34.673 -22.128 -18.995  0.00  0.00    +0.122 C 
ENDROOT
BRANCH   3   9
ATOM      6  N   UNL     1      34.612 -17.238 -23.319  0.00  0.00    -0.253 N 
ATOM      7  N   UNL     1      34.228 -14.952 -23.604  0.00  0.00    -0.203 NA
ATOM      8  N   UNL     1      33.907 -16.501 -25.421  0.00  0.00    -0.181 NA
ATOM      9  C   UNL     1      35.542 -19.390 -21.621  0.00  0.00    +0.062 C 
ATOM     10  C   UNL     1      34.497 -19.626 -22.722  0.00  0.00    +0.030 C 
ATOM     11  C   UNL     1      35.427 -17.948 -21.104  0.00  0.00    +0.030 C 
ATOM     12  C   UNL     1      34.637 -18.605 -23.852  0.00  0.00    +0.102 C 
ATOM     13  C   UNL     1      35.568 -16.938 -22.244  0.00  0.00    +0.102 C 
ATOM     14  C   UNL     1      34.232 -16.181 -24.154  0.00  0.00    +0.090 C 
ATOM     15  C   UNL     1      33.855 -13.957 -24.436  0.00  0.00    +0.161 C 
ATOM     16  C   UNL     1      33.544 -15.459 -26.197  0.00  0.00    +0.104 C 
ATOM     17  C   UNL     1      33.498 -14.153 -25.754  0.00  0.00    +0.001 C 
BRANCH  17  18
ATOM     18  C   UNL     1      33.094 -13.033 -26.637  0.00  0.00    +0.026 C 
ATOM     19  C   UNL     1      33.640 -11.684 -26.166  0.00  0.00    +0.005 C 
ENDBRANCH  17  18
ENDBRANCH   3   9
BRANCH   4  20
ATOM     20  C   UNL     1      36.825 -22.038 -17.647  0.00  0.00    +0.260 C 
BRANCH  20  21
ATOM     21  O   UNL     1      36.508 -23.369 -17.240  0.00  0.00    -0.468 OA
BRANCH  21  22
ATOM     22  C   UNL     1      36.402 -23.590 -15.895  0.00  0.00    +0.139 C 
ATOM     23  C   UNL     1      35.163 -23.901 -15.334  0.00  0.00    +0.038 C 
ATOM     24  C   UNL     1      37.532 -23.503 -15.082  0.00  0.00    +0.038 C 
ATOM     25  C   UNL     1      36.184 -24.038 -13.150  0.00  0.00    +0.078 C 
ATOM     26  C   UNL     1      35.054 -24.125 -13.962  0.00  0.00    +0.020 C 
ATOM     27  C   UNL     1      37.424 -23.727 -13.710  0.00  0.00    +0.020 C 
BRANCH  25  28
ATOM     28  N   UNL     1      36.077 -24.260 -11.789  0.00  0.00    -0.149 N 
ATOM     29  N   UNL     1      35.195 -25.127 -11.271  0.00  0.00    -0.048 NA
ATOM     30  N   UNL     1      36.381 -24.169  -9.644  0.00  0.00    -0.107 NA
ATOM     31  N   UNL     1      35.386 -25.067  -9.959  0.00  0.00    -0.024 NA
ATOM     32  C   UNL     1      36.795 -23.682 -10.790  0.00  0.00    +0.215 C 
ENDBRANCH  25  28
ENDBRANCH  21  22
ENDBRANCH  20  21
ENDBRANCH   4  20
TORSDOF 6
ENDMDL
MODEL 5
REMARK VINA RESULT:     -11.2      4.807     10.479
REMARK  Name = 25025505
REMARK  6 active torsions:
REMARK  status: ('A' for Active; 'I' for Inactive)
REMARK    1  A    between atoms: C_3  and  C_9
REMARK    2  A    between atoms: C_4  and  C_20
REMARK    3  A    between atoms: C_17  and  C_18
REMARK    4  A    between atoms: C_20  and  O_21
REMARK    5  A    between atoms: O_21  and  C_22
REMARK    6  A    between atoms: C_25  and  N_28
REMARK                            x       y       z     vdW  Elec       q    Type
REMARK                         _______ _______ _______ _____ _____    ______ ____
ROOT
ATOM      1  S   UNL     1      36.846 -19.322 -21.020  0.00  0.00    -0.079 S 
ATOM      2  N   UNL     1      34.632 -19.680 -22.306  0.00  0.00    -0.404 NA
ATOM      3  C   UNL     1      35.363 -20.135 -21.313  0.00  0.00    +0.134 C 
ATOM      4  C   UNL     1      35.283 -18.608 -22.885  0.00  0.00    +0.142 C 
ATOM      5  C   UNL     1      36.497 -18.266 -22.325  0.00  0.00    +0.122 C 
ENDROOT
BRANCH   3   9
ATOM      6  N   UNL     1      34.031 -22.583 -18.013  0.00  0.00    -0.253 N 
ATOM      7  N   UNL     1      32.226 -23.200 -16.664  0.00  0.00    -0.203 NA
ATOM      8  N   UNL     1      34.472 -23.889 -16.127  0.00  0.00    -0.181 NA
ATOM      9  C   UNL     1      34.979 -21.310 -20.433  0.00  0.00    +0.062 C 
ATOM     10  C   UNL     1      35.853 -21.398 -19.174  0.00  0.00    +0.030 C 
ATOM     11  C   UNL     1      33.498 -21.270 -20.029  0.00  0.00    +0.030 C 
ATOM     12  C   UNL     1      35.468 -22.600 -18.310  0.00  0.00    +0.102 C 
ATOM     13  C   UNL     1      33.127 -22.476 -19.167  0.00  0.00    +0.102 C 
ATOM     14  C   UNL     1      33.554 -23.256 -16.882  0.00  0.00    +0.090 C 
ATOM     15  C   UNL     1      31.801 -23.858 -15.566  0.00  0.00    +0.161 C 
ATOM     16  C   UNL     1      33.978 -24.525 -15.045  0.00  0.00    +0.104 C 
ATOM     17  C   UNL     1      32.639 -24.544 -14.710  0.00  0.00    +0.001 C 
BRANCH  17  18
ATOM     18  C   UNL     1      32.133 -25.255 -13.512  0.00  0.00    +0.026 C 
ATOM     19  C   UNL     1      30.711 -24.836 -13.135  0.00  0.00    +0.005 C 
ENDBRANCH  17  18
ENDBRANCH   3   9
BRANCH   4  20
ATOM     20  C   UNL     1      34.642 -17.933 -24.030  0.00  0.00    +0.260 C 
BRANCH  20  21
ATOM     21  O   UNL     1      35.238 -16.653 -24.238  0.00  0.00    -0.468 OA
BRANCH  21  22
ATOM     22  C   UNL     1      34.546 -15.571 -23.767  0.00  0.00    +0.139 C 
ATOM     23  C   UNL     1      33.672 -14.881 -24.608  0.00  0.00    +0.038 C 
ATOM     24  C   UNL     1      34.712 -15.158 -22.446  0.00  0.00    +0.038 C 
ATOM     25  C   UNL     1      33.135 -13.365 -22.807  0.00  0.00    +0.078 C 
ATOM     26  C   UNL     1      32.967 -13.778 -24.128  0.00  0.00    +0.020 C 
ATOM     27  C   UNL     1      34.007 -14.054 -21.965  0.00  0.00    +0.020 C 
BRANCH  25  28
ATOM     28  N   UNL     1      32.435 -12.271 -22.330  0.00  0.00    -0.149 N 
ATOM     29  N   UNL     1      32.536 -11.056 -22.888  0.00  0.00    -0.048 NA
ATOM     30  N   UNL     1      31.126 -10.997 -21.162  0.00  0.00    -0.107 NA
ATOM     31  N   UNL     1      31.733 -10.281 -22.170  0.00  0.00    -0.024 NA
ATOM     32  C   UNL     1      31.574 -12.225 -21.280  0.00  0.00    +0.215 C 
ENDBRANCH  25  28
ENDBRANCH  21  22
ENDBRANCH  20  21
ENDBRANCH   4  20
TORSDOF 6
ENDMDL
MODEL 6
REMARK VINA RESULT:     -11.2      5.320     11.462
REMARK  Name = 25025505
REMARK  6 active torsions:
REMARK  status: ('A' for Active; 'I' for Inactive)
REMARK    1  A    between atoms: C_3  and  C_9
REMARK    2  A    between atoms: C_4  and  C_20
REMARK    3  A    between atoms: C_17  and  C_18
REMARK    4  A    between atoms: C_20  and  O_21
REMARK    5  A    between atoms: O_21  and  C_22
REMARK    6  A    between atoms: C_25  and  N_28
REMARK                            x       y       z     vdW  Elec       q    Type
REMARK                         _______ _______ _______ _____ _____    ______ ____
ROOT
ATOM      1  S   UNL     1      35.992 -17.990 -21.708  0.00  0.00    -0.079 S 
ATOM      2  N   UNL     1      34.372 -18.847 -23.531  0.00  0.00    -0.404 NA
ATOM      3  C   UNL     1      34.871 -19.122 -22.346  0.00  0.00    +0.134 C 
ATOM      4  C   UNL     1      34.910 -17.656 -23.976  0.00  0.00    +0.142 C 
ATOM      5  C   UNL     1      35.807 -17.044 -23.125  0.00  0.00    +0.122 C 
ENDROOT
BRANCH   3   9
ATOM      6  N   UNL     1      33.762 -21.792 -19.137  0.00  0.00    -0.253 N 
ATOM      7  N   UNL     1      32.077 -22.447 -17.658  0.00  0.00    -0.203 NA
ATOM      8  N   UNL     1      34.327 -23.278 -17.425  0.00  0.00    -0.181 NA
ATOM      9  C   UNL     1      34.519 -20.352 -21.531  0.00  0.00    +0.062 C 
ATOM     10  C   UNL     1      35.513 -20.590 -20.385  0.00  0.00    +0.030 C 
ATOM     11  C   UNL     1      33.092 -20.284 -20.967  0.00  0.00    +0.030 C 
ATOM     12  C   UNL     1      35.157 -21.845 -19.588  0.00  0.00    +0.102 C 
ATOM     13  C   UNL     1      32.749 -21.545 -20.173  0.00  0.00    +0.102 C 
ATOM     14  C   UNL     1      33.370 -22.541 -18.021  0.00  0.00    +0.090 C 
ATOM     15  C   UNL     1      31.734 -23.181 -16.578  0.00  0.00    +0.161 C 
ATOM     16  C   UNL     1      33.915 -23.986 -16.353  0.00  0.00    +0.104 C 
ATOM     17  C   UNL     1      32.619 -23.976 -15.879  0.00  0.00    +0.001 C 
BRANCH  17  18
ATOM     18  C   UNL     1      32.204 -24.768 -14.697  0.00  0.00    +0.026 C 
ATOM     19  C   UNL     1      31.229 -24.010 -13.793  0.00  0.00    +0.005 C 
ENDBRANCH  17  18
ENDBRANCH   3   9
BRANCH   4  20
ATOM     20  C   UNL     1      34.490 -17.146 -25.297  0.00  0.00    +0.260 C 
BRANCH  20  21
ATOM     21  O   UNL     1      33.288 -16.390 -25.168  0.00  0.00    -0.468 OA
BRANCH  21  22
ATOM     22  C   UNL     1      33.430 -15.053 -24.913  0.00  0.00    +0.139 C 
ATOM     23  C   UNL     1      33.692 -14.614 -23.615  0.00  0.00    +0.038 C 
ATOM     24  C   UNL     1      33.313 -14.129 -25.951  0.00  0.00    +0.038 C 
ATOM     25  C   UNL     1      33.718 -12.328 -24.393  0.00  0.00    +0.078 C 
ATOM     26  C   UNL     1      33.835 -13.251 -23.355  0.00  0.00    +0.020 C 
ATOM     27  C   UNL     1      33.457 -12.766 -25.692  0.00  0.00    +0.020 C 
BRANCH  25  28
ATOM     28  N   UNL     1      33.861 -10.976 -24.136  0.00  0.00    -0.149 N 
ATOM     29  N   UNL     1      32.923 -10.264 -23.496  0.00  0.00    -0.048 NA
ATOM     30  N   UNL     1      34.646  -8.957 -24.036  0.00  0.00    -0.107 NA
ATOM     31  N   UNL     1      33.408  -9.030 -23.438  0.00  0.00    -0.024 NA
ATOM     32  C   UNL     1      34.907 -10.172 -24.461  0.00  0.00    +0.215 C 
ENDBRANCH  25  28
ENDBRANCH  21  22
ENDBRANCH  20  21
ENDBRANCH   4  20
TORSDOF 6
ENDMDL
MODEL 7
REMARK VINA RESULT:     -10.9      6.026     11.301
REMARK  Name = 25025505
REMARK  6 active torsions:
REMARK  status: ('A' for Active; 'I' for Inactive)
REMARK    1  A    between atoms: C_3  and  C_9
REMARK    2  A    between atoms: C_4  and  C_20
REMARK    3  A    between atoms: C_17  and  C_18
REMARK    4  A    between atoms: C_20  and  O_21
REMARK    5  A    between atoms: O_21  and  C_22
REMARK    6  A    between atoms: C_25  and  N_28
REMARK                            x       y       z     vdW  Elec       q    Type
REMARK                         _______ _______ _______ _____ _____    ______ ____
ROOT
ATOM      1  S   UNL     1      34.875 -19.347 -23.908  0.00  0.00    -0.079 S 
ATOM      2  N   UNL     1      35.198 -17.831 -21.839  0.00  0.00    -0.404 NA
ATOM      3  C   UNL     1      35.191 -19.082 -22.241  0.00  0.00    +0.134 C 
ATOM      4  C   UNL     1      34.935 -17.013 -22.919  0.00  0.00    +0.142 C 
ATOM      5  C   UNL     1      34.732 -17.652 -24.125  0.00  0.00    +0.122 C 
ENDROOT
BRANCH   3   9
ATOM      6  N   UNL     1      35.536 -21.689 -18.815  0.00  0.00    -0.253 N 
ATOM      7  N   UNL     1      34.394 -22.836 -17.131  0.00  0.00    -0.203 NA
ATOM      8  N   UNL     1      36.798 -22.671 -17.111  0.00  0.00    -0.181 NA
ATOM      9  C   UNL     1      35.440 -20.276 -21.339  0.00  0.00    +0.062 C 
ATOM     10  C   UNL     1      36.536 -19.996 -20.300  0.00  0.00    +0.030 C 
ATOM     11  C   UNL     1      34.161 -20.738 -20.625  0.00  0.00    +0.030 C 
ATOM     12  C   UNL     1      36.790 -21.216 -19.414  0.00  0.00    +0.102 C 
ATOM     13  C   UNL     1      34.429 -21.957 -19.743  0.00  0.00    +0.102 C 
ATOM     14  C   UNL     1      35.578 -22.434 -17.630  0.00  0.00    +0.090 C 
ATOM     15  C   UNL     1      34.471 -23.550 -15.989  0.00  0.00    +0.161 C 
ATOM     16  C   UNL     1      36.801 -23.391 -15.970  0.00  0.00    +0.104 C 
ATOM     17  C   UNL     1      35.657 -23.861 -15.357  0.00  0.00    +0.001 C 
BRANCH  17  18
ATOM     18  C   UNL     1      35.700 -24.649 -14.102  0.00  0.00    +0.026 C 
ATOM     19  C   UNL     1      34.534 -24.330 -13.165  0.00  0.00    +0.005 C 
ENDBRANCH  17  18
ENDBRANCH   3   9
BRANCH   4  20
ATOM     20  C   UNL     1      34.893 -15.553 -22.700  0.00  0.00    +0.260 C 
BRANCH  20  21
ATOM     21  O   UNL     1      34.017 -14.943 -23.648  0.00  0.00    -0.468 OA
BRANCH  21  22
ATOM     22  C   UNL     1      33.590 -13.676 -23.359  0.00  0.00    +0.139 C 
ATOM     23  C   UNL     1      34.024 -12.600 -24.134  0.00  0.00    +0.038 C 
ATOM     24  C   UNL     1      32.721 -13.459 -22.291  0.00  0.00    +0.038 C 
ATOM     25  C   UNL     1      32.720 -11.092 -22.771  0.00  0.00    +0.078 C 
ATOM     26  C   UNL     1      33.589 -11.308 -23.840  0.00  0.00    +0.020 C 
ATOM     27  C   UNL     1      32.286 -12.167 -21.995  0.00  0.00    +0.020 C 
BRANCH  25  28
ATOM     28  N   UNL     1      32.289  -9.810 -22.478  0.00  0.00    -0.149 N 
ATOM     29  N   UNL     1      31.880  -8.957 -23.427  0.00  0.00    -0.048 NA
ATOM     30  N   UNL     1      31.747  -7.997 -21.420  0.00  0.00    -0.107 NA
ATOM     31  N   UNL     1      31.549  -7.850 -22.775  0.00  0.00    -0.024 NA
ATOM     32  C   UNL     1      32.204  -9.217 -21.259  0.00  0.00    +0.215 C 
ENDBRANCH  25  28
ENDBRANCH  21  22
ENDBRANCH  20  21
ENDBRANCH   4  20
TORSDOF 6
ENDMDL
MODEL 8
REMARK VINA RESULT:     -10.7      5.019     10.689
REMARK  Name = 25025505
REMARK  6 active torsions:
REMARK  status: ('A' for Active; 'I' for Inactive)
REMARK    1  A    between atoms: C_3  and  C_9
REMARK    2  A    between atoms: C_4  and  C_20
REMARK    3  A    between atoms: C_17  and  C_18
REMARK    4  A    between atoms: C_20  and  O_21
REMARK    5  A    between atoms: O_21  and  C_22
REMARK    6  A    between atoms: C_25  and  N_28
REMARK                            x       y       z     vdW  Elec       q    Type
REMARK                         _______ _______ _______ _____ _____    ______ ____
ROOT
ATOM      1  S   UNL     1      33.574 -20.852 -20.581  0.00  0.00    -0.079 S 
ATOM      2  N   UNL     1      36.064 -20.180 -20.750  0.00  0.00    -0.404 NA
ATOM      3  C   UNL     1      35.224 -20.977 -20.128  0.00  0.00    +0.134 C 
ATOM      4  C   UNL     1      35.360 -19.409 -21.655  0.00  0.00    +0.142 C 
ATOM      5  C   UNL     1      34.000 -19.630 -21.706  0.00  0.00    +0.122 C 
ENDROOT
BRANCH   3   9
ATOM      6  N   UNL     1      36.013 -22.910 -16.347  0.00  0.00    -0.253 N 
ATOM      7  N   UNL     1      35.086 -23.794 -14.393  0.00  0.00    -0.203 NA
ATOM      8  N   UNL     1      37.468 -23.508 -14.620  0.00  0.00    -0.181 NA
ATOM      9  C   UNL     1      35.623 -21.977 -19.058  0.00  0.00    +0.062 C 
ATOM     10  C   UNL     1      36.778 -21.461 -18.187  0.00  0.00    +0.030 C 
ATOM     11  C   UNL     1      34.438 -22.367 -18.162  0.00  0.00    +0.030 C 
ATOM     12  C   UNL     1      37.181 -22.489 -17.129  0.00  0.00    +0.102 C 
ATOM     13  C   UNL     1      34.855 -23.395 -17.110  0.00  0.00    +0.102 C 
ATOM     14  C   UNL     1      36.198 -23.429 -15.060  0.00  0.00    +0.090 C 
ATOM     15  C   UNL     1      35.301 -24.288 -13.156  0.00  0.00    +0.161 C 
ATOM     16  C   UNL     1      37.609 -24.011 -13.376  0.00  0.00    +0.104 C 
ATOM     17  C   UNL     1      36.552 -24.421 -12.589  0.00  0.00    +0.001 C 
BRANCH  17  18
ATOM     18  C   UNL     1      36.747 -24.970 -11.226  0.00  0.00    +0.026 C 
ATOM     19  C   UNL     1      35.750 -24.401 -10.214  0.00  0.00    +0.005 C 
ENDBRANCH  17  18
ENDBRANCH   3   9
BRANCH   4  20
ATOM     20  C   UNL     1      36.105 -18.432 -22.473  0.00  0.00    +0.260 C 
BRANCH  20  21
ATOM     21  O   UNL     1      35.293 -17.984 -23.558  0.00  0.00    -0.468 OA
BRANCH  21  22
ATOM     22  C   UNL     1      34.847 -16.693 -23.496  0.00  0.00    +0.139 C 
ATOM     23  C   UNL     1      34.177 -16.132 -24.584  0.00  0.00    +0.038 C 
ATOM     24  C   UNL     1      35.061 -15.935 -22.344  0.00  0.00    +0.038 C 
ATOM     25  C   UNL     1      33.938 -14.058 -23.369  0.00  0.00    +0.078 C 
ATOM     26  C   UNL     1      33.723 -14.815 -24.520  0.00  0.00    +0.020 C 
ATOM     27  C   UNL     1      34.607 -14.618 -22.280  0.00  0.00    +0.020 C 
BRANCH  25  28
ATOM     28  N   UNL     1      33.487 -12.752 -23.306  0.00  0.00    -0.149 N 
ATOM     29  N   UNL     1      32.561 -12.355 -22.423  0.00  0.00    -0.048 NA
ATOM     30  N   UNL     1      33.202 -10.637 -23.692  0.00  0.00    -0.107 NA
ATOM     31  N   UNL     1      32.391 -11.060 -22.663  0.00  0.00    -0.024 NA
ATOM     32  C   UNL     1      33.872 -11.699 -24.075  0.00  0.00    +0.215 C 
ENDBRANCH  25  28
ENDBRANCH  21  22
ENDBRANCH  20  21
ENDBRANCH   4  20
TORSDOF 6
ENDMDL
MODEL 9
REMARK VINA RESULT:     -10.0     11.065     16.723
REMARK  Name = 25025505
REMARK  6 active torsions:
REMARK  status: ('A' for Active; 'I' for Inactive)
REMARK    1  A    between atoms: C_3  and  C_9
REMARK    2  A    between atoms: C_4  and  C_20
REMARK    3  A    between atoms: C_17  and  C_18
REMARK    4  A    between atoms: C_20  and  O_21
REMARK    5  A    between atoms: O_21  and  C_22
REMARK    6  A    between atoms: C_25  and  N_28
REMARK                            x       y       z     vdW  Elec       q    Type
REMARK                         _______ _______ _______ _____ _____    ______ ____
ROOT
ATOM      1  S   UNL     1      32.267  -8.976 -20.714  0.00  0.00    -0.079 S 
ATOM      2  N   UNL     1      31.570  -8.899 -23.202  0.00  0.00    -0.404 NA
ATOM      3  C   UNL     1      31.973  -9.701 -22.242  0.00  0.00    +0.134 C 
ATOM      4  C   UNL     1      31.484  -7.614 -22.704  0.00  0.00    +0.142 C 
ATOM      5  C   UNL     1      31.821  -7.458 -21.376  0.00  0.00    +0.122 C 
ENDROOT
BRANCH   3   9
ATOM      6  N   UNL     1      33.669 -13.673 -22.211  0.00  0.00    -0.253 N 
ATOM      7  N   UNL     1      34.404 -15.455 -20.891  0.00  0.00    -0.203 NA
ATOM      8  N   UNL     1      34.803 -15.421 -23.267  0.00  0.00    -0.181 NA
ATOM      9  C   UNL     1      32.188 -11.194 -22.404  0.00  0.00    +0.062 C 
ATOM     10  C   UNL     1      33.357 -11.511 -23.349  0.00  0.00    +0.030 C 
ATOM     11  C   UNL     1      32.413 -11.895 -21.056  0.00  0.00    +0.030 C 
ATOM     12  C   UNL     1      33.545 -13.019 -23.518  0.00  0.00    +0.102 C 
ATOM     13  C   UNL     1      32.600 -13.401 -21.240  0.00  0.00    +0.102 C 
ATOM     14  C   UNL     1      34.322 -14.908 -22.118  0.00  0.00    +0.090 C 
ATOM     15  C   UNL     1      35.041 -16.643 -20.838  0.00  0.00    +0.161 C 
ATOM     16  C   UNL     1      35.428 -16.610 -23.141  0.00  0.00    +0.104 C 
ATOM     17  C   UNL     1      35.579 -17.274 -21.941  0.00  0.00    +0.001 C 
BRANCH  17  18
ATOM     18  C   UNL     1      36.272 -18.581 -21.842  0.00  0.00    +0.026 C 
ATOM     19  C   UNL     1      35.403 -19.662 -21.197  0.00  0.00    +0.005 C 
ENDBRANCH  17  18
ENDBRANCH   3   9
BRANCH   4  20
ATOM     20  C   UNL     1      31.047  -6.536 -23.614  0.00  0.00    +0.260 C 
BRANCH  20  21
ATOM     21  O   UNL     1      31.893  -5.397 -23.462  0.00  0.00    -0.468 OA
BRANCH  21  22
ATOM     22  C   UNL     1      32.792  -5.164 -24.466  0.00  0.00    +0.139 C 
ATOM     23  C   UNL     1      33.999  -5.865 -24.499  0.00  0.00    +0.038 C 
ATOM     24  C   UNL     1      32.505  -4.227 -25.457  0.00  0.00    +0.038 C 
ATOM     25  C   UNL     1      34.628  -4.689 -26.512  0.00  0.00    +0.078 C 
ATOM     26  C   UNL     1      34.916  -5.626 -25.522  0.00  0.00    +0.020 C 
ATOM     27  C   UNL     1      33.421  -3.988 -26.481  0.00  0.00    +0.020 C 
BRANCH  25  28
ATOM     28  N   UNL     1      35.538  -4.452 -27.527  0.00  0.00    -0.149 N 
ATOM     29  N   UNL     1      35.158  -4.100 -28.763  0.00  0.00    -0.048 NA
ATOM     30  N   UNL     1      37.381  -4.229 -28.647  0.00  0.00    -0.107 NA
ATOM     31  N   UNL     1      36.289  -3.965 -29.444  0.00  0.00    -0.024 NA
ATOM     32  C   UNL     1      36.893  -4.528 -27.465  0.00  0.00    +0.215 C 
ENDBRANCH  25  28
ENDBRANCH  21  22
ENDBRANCH  20  21
ENDBRANCH   4  20
TORSDOF 6
ENDMDL
