MODEL 1
REMARK VINA RESULT:     -12.1      0.000      0.000
REMARK  Name = 6918314
REMARK  8 active torsions:
REMARK  status: ('A' for Active; 'I' for Inactive)
REMARK    1  A    between atoms: N_1  and  C_22
REMARK    2  A    between atoms: N_2  and  C_9
REMARK    3  A    between atoms: C_16  and  C_19
REMARK    4  A    between atoms: C_22  and  C_23
REMARK    5  A    between atoms: C_23  and  C_24
REMARK    6  A    between atoms: C_24  and  C_25
REMARK    7  A    between atoms: C_25  and  C_27
REMARK    8  A    between atoms: C_33  and  C_37
REMARK                            x       y       z     vdW  Elec       q    Type
REMARK                         _______ _______ _______ _____ _____    ______ ____
ROOT
ATOM      1  N   UNL     1      35.515 -16.735 -22.840  0.00  0.00    +0.389 N 
ATOM      2  N   UNL     1      33.895 -14.411 -22.479  0.00  0.00    -0.312 N 
ATOM      3  C   UNL     1      34.584 -16.310 -23.891  0.00  0.00    -0.055 C 
ATOM      4  C   UNL     1      34.960 -16.414 -21.520  0.00  0.00    -0.055 C 
ATOM      5  C   UNL     1      34.332 -14.802 -23.825  0.00  0.00    +0.068 C 
ATOM      6  C   UNL     1      34.719 -14.911 -21.375  0.00  0.00    +0.068 C 
ATOM      7  H   UNL     1      36.396 -16.233 -22.957  0.00  0.00    -0.080 HD
ENDROOT
BRANCH   2   9
ATOM      8  O   UNL     1      31.234  -9.587 -22.040  0.00  0.00    -0.449 OA
ATOM      9  C   UNL     1      33.201 -13.203 -22.338  0.00  0.00    +0.048 C 
ATOM     10  C   UNL     1      33.459 -12.120 -23.214  0.00  0.00    +0.018 C 
ATOM     11  C   UNL     1      32.235 -13.043 -21.320  0.00  0.00    +0.018 C 
ATOM     12  C   UNL     1      32.753 -10.913 -23.058  0.00  0.00    +0.039 C 
ATOM     13  C   UNL     1      31.814 -10.821 -22.036  0.00  0.00    +0.146 C 
ATOM     14  C   UNL     1      31.521 -11.853 -21.147  0.00  0.00    +0.039 C 
ATOM     15  C   UNL     1      32.735  -9.655 -23.715  0.00  0.00    +0.045 C 
ATOM     16  C   UNL     1      31.799  -8.889 -23.060  0.00  0.00    +0.198 C 
BRANCH  16  19
ATOM     17  O   UNL     1      30.917  -7.111 -24.367  0.00  0.00    -0.267 OA
ATOM     18  N   UNL     1      31.436  -6.645 -22.208  0.00  0.00    -0.323 N 
ATOM     19  C   UNL     1      31.358  -7.553 -23.276  0.00  0.00    +0.277 C 
ATOM     20  H   UNL     1      31.138  -5.715 -22.330  0.00  0.00    +0.145 HD
ATOM     21  H   UNL     1      31.789  -6.938 -21.337  0.00  0.00    +0.145 HD
ENDBRANCH  16  19
ENDBRANCH   2   9
BRANCH   1  22
ATOM     22  C   UNL     1      35.790 -18.167 -22.947  0.00  0.00    -0.077 C 
BRANCH  22  23
ATOM     23  C   UNL     1      36.031 -18.767 -21.562  0.00  0.00    -0.022 C 
BRANCH  23  24
ATOM     24  C   UNL     1      35.174 -20.014 -21.343  0.00  0.00    +0.003 C 
BRANCH  24  25
ATOM     25  C   UNL     1      35.782 -20.929 -20.275  0.00  0.00    +0.028 C 
BRANCH  25  27
ATOM     26  N   UNL     1      32.806 -22.510 -18.868  0.00  0.00    -0.312 N 
ATOM     27  C   UNL     1      34.735 -21.652 -19.482  0.00  0.00    -0.006 C 
ATOM     28  C   UNL     1      34.938 -22.296 -18.244  0.00  0.00    +0.011 C 
ATOM     29  C   UNL     1      33.431 -21.791 -19.851  0.00  0.00    +0.058 C 
ATOM     30  C   UNL     1      33.703 -22.833 -17.873  0.00  0.00    +0.048 C 
ATOM     31  C   UNL     1      36.043 -22.484 -17.389  0.00  0.00    +0.011 C 
ATOM     32  C   UNL     1      33.517 -23.549 -16.686  0.00  0.00    +0.015 C 
ATOM     33  C   UNL     1      35.871 -23.200 -16.199  0.00  0.00    +0.069 C 
ATOM     34  C   UNL     1      34.627 -23.724 -15.854  0.00  0.00    +0.012 C 
ATOM     35  H   UNL     1      31.854 -22.761 -18.870  0.00  0.00    +0.152 HD
BRANCH  33  37
ATOM     36  N   UNL     1      37.894 -23.551 -14.618  0.00  0.00    -0.191 NA
ATOM     37  C   UNL     1      36.988 -23.394 -15.326  0.00  0.00    +0.100 C 
ENDBRANCH  33  37
ENDBRANCH  25  27
ENDBRANCH  24  25
ENDBRANCH  23  24
ENDBRANCH  22  23
ENDBRANCH   1  22
TORSDOF 8
ENDMDL
MODEL 2
REMARK VINA RESULT:     -11.6      4.261     11.795
REMARK  Name = 6918314
REMARK  8 active torsions:
REMARK  status: ('A' for Active; 'I' for Inactive)
REMARK    1  A    between atoms: N_1  and  C_22
REMARK    2  A    between atoms: N_2  and  C_9
REMARK    3  A    between atoms: C_16  and  C_19
REMARK    4  A    between atoms: C_22  and  C_23
REMARK    5  A    between atoms: C_23  and  C_24
REMARK    6  A    between atoms: C_24  and  C_25
REMARK    7  A    between atoms: C_25  and  C_27
REMARK    8  A    between atoms: C_33  and  C_37
REMARK                            x       y       z     vdW  Elec       q    Type
REMARK                         _______ _______ _______ _____ _____    ______ ____
ROOT
ATOM      1  N   UNL     1      34.883 -17.156 -24.882  0.00  0.00    +0.389 N 
ATOM      2  N   UNL     1      34.910 -18.938 -22.650  0.00  0.00    -0.312 N 
ATOM      3  C   UNL     1      34.998 -16.633 -23.516  0.00  0.00    -0.055 C 
ATOM      4  C   UNL     1      34.050 -18.363 -24.886  0.00  0.00    -0.055 C 
ATOM      5  C   UNL     1      35.637 -17.665 -22.583  0.00  0.00    +0.068 C 
ATOM      6  C   UNL     1      34.655 -19.453 -23.999  0.00  0.00    +0.068 C 
ATOM      7  H   UNL     1      35.815 -17.399 -25.221  0.00  0.00    -0.080 HD
ENDROOT
BRANCH   2   9
ATOM      8  O   UNL     1      35.294 -22.468 -18.415  0.00  0.00    -0.449 OA
ATOM      9  C   UNL     1      35.045 -19.830 -21.580  0.00  0.00    +0.048 C 
ATOM     10  C   UNL     1      33.900 -20.363 -20.939  0.00  0.00    +0.018 C 
ATOM     11  C   UNL     1      36.325 -20.212 -21.119  0.00  0.00    +0.018 C 
ATOM     12  C   UNL     1      34.053 -21.258 -19.865  0.00  0.00    +0.039 C 
ATOM     13  C   UNL     1      35.341 -21.595 -19.461  0.00  0.00    +0.146 C 
ATOM     14  C   UNL     1      36.502 -21.101 -20.054  0.00  0.00    +0.039 C 
ATOM     15  C   UNL     1      33.179 -21.974 -19.006  0.00  0.00    +0.045 C 
ATOM     16  C   UNL     1      33.980 -22.691 -18.147  0.00  0.00    +0.198 C 
BRANCH  16  19
ATOM     17  O   UNL     1      34.471 -24.372 -16.541  0.00  0.00    -0.267 OA
ATOM     18  N   UNL     1      32.339 -23.596 -16.604  0.00  0.00    -0.323 N 
ATOM     19  C   UNL     1      33.659 -23.578 -17.082  0.00  0.00    +0.277 C 
ATOM     20  H   UNL     1      32.090 -24.200 -15.868  0.00  0.00    +0.145 HD
ATOM     21  H   UNL     1      31.662 -23.004 -17.006  0.00  0.00    +0.145 HD
ENDBRANCH  16  19
ENDBRANCH   2   9
BRANCH   1  22
ATOM     22  C   UNL     1      34.323 -16.142 -25.774  0.00  0.00    -0.077 C 
BRANCH  22  23
ATOM     23  C   UNL     1      33.141 -15.442 -25.106  0.00  0.00    -0.022 C 
BRANCH  23  24
ATOM     24  C   UNL     1      33.198 -13.929 -25.326  0.00  0.00    +0.003 C 
BRANCH  24  25
ATOM     25  C   UNL     1      33.978 -13.231 -24.207  0.00  0.00    +0.028 C 
BRANCH  25  27
ATOM     26  N   UNL     1      31.774 -12.801 -21.328  0.00  0.00    -0.312 N 
ATOM     27  C   UNL     1      33.086 -12.775 -23.091  0.00  0.00    -0.006 C 
ATOM     28  C   UNL     1      32.719 -11.440 -22.823  0.00  0.00    +0.011 C 
ATOM     29  C   UNL     1      32.504 -13.594 -22.171  0.00  0.00    +0.058 C 
ATOM     30  C   UNL     1      31.887 -11.480 -21.701  0.00  0.00    +0.048 C 
ATOM     31  C   UNL     1      33.002 -10.192 -23.413  0.00  0.00    +0.011 C 
ATOM     32  C   UNL     1      31.322 -10.330 -21.140  0.00  0.00    +0.015 C 
ATOM     33  C   UNL     1      32.444  -9.034 -22.861  0.00  0.00    +0.069 C 
ATOM     34  C   UNL     1      31.618  -9.103 -21.742  0.00  0.00    +0.012 C 
ATOM     35  H   UNL     1      31.244 -13.126 -20.564  0.00  0.00    +0.152 HD
BRANCH  33  37
ATOM     36  N   UNL     1      32.958  -6.733 -23.937  0.00  0.00    -0.191 NA
ATOM     37  C   UNL     1      32.727  -7.764 -23.455  0.00  0.00    +0.100 C 
ENDBRANCH  33  37
ENDBRANCH  25  27
ENDBRANCH  24  25
ENDBRANCH  23  24
ENDBRANCH  22  23
ENDBRANCH   1  22
TORSDOF 8
ENDMDL
MODEL 3
REMARK VINA RESULT:     -11.4      1.144      2.181
REMARK  Name = 6918314
REMARK  8 active torsions:
REMARK  status: ('A' for Active; 'I' for Inactive)
REMARK    1  A    between atoms: N_1  and  C_22
REMARK    2  A    between atoms: N_2  and  C_9
REMARK    3  A    between atoms: C_16  and  C_19
REMARK    4  A    between atoms: C_22  and  C_23
REMARK    5  A    between atoms: C_23  and  C_24
REMARK    6  A    between atoms: C_24  and  C_25
REMARK    7  A    between atoms: C_25  and  C_27
REMARK    8  A    between atoms: C_33  and  C_37
REMARK                            x       y       z     vdW  Elec       q    Type
REMARK                         _______ _______ _______ _____ _____    ______ ____
ROOT
ATOM      1  N   UNL     1      35.650 -17.198 -22.754  0.00  0.00    +0.389 N 
ATOM      2  N   UNL     1      34.052 -14.858 -22.406  0.00  0.00    -0.312 N 
ATOM      3  C   UNL     1      34.695 -16.791 -23.791  0.00  0.00    -0.055 C 
ATOM      4  C   UNL     1      35.130 -16.845 -21.429  0.00  0.00    -0.055 C 
ATOM      5  C   UNL     1      34.453 -15.281 -23.753  0.00  0.00    +0.068 C 
ATOM      6  C   UNL     1      34.901 -15.337 -21.311  0.00  0.00    +0.068 C 
ATOM      7  H   UNL     1      36.530 -16.704 -22.904  0.00  0.00    -0.080 HD
ENDROOT
BRANCH   2   9
ATOM      8  O   UNL     1      31.432 -10.008 -22.005  0.00  0.00    -0.449 OA
ATOM      9  C   UNL     1      33.368 -13.643 -22.274  0.00  0.00    +0.048 C 
ATOM     10  C   UNL     1      33.638 -12.567 -23.155  0.00  0.00    +0.018 C 
ATOM     11  C   UNL     1      32.400 -13.468 -21.261  0.00  0.00    +0.018 C 
ATOM     12  C   UNL     1      32.943 -11.354 -23.010  0.00  0.00    +0.039 C 
ATOM     13  C   UNL     1      32.001 -11.246 -21.992  0.00  0.00    +0.146 C 
ATOM     14  C   UNL     1      31.696 -12.271 -21.098  0.00  0.00    +0.039 C 
ATOM     15  C   UNL     1      32.938 -10.100 -23.675  0.00  0.00    +0.045 C 
ATOM     16  C   UNL     1      32.007  -9.321 -23.028  0.00  0.00    +0.198 C 
BRANCH  16  19
ATOM     17  O   UNL     1      31.154  -7.541 -24.352  0.00  0.00    -0.267 OA
ATOM     18  N   UNL     1      31.650  -7.072 -22.187  0.00  0.00    -0.323 N 
ATOM     19  C   UNL     1      31.579  -7.983 -23.254  0.00  0.00    +0.277 C 
ATOM     20  H   UNL     1      31.361  -6.139 -22.316  0.00  0.00    +0.145 HD
ATOM     21  H   UNL     1      31.990  -7.365 -21.311  0.00  0.00    +0.145 HD
ENDBRANCH  16  19
ENDBRANCH   2   9
BRANCH   1  22
ATOM     22  C   UNL     1      35.915 -18.635 -22.836  0.00  0.00    -0.077 C 
BRANCH  22  23
ATOM     23  C   UNL     1      34.935 -19.406 -21.954  0.00  0.00    -0.022 C 
BRANCH  23  24
ATOM     24  C   UNL     1      35.673 -20.333 -20.986  0.00  0.00    +0.003 C 
BRANCH  24  25
ATOM     25  C   UNL     1      34.709 -21.303 -20.297  0.00  0.00    +0.028 C 
BRANCH  25  27
ATOM     26  N   UNL     1      36.686 -22.416 -17.436  0.00  0.00    -0.312 N 
ATOM     27  C   UNL     1      35.268 -21.849 -19.017  0.00  0.00    -0.006 C 
ATOM     28  C   UNL     1      34.524 -22.460 -17.987  0.00  0.00    +0.011 C 
ATOM     29  C   UNL     1      36.585 -21.828 -18.668  0.00  0.00    +0.058 C 
ATOM     30  C   UNL     1      35.442 -22.811 -16.995  0.00  0.00    +0.048 C 
ATOM     31  C   UNL     1      33.161 -22.756 -17.785  0.00  0.00    +0.011 C 
ATOM     32  C   UNL     1      35.064 -23.448 -15.808  0.00  0.00    +0.015 C 
ATOM     33  C   UNL     1      32.768 -23.391 -16.602  0.00  0.00    +0.069 C 
ATOM     34  C   UNL     1      33.706 -23.731 -15.629  0.00  0.00    +0.012 C 
ATOM     35  H   UNL     1      37.525 -22.539 -16.936  0.00  0.00    +0.152 HD
BRANCH  33  37
ATOM     36  N   UNL     1      30.266 -23.943 -16.219  0.00  0.00    -0.191 NA
ATOM     37  C   UNL     1      31.387 -23.696 -16.391  0.00  0.00    +0.100 C 
ENDBRANCH  33  37
ENDBRANCH  25  27
ENDBRANCH  24  25
ENDBRANCH  23  24
ENDBRANCH  22  23
ENDBRANCH   1  22
TORSDOF 8
ENDMDL
MODEL 4
REMARK VINA RESULT:     -11.4      4.406     12.253
REMARK  Name = 6918314
REMARK  8 active torsions:
REMARK  status: ('A' for Active; 'I' for Inactive)
REMARK    1  A    between atoms: N_1  and  C_22
REMARK    2  A    between atoms: N_2  and  C_9
REMARK    3  A    between atoms: C_16  and  C_19
REMARK    4  A    between atoms: C_22  and  C_23
REMARK    5  A    between atoms: C_23  and  C_24
REMARK    6  A    between atoms: C_24  and  C_25
REMARK    7  A    between atoms: C_25  and  C_27
REMARK    8  A    between atoms: C_33  and  C_37
REMARK                            x       y       z     vdW  Elec       q    Type
REMARK                         _______ _______ _______ _____ _____    ______ ____
ROOT
ATOM      1  N   UNL     1      34.966 -17.084 -24.584  0.00  0.00    +0.389 N 
ATOM      2  N   UNL     1      34.984 -18.946 -22.419  0.00  0.00    -0.312 N 
ATOM      3  C   UNL     1      34.992 -16.607 -23.197  0.00  0.00    -0.055 C 
ATOM      4  C   UNL     1      34.196 -18.330 -24.670  0.00  0.00    -0.055 C 
ATOM      5  C   UNL     1      35.640 -17.641 -22.273  0.00  0.00    +0.068 C 
ATOM      6  C   UNL     1      34.817 -19.422 -23.795  0.00  0.00    +0.068 C 
ATOM      7  H   UNL     1      35.922 -17.267 -24.888  0.00  0.00    -0.080 HD
ENDROOT
BRANCH   2   9
ATOM      8  O   UNL     1      35.359 -22.600 -18.290  0.00  0.00    -0.449 OA
ATOM      9  C   UNL     1      35.117 -19.870 -21.375  0.00  0.00    +0.048 C 
ATOM     10  C   UNL     1      33.970 -20.408 -20.741  0.00  0.00    +0.018 C 
ATOM     11  C   UNL     1      36.396 -20.279 -20.936  0.00  0.00    +0.018 C 
ATOM     12  C   UNL     1      34.121 -21.335 -19.695  0.00  0.00    +0.039 C 
ATOM     13  C   UNL     1      35.408 -21.698 -19.310  0.00  0.00    +0.146 C 
ATOM     14  C   UNL     1      36.570 -21.200 -19.898  0.00  0.00    +0.039 C 
ATOM     15  C   UNL     1      33.246 -22.066 -18.850  0.00  0.00    +0.045 C 
ATOM     16  C   UNL     1      34.044 -22.816 -18.019  0.00  0.00    +0.198 C 
BRANCH  16  19
ATOM     17  O   UNL     1      34.544 -24.498 -16.416  0.00  0.00    -0.267 OA
ATOM     18  N   UNL     1      32.386 -23.806 -16.547  0.00  0.00    -0.323 N 
ATOM     19  C   UNL     1      33.721 -23.730 -16.977  0.00  0.00    +0.277 C 
ATOM     20  H   UNL     1      32.135 -24.430 -15.829  0.00  0.00    +0.145 HD
ATOM     21  H   UNL     1      31.702 -23.236 -16.966  0.00  0.00    +0.145 HD
ENDBRANCH  16  19
ENDBRANCH   2   9
BRANCH   1  22
ATOM     22  C   UNL     1      34.394 -16.066 -25.465  0.00  0.00    -0.077 C 
BRANCH  22  23
ATOM     23  C   UNL     1      33.438 -15.165 -24.685  0.00  0.00    -0.022 C 
BRANCH  23  24
ATOM     24  C   UNL     1      33.430 -13.744 -25.254  0.00  0.00    +0.003 C 
BRANCH  24  25
ATOM     25  C   UNL     1      33.098 -12.713 -24.172  0.00  0.00    +0.028 C 
BRANCH  25  27
ATOM     26  N   UNL     1      35.116  -9.867 -25.249  0.00  0.00    -0.312 N 
ATOM     27  C   UNL     1      33.810 -11.411 -24.387  0.00  0.00    -0.006 C 
ATOM     28  C   UNL     1      33.682 -10.258 -23.585  0.00  0.00    +0.011 C 
ATOM     29  C   UNL     1      34.687 -11.158 -25.399  0.00  0.00    +0.058 C 
ATOM     30  C   UNL     1      34.518  -9.292 -24.150  0.00  0.00    +0.048 C 
ATOM     31  C   UNL     1      32.943  -9.925 -22.433  0.00  0.00    +0.011 C 
ATOM     32  C   UNL     1      34.653  -8.006 -23.616  0.00  0.00    +0.015 C 
ATOM     33  C   UNL     1      33.068  -8.642 -21.889  0.00  0.00    +0.069 C 
ATOM     34  C   UNL     1      33.910  -7.698 -22.473  0.00  0.00    +0.012 C 
ATOM     35  H   UNL     1      35.759  -9.413 -25.842  0.00  0.00    +0.152 HD
BRANCH  33  37
ATOM     36  N   UNL     1      31.714  -8.017 -19.769  0.00  0.00    -0.191 NA
ATOM     37  C   UNL     1      32.321  -8.297 -20.718  0.00  0.00    +0.100 C 
ENDBRANCH  33  37
ENDBRANCH  25  27
ENDBRANCH  24  25
ENDBRANCH  23  24
ENDBRANCH  22  23
ENDBRANCH   1  22
TORSDOF 8
ENDMDL
MODEL 5
REMARK VINA RESULT:     -11.2      3.379      5.853
REMARK  Name = 6918314
REMARK  8 active torsions:
REMARK  status: ('A' for Active; 'I' for Inactive)
REMARK    1  A    between atoms: N_1  and  C_22
REMARK    2  A    between atoms: N_2  and  C_9
REMARK    3  A    between atoms: C_16  and  C_19
REMARK    4  A    between atoms: C_22  and  C_23
REMARK    5  A    between atoms: C_23  and  C_24
REMARK    6  A    between atoms: C_24  and  C_25
REMARK    7  A    between atoms: C_25  and  C_27
REMARK    8  A    between atoms: C_33  and  C_37
REMARK                            x       y       z     vdW  Elec       q    Type
REMARK                         _______ _______ _______ _____ _____    ______ ____
ROOT
ATOM      1  N   UNL     1      36.155 -20.790 -19.499  0.00  0.00    +0.389 N 
ATOM      2  N   UNL     1      35.369 -19.195 -21.734  0.00  0.00    -0.312 N 
ATOM      3  C   UNL     1      37.167 -20.149 -20.346  0.00  0.00    -0.055 C 
ATOM      4  C   UNL     1      34.993 -21.170 -20.311  0.00  0.00    -0.055 C 
ATOM      5  C   UNL     1      36.610 -18.889 -21.012  0.00  0.00    +0.068 C 
ATOM      6  C   UNL     1      34.362 -19.946 -20.977  0.00  0.00    +0.068 C 
ATOM      7  H   UNL     1      35.854 -20.126 -18.785  0.00  0.00    -0.080 HD
ENDROOT
BRANCH   2   9
ATOM      8  O   UNL     1      33.790 -15.619 -25.640  0.00  0.00    -0.449 OA
ATOM      9  C   UNL     1      34.965 -18.319 -22.748  0.00  0.00    +0.048 C 
ATOM     10  C   UNL     1      34.888 -16.925 -22.505  0.00  0.00    +0.018 C 
ATOM     11  C   UNL     1      34.625 -18.808 -24.030  0.00  0.00    +0.018 C 
ATOM     12  C   UNL     1      34.480 -16.058 -23.534  0.00  0.00    +0.039 C 
ATOM     13  C   UNL     1      34.160 -16.603 -24.774  0.00  0.00    +0.146 C 
ATOM     14  C   UNL     1      34.218 -17.964 -25.068  0.00  0.00    +0.039 C 
ATOM     15  C   UNL     1      34.289 -14.658 -23.667  0.00  0.00    +0.045 C 
ATOM     16  C   UNL     1      33.871 -14.444 -24.961  0.00  0.00    +0.198 C 
BRANCH  16  19
ATOM     17  O   UNL     1      33.061 -13.205 -26.820  0.00  0.00    -0.267 OA
ATOM     18  N   UNL     1      33.749 -12.020 -25.010  0.00  0.00    -0.323 N 
ATOM     19  C   UNL     1      33.531 -13.249 -25.654  0.00  0.00    +0.277 C 
ATOM     20  H   UNL     1      33.522 -11.178 -25.467  0.00  0.00    +0.145 HD
ATOM     21  H   UNL     1      34.129 -12.001 -24.103  0.00  0.00    +0.145 HD
ENDBRANCH  16  19
ENDBRANCH   2   9
BRANCH   1  22
ATOM     22  C   UNL     1      36.716 -21.960 -18.825  0.00  0.00    -0.077 C 
BRANCH  22  23
ATOM     23  C   UNL     1      36.975 -21.651 -17.352  0.00  0.00    -0.022 C 
BRANCH  23  24
ATOM     24  C   UNL     1      36.411 -22.749 -16.449  0.00  0.00    +0.003 C 
BRANCH  24  25
ATOM     25  C   UNL     1      34.958 -23.075 -16.807  0.00  0.00    +0.028 C 
BRANCH  25  27
ATOM     26  N   UNL     1      33.809 -24.811 -13.807  0.00  0.00    -0.312 N 
ATOM     27  C   UNL     1      34.223 -23.724 -15.673  0.00  0.00    -0.006 C 
ATOM     28  C   UNL     1      32.822 -23.776 -15.521  0.00  0.00    +0.011 C 
ATOM     29  C   UNL     1      34.813 -24.358 -14.621  0.00  0.00    +0.058 C 
ATOM     30  C   UNL     1      32.582 -24.469 -14.332  0.00  0.00    +0.048 C 
ATOM     31  C   UNL     1      31.722 -23.308 -16.266  0.00  0.00    +0.011 C 
ATOM     32  C   UNL     1      31.292 -24.719 -13.852  0.00  0.00    +0.015 C 
ATOM     33  C   UNL     1      30.426 -23.550 -15.797  0.00  0.00    +0.069 C 
ATOM     34  C   UNL     1      30.216 -24.245 -14.608  0.00  0.00    +0.012 C 
ATOM     35  H   UNL     1      33.943 -25.309 -12.969  0.00  0.00    +0.152 HD
BRANCH  33  37
ATOM     36  N   UNL     1      28.395 -22.695 -17.161  0.00  0.00    -0.191 NA
ATOM     37  C   UNL     1      29.305 -23.079 -16.550  0.00  0.00    +0.100 C 
ENDBRANCH  33  37
ENDBRANCH  25  27
ENDBRANCH  24  25
ENDBRANCH  23  24
ENDBRANCH  22  23
ENDBRANCH   1  22
TORSDOF 8
ENDMDL
MODEL 6
REMARK VINA RESULT:     -11.2      2.680      5.329
REMARK  Name = 6918314
REMARK  8 active torsions:
REMARK  status: ('A' for Active; 'I' for Inactive)
REMARK    1  A    between atoms: N_1  and  C_22
REMARK    2  A    between atoms: N_2  and  C_9
REMARK    3  A    between atoms: C_16  and  C_19
REMARK    4  A    between atoms: C_22  and  C_23
REMARK    5  A    between atoms: C_23  and  C_24
REMARK    6  A    between atoms: C_24  and  C_25
REMARK    7  A    between atoms: C_25  and  C_27
REMARK    8  A    between atoms: C_33  and  C_37
REMARK                            x       y       z     vdW  Elec       q    Type
REMARK                         _______ _______ _______ _____ _____    ______ ____
ROOT
ATOM      1  N   UNL     1      36.314 -21.148 -20.098  0.00  0.00    +0.389 N 
ATOM      2  N   UNL     1      35.534 -18.817 -21.552  0.00  0.00    -0.312 N 
ATOM      3  C   UNL     1      34.898 -20.776 -20.200  0.00  0.00    -0.055 C 
ATOM      4  C   UNL     1      37.146 -19.940 -20.067  0.00  0.00    -0.055 C 
ATOM      5  C   UNL     1      34.631 -19.971 -21.474  0.00  0.00    +0.068 C 
ATOM      6  C   UNL     1      36.955 -19.106 -21.335  0.00  0.00    +0.068 C 
ATOM      7  H   UNL     1      36.569 -21.702 -20.916  0.00  0.00    -0.080 HD
ENDROOT
BRANCH   2   9
ATOM      8  O   UNL     1      34.063 -14.490 -24.659  0.00  0.00    -0.449 OA
ATOM      9  C   UNL     1      35.160 -17.744 -22.370  0.00  0.00    +0.048 C 
ATOM     10  C   UNL     1      34.989 -16.448 -21.823  0.00  0.00    +0.018 C 
ATOM     11  C   UNL     1      34.946 -17.934 -23.753  0.00  0.00    +0.018 C 
ATOM     12  C   UNL     1      34.614 -15.381 -22.658  0.00  0.00    +0.039 C 
ATOM     13  C   UNL     1      34.419 -15.635 -24.012  0.00  0.00    +0.146 C 
ATOM     14  C   UNL     1      34.573 -16.888 -24.603  0.00  0.00    +0.039 C 
ATOM     15  C   UNL     1      34.357 -13.996 -22.483  0.00  0.00    +0.045 C 
ATOM     16  C   UNL     1      34.028 -13.503 -23.725  0.00  0.00    +0.198 C 
BRANCH  16  19
ATOM     17  O   UNL     1      33.270 -11.275 -23.396  0.00  0.00    -0.267 OA
ATOM     18  N   UNL     1      33.762 -11.895 -25.523  0.00  0.00    -0.323 N 
ATOM     19  C   UNL     1      33.676 -12.193 -24.153  0.00  0.00    +0.277 C 
ATOM     20  H   UNL     1      33.524 -10.996 -25.847  0.00  0.00    +0.145 HD
ATOM     21  H   UNL     1      34.059 -12.584 -26.159  0.00  0.00    +0.145 HD
ENDBRANCH  16  19
ENDBRANCH   2   9
BRANCH   1  22
ATOM     22  C   UNL     1      36.546 -21.962 -18.905  0.00  0.00    -0.077 C 
BRANCH  22  23
ATOM     23  C   UNL     1      35.218 -22.324 -18.243  0.00  0.00    -0.022 C 
BRANCH  23  24
ATOM     24  C   UNL     1      35.408 -22.638 -16.758  0.00  0.00    +0.003 C 
BRANCH  24  25
ATOM     25  C   UNL     1      34.748 -23.967 -16.379  0.00  0.00    +0.028 C 
BRANCH  25  27
ATOM     26  N   UNL     1      34.769 -24.734 -12.809  0.00  0.00    -0.312 N 
ATOM     27  C   UNL     1      35.030 -24.359 -14.959  0.00  0.00    -0.006 C 
ATOM     28  C   UNL     1      36.255 -24.857 -14.470  0.00  0.00    +0.011 C 
ATOM     29  C   UNL     1      34.132 -24.290 -13.936  0.00  0.00    +0.058 C 
ATOM     30  C   UNL     1      36.067 -25.088 -13.105  0.00  0.00    +0.048 C 
ATOM     31  C   UNL     1      37.512 -25.140 -15.038  0.00  0.00    +0.011 C 
ATOM     32  C   UNL     1      37.079 -25.588 -12.278  0.00  0.00    +0.015 C 
ATOM     33  C   UNL     1      38.534 -25.641 -14.223  0.00  0.00    +0.069 C 
ATOM     34  C   UNL     1      38.318 -25.861 -12.864  0.00  0.00    +0.012 C 
ATOM     35  H   UNL     1      34.360 -24.793 -11.916  0.00  0.00    +0.152 HD
BRANCH  33  37
ATOM     36  N   UNL     1      40.851 -26.163 -15.257  0.00  0.00    -0.191 NA
ATOM     37  C   UNL     1      39.813 -25.929 -14.793  0.00  0.00    +0.100 C 
ENDBRANCH  33  37
ENDBRANCH  25  27
ENDBRANCH  24  25
ENDBRANCH  23  24
ENDBRANCH  22  23
ENDBRANCH   1  22
TORSDOF 8
ENDMDL
MODEL 7
REMARK VINA RESULT:     -11.1      1.511      2.353
REMARK  Name = 6918314
REMARK  8 active torsions:
REMARK  status: ('A' for Active; 'I' for Inactive)
REMARK    1  A    between atoms: N_1  and  C_22
REMARK    2  A    between atoms: N_2  and  C_9
REMARK    3  A    between atoms: C_16  and  C_19
REMARK    4  A    between atoms: C_22  and  C_23
REMARK    5  A    between atoms: C_23  and  C_24
REMARK    6  A    between atoms: C_24  and  C_25
REMARK    7  A    between atoms: C_25  and  C_27
REMARK    8  A    between atoms: C_33  and  C_37
REMARK                            x       y       z     vdW  Elec       q    Type
REMARK                         _______ _______ _______ _____ _____    ______ ____
ROOT
ATOM      1  N   UNL     1      34.827 -16.134 -23.748  0.00  0.00    +0.389 N 
ATOM      2  N   UNL     1      33.485 -13.707 -23.064  0.00  0.00    -0.312 N 
ATOM      3  C   UNL     1      33.689 -15.664 -24.547  0.00  0.00    -0.055 C 
ATOM      4  C   UNL     1      34.637 -15.761 -22.341  0.00  0.00    -0.055 C 
ATOM      5  C   UNL     1      33.550 -14.143 -24.464  0.00  0.00    +0.068 C 
ATOM      6  C   UNL     1      34.528 -14.243 -22.184  0.00  0.00    +0.068 C 
ATOM      7  H   UNL     1      35.678 -15.690 -24.093  0.00  0.00    -0.080 HD
ENDROOT
BRANCH   2   9
ATOM      8  O   UNL     1      31.349  -8.705 -22.083  0.00  0.00    -0.449 OA
ATOM      9  C   UNL     1      32.920 -12.456 -22.790  0.00  0.00    +0.048 C 
ATOM     10  C   UNL     1      33.387 -11.295 -23.455  0.00  0.00    +0.018 C 
ATOM     11  C   UNL     1      31.877 -12.329 -21.846  0.00  0.00    +0.018 C 
ATOM     12  C   UNL     1      32.809 -10.046 -23.168  0.00  0.00    +0.039 C 
ATOM     13  C   UNL     1      31.784  -9.989 -22.229  0.00  0.00    +0.146 C 
ATOM     14  C   UNL     1      31.286 -11.097 -21.546  0.00  0.00    +0.039 C 
ATOM     15  C   UNL     1      33.000  -8.712 -23.613  0.00  0.00    +0.045 C 
ATOM     16  C   UNL     1      32.092  -7.940 -22.926  0.00  0.00    +0.198 C 
BRANCH  16  19
ATOM     17  O   UNL     1      32.352  -5.733 -23.769  0.00  0.00    -0.267 OA
ATOM     18  N   UNL     1      30.937  -6.008 -22.016  0.00  0.00    -0.323 N 
ATOM     19  C   UNL     1      31.829  -6.542 -22.961  0.00  0.00    +0.277 C 
ATOM     20  H   UNL     1      30.737  -5.044 -22.018  0.00  0.00    +0.145 HD
ATOM     21  H   UNL     1      30.513  -6.597 -21.352  0.00  0.00    +0.145 HD
ENDBRANCH  16  19
ENDBRANCH   2   9
BRANCH   1  22
ATOM     22  C   UNL     1      34.983 -17.582 -23.878  0.00  0.00    -0.077 C 
BRANCH  22  23
ATOM     23  C   UNL     1      35.188 -18.220 -22.505  0.00  0.00    -0.022 C 
BRANCH  23  24
ATOM     24  C   UNL     1      34.977 -19.734 -22.562  0.00  0.00    +0.003 C 
BRANCH  24  25
ATOM     25  C   UNL     1      34.106 -20.220 -21.400  0.00  0.00    +0.028 C 
BRANCH  25  27
ATOM     26  N   UNL     1      36.597 -21.768 -19.224  0.00  0.00    -0.312 N 
ATOM     27  C   UNL     1      34.901 -20.950 -20.358  0.00  0.00    -0.006 C 
ATOM     28  C   UNL     1      34.368 -21.673 -19.271  0.00  0.00    +0.011 C 
ATOM     29  C   UNL     1      36.262 -21.015 -20.317  0.00  0.00    +0.058 C 
ATOM     30  C   UNL     1      35.461 -22.182 -18.565  0.00  0.00    +0.048 C 
ATOM     31  C   UNL     1      33.069 -21.953 -18.804  0.00  0.00    +0.011 C 
ATOM     32  C   UNL     1      35.317 -22.962 -17.413  0.00  0.00    +0.015 C 
ATOM     33  C   UNL     1      32.911 -22.731 -17.651  0.00  0.00    +0.069 C 
ATOM     34  C   UNL     1      34.019 -23.227 -16.968  0.00  0.00    +0.012 C 
ATOM     35  H   UNL     1      37.517 -21.981 -18.947  0.00  0.00    +0.152 HD
BRANCH  33  37
ATOM     36  N   UNL     1      30.527 -23.256 -16.783  0.00  0.00    -0.191 NA
ATOM     37  C   UNL     1      31.594 -23.021 -17.172  0.00  0.00    +0.100 C 
ENDBRANCH  33  37
ENDBRANCH  25  27
ENDBRANCH  24  25
ENDBRANCH  23  24
ENDBRANCH  22  23
ENDBRANCH   1  22
TORSDOF 8
ENDMDL
MODEL 8
REMARK VINA RESULT:     -11.0      5.227     12.986
REMARK  Name = 6918314
REMARK  8 active torsions:
REMARK  status: ('A' for Active; 'I' for Inactive)
REMARK    1  A    between atoms: N_1  and  C_22
REMARK    2  A    between atoms: N_2  and  C_9
REMARK    3  A    between atoms: C_16  and  C_19
REMARK    4  A    between atoms: C_22  and  C_23
REMARK    5  A    between atoms: C_23  and  C_24
REMARK    6  A    between atoms: C_24  and  C_25
REMARK    7  A    between atoms: C_25  and  C_27
REMARK    8  A    between atoms: C_33  and  C_37
REMARK                            x       y       z     vdW  Elec       q    Type
REMARK                         _______ _______ _______ _____ _____    ______ ____
ROOT
ATOM      1  N   UNL     1      34.904 -20.850 -21.075  0.00  0.00    +0.389 N 
ATOM      2  N   UNL     1      34.997 -22.040 -18.481  0.00  0.00    -0.312 N 
ATOM      3  C   UNL     1      36.101 -20.712 -20.238  0.00  0.00    -0.055 C 
ATOM      4  C   UNL     1      33.705 -20.883 -20.230  0.00  0.00    -0.055 C 
ATOM      5  C   UNL     1      36.228 -21.886 -19.264  0.00  0.00    +0.068 C 
ATOM      6  C   UNL     1      33.751 -22.061 -19.254  0.00  0.00    +0.068 C 
ATOM      7  H   UNL     1      34.963 -21.725 -21.595  0.00  0.00    -0.080 HD
ENDROOT
BRANCH   2   9
ATOM      8  O   UNL     1      35.439 -24.730 -13.674  0.00  0.00    -0.449 OA
ATOM      9  C   UNL     1      35.072 -22.733 -17.267  0.00  0.00    +0.048 C 
ATOM     10  C   UNL     1      36.275 -22.744 -16.519  0.00  0.00    +0.018 C 
ATOM     11  C   UNL     1      33.951 -23.433 -16.767  0.00  0.00    +0.018 C 
ATOM     12  C   UNL     1      36.334 -23.445 -15.301  0.00  0.00    +0.039 C 
ATOM     13  C   UNL     1      35.195 -24.113 -14.864  0.00  0.00    +0.146 C 
ATOM     14  C   UNL     1      33.987 -24.136 -15.558  0.00  0.00    +0.039 C 
ATOM     15  C   UNL     1      37.323 -23.677 -14.309  0.00  0.00    +0.045 C 
ATOM     16  C   UNL     1      36.730 -24.460 -13.346  0.00  0.00    +0.198 C 
BRANCH  16  19
ATOM     17  O   UNL     1      36.884 -26.100 -11.633  0.00  0.00    -0.267 OA
ATOM     18  N   UNL     1      38.179 -24.249 -11.410  0.00  0.00    -0.323 N 
ATOM     19  C   UNL     1      37.235 -24.999 -12.130  0.00  0.00    +0.277 C 
ATOM     20  H   UNL     1      38.544 -24.599 -10.565  0.00  0.00    +0.145 HD
ATOM     21  H   UNL     1      38.474 -23.374 -11.749  0.00  0.00    +0.145 HD
ENDBRANCH  16  19
ENDBRANCH   2   9
BRANCH   1  22
ATOM     22  C   UNL     1      34.822 -19.752 -22.038  0.00  0.00    -0.077 C 
BRANCH  22  23
ATOM     23  C   UNL     1      35.364 -18.463 -21.422  0.00  0.00    -0.022 C 
BRANCH  23  24
ATOM     24  C   UNL     1      35.815 -17.480 -22.503  0.00  0.00    +0.003 C 
BRANCH  24  25
ATOM     25  C   UNL     1      34.969 -16.203 -22.484  0.00  0.00    +0.028 C 
BRANCH  25  27
ATOM     26  N   UNL     1      33.637 -16.091 -25.882  0.00  0.00    -0.312 N 
ATOM     27  C   UNL     1      34.404 -15.874 -23.833  0.00  0.00    -0.006 C 
ATOM     28  C   UNL     1      34.060 -14.585 -24.291  0.00  0.00    +0.011 C 
ATOM     29  C   UNL     1      34.140 -16.783 -24.813  0.00  0.00    +0.058 C 
ATOM     30  C   UNL     1      33.576 -14.746 -25.591  0.00  0.00    +0.048 C 
ATOM     31  C   UNL     1      34.107 -13.289 -23.741  0.00  0.00    +0.011 C 
ATOM     32  C   UNL     1      33.136 -13.672 -26.371  0.00  0.00    +0.015 C 
ATOM     33  C   UNL     1      33.669 -12.204 -24.510  0.00  0.00    +0.069 C 
ATOM     34  C   UNL     1      33.191 -12.395 -25.805  0.00  0.00    +0.012 C 
ATOM     35  H   UNL     1      33.358 -16.495 -26.735  0.00  0.00    +0.152 HD
BRANCH  33  37
ATOM     36  N   UNL     1      33.750  -9.815 -23.510  0.00  0.00    -0.191 NA
ATOM     37  C   UNL     1      33.714 -10.885 -23.958  0.00  0.00    +0.100 C 
ENDBRANCH  33  37
ENDBRANCH  25  27
ENDBRANCH  24  25
ENDBRANCH  23  24
ENDBRANCH  22  23
ENDBRANCH   1  22
TORSDOF 8
ENDMDL
MODEL 9
REMARK VINA RESULT:     -10.9      4.361     13.721
REMARK  Name = 6918314
REMARK  8 active torsions:
REMARK  status: ('A' for Active; 'I' for Inactive)
REMARK    1  A    between atoms: N_1  and  C_22
REMARK    2  A    between atoms: N_2  and  C_9
REMARK    3  A    between atoms: C_16  and  C_19
REMARK    4  A    between atoms: C_22  and  C_23
REMARK    5  A    between atoms: C_23  and  C_24
REMARK    6  A    between atoms: C_24  and  C_25
REMARK    7  A    between atoms: C_25  and  C_27
REMARK    8  A    between atoms: C_33  and  C_37
REMARK                            x       y       z     vdW  Elec       q    Type
REMARK                         _______ _______ _______ _____ _____    ______ ____
ROOT
ATOM      1  N   UNL     1      31.827 -10.354 -22.814  0.00  0.00    +0.389 N 
ATOM      2  N   UNL     1      33.230 -12.838 -22.692  0.00  0.00    -0.312 N 
ATOM      3  C   UNL     1      33.127 -10.505 -23.478  0.00  0.00    -0.055 C 
ATOM      4  C   UNL     1      31.792 -11.167 -21.593  0.00  0.00    -0.055 C 
ATOM      5  C   UNL     1      33.382 -11.964 -23.862  0.00  0.00    +0.068 C 
ATOM      6  C   UNL     1      32.003 -12.649 -21.913  0.00  0.00    +0.068 C 
ATOM      7  H   UNL     1      31.094 -10.678 -23.446  0.00  0.00    -0.080 HD
ENDROOT
BRANCH   2   9
ATOM      8  O   UNL     1      35.664 -17.800 -22.678  0.00  0.00    -0.449 OA
ATOM      9  C   UNL     1      33.844 -14.096 -22.727  0.00  0.00    +0.048 C 
ATOM     10  C   UNL     1      34.252 -14.730 -21.528  0.00  0.00    +0.018 C 
ATOM     11  C   UNL     1      34.069 -14.753 -23.957  0.00  0.00    +0.018 C 
ATOM     12  C   UNL     1      34.867 -15.993 -21.580  0.00  0.00    +0.039 C 
ATOM     13  C   UNL     1      35.059 -16.588 -22.823  0.00  0.00    +0.146 C 
ATOM     14  C   UNL     1      34.678 -16.010 -24.033  0.00  0.00    +0.039 C 
ATOM     15  C   UNL     1      35.391 -16.909 -20.630  0.00  0.00    +0.045 C 
ATOM     16  C   UNL     1      35.861 -17.985 -21.346  0.00  0.00    +0.198 C 
BRANCH  16  19
ATOM     17  O   UNL     1      37.729 -19.380 -20.886  0.00  0.00    -0.267 OA
ATOM     18  N   UNL     1      35.669 -20.271 -20.551  0.00  0.00    -0.323 N 
ATOM     19  C   UNL     1      36.486 -19.193 -20.927  0.00  0.00    +0.277 C 
ATOM     20  H   UNL     1      36.075 -21.118 -20.257  0.00  0.00    +0.145 HD
ATOM     21  H   UNL     1      34.689 -20.179 -20.581  0.00  0.00    +0.145 HD
ENDBRANCH  16  19
ENDBRANCH   2   9
BRANCH   1  22
ATOM     22  C   UNL     1      31.571  -8.948 -22.501  0.00  0.00    -0.077 C 
BRANCH  22  23
ATOM     23  C   UNL     1      32.319  -8.542 -21.233  0.00  0.00    -0.022 C 
BRANCH  23  24
ATOM     24  C   UNL     1      33.020  -7.194 -21.412  0.00  0.00    +0.003 C 
BRANCH  24  25
ATOM     25  C   UNL     1      33.603  -7.052 -22.822  0.00  0.00    +0.028 C 
BRANCH  25  27
ATOM     26  N   UNL     1      31.582  -4.338 -24.196  0.00  0.00    -0.312 N 
ATOM     27  C   UNL     1      32.981  -5.920 -23.584  0.00  0.00    -0.006 C 
ATOM     28  C   UNL     1      33.518  -5.308 -24.735  0.00  0.00    +0.011 C 
ATOM     29  C   UNL     1      31.801  -5.318 -23.265  0.00  0.00    +0.058 C 
ATOM     30  C   UNL     1      32.615  -4.309 -25.106  0.00  0.00    +0.048 C 
ATOM     31  C   UNL     1      34.680  -5.494 -25.511  0.00  0.00    +0.011 C 
ATOM     32  C   UNL     1      32.817  -3.484 -26.218  0.00  0.00    +0.015 C 
ATOM     33  C   UNL     1      34.895  -4.675 -26.625  0.00  0.00    +0.069 C 
ATOM     34  C   UNL     1      33.977  -3.686 -26.972  0.00  0.00    +0.012 C 
ATOM     35  H   UNL     1      30.800  -3.740 -24.212  0.00  0.00    +0.152 HD
BRANCH  33  37
ATOM     36  N   UNL     1      37.027  -5.008 -28.060  0.00  0.00    -0.191 NA
ATOM     37  C   UNL     1      36.071  -4.859 -27.418  0.00  0.00    +0.100 C 
ENDBRANCH  33  37
ENDBRANCH  25  27
ENDBRANCH  24  25
ENDBRANCH  23  24
ENDBRANCH  22  23
ENDBRANCH   1  22
TORSDOF 8
ENDMDL
