MODEL 1
REMARK VINA RESULT:     -11.7      0.000      0.000
REMARK  Name = 16363
REMARK  6 active torsions:
REMARK  status: ('A' for Active; 'I' for Inactive)
REMARK    1  A    between atoms: N_1  and  C_19
REMARK    2  A    between atoms: C_2  and  N_9
REMARK    3  A    between atoms: C_19  and  C_20
REMARK    4  A    between atoms: C_20  and  C_21
REMARK    5  A    between atoms: C_21  and  C_23
REMARK    6  A    between atoms: C_23  and  C_25
REMARK                            x       y       z     vdW  Elec       q    Type
REMARK                         _______ _______ _______ _____ _____    ______ ____
ROOT
ATOM      1  N   UNL     1      34.047 -16.329 -24.254  0.00  0.00    +0.387 N 
ATOM      2  C   UNL     1      33.916 -13.455 -23.721  0.00  0.00    +0.086 C 
ATOM      3  C   UNL     1      33.025 -14.134 -24.762  0.00  0.00    -0.000 C 
ATOM      4  C   UNL     1      34.346 -14.464 -22.657  0.00  0.00    -0.000 C 
ATOM      5  C   UNL     1      33.691 -15.390 -25.328  0.00  0.00    -0.075 C 
ATOM      6  C   UNL     1      34.968 -15.710 -23.290  0.00  0.00    -0.075 C 
ATOM      7  H   UNL     1      33.192 -16.577 -23.757  0.00  0.00    -0.080 HD
ENDROOT
BRANCH   2   9
ATOM      8  O   UNL     1      31.672 -13.413 -21.706  0.00  0.00    -0.247 OA
ATOM      9  N   UNL     1      33.246 -12.329 -23.121  0.00  0.00    -0.282 N 
ATOM     10  N   UNL     1      31.848 -11.060 -21.867  0.00  0.00    -0.305 N 
ATOM     11  C   UNL     1      33.532 -10.981 -23.378  0.00  0.00    +0.079 A 
ATOM     12  C   UNL     1      32.190 -12.408 -22.172  0.00  0.00    +0.328 A 
ATOM     13  C   UNL     1      32.670 -10.208 -22.604  0.00  0.00    +0.076 A 
ATOM     14  C   UNL     1      34.464 -10.404 -24.215  0.00  0.00    +0.019 C 
ATOM     15  C   UNL     1      32.692  -8.831 -22.625  0.00  0.00    +0.019 C 
ATOM     16  C   UNL     1      34.507  -9.006 -24.254  0.00  0.00    +0.002 C 
ATOM     17  C   UNL     1      33.630  -8.229 -23.468  0.00  0.00    +0.002 C 
ATOM     18  H   UNL     1      31.147 -10.776 -21.236  0.00  0.00    +0.170 HD
ENDBRANCH   2   9
BRANCH   1  19
ATOM     19  C   UNL     1      34.635 -17.546 -24.813  0.00  0.00    -0.077 C 
BRANCH  19  20
ATOM     20  C   UNL     1      34.205 -18.765 -23.995  0.00  0.00    -0.015 C 
BRANCH  20  21
ATOM     21  C   UNL     1      35.362 -19.361 -23.189  0.00  0.00    +0.067 C 
BRANCH  21  23
ATOM     22  O   UNL     1      35.468 -18.017 -21.188  0.00  0.00    -0.291 OA
ATOM     23  C   UNL     1      35.246 -19.116 -21.691  0.00  0.00    +0.173 C 
BRANCH  23  25
ATOM     24  F   UNL     1      33.682 -23.348 -18.403  0.00  0.00    -0.204 F 
ATOM     25  C   UNL     1      34.829 -20.246 -20.813  0.00  0.00    +0.035 C 
ATOM     26  C   UNL     1      33.484 -20.477 -20.628  0.00  0.00    +0.005 C 
ATOM     27  C   UNL     1      35.803 -21.016 -20.219  0.00  0.00    +0.005 C 
ATOM     28  C   UNL     1      33.093 -21.534 -19.807  0.00  0.00    +0.030 C 
ATOM     29  C   UNL     1      35.412 -22.073 -19.398  0.00  0.00    +0.030 C 
ATOM     30  C   UNL     1      34.058 -22.333 -19.192  0.00  0.00    +0.140 C 
ENDBRANCH  23  25
ENDBRANCH  21  23
ENDBRANCH  20  21
ENDBRANCH  19  20
ENDBRANCH   1  19
TORSDOF 6
ENDMDL
MODEL 2
REMARK VINA RESULT:     -11.5      1.362      2.359
REMARK  Name = 16363
REMARK  6 active torsions:
REMARK  status: ('A' for Active; 'I' for Inactive)
REMARK    1  A    between atoms: N_1  and  C_19
REMARK    2  A    between atoms: C_2  and  N_9
REMARK    3  A    between atoms: C_19  and  C_20
REMARK    4  A    between atoms: C_20  and  C_21
REMARK    5  A    between atoms: C_21  and  C_23
REMARK    6  A    between atoms: C_23  and  C_25
REMARK                            x       y       z     vdW  Elec       q    Type
REMARK                         _______ _______ _______ _____ _____    ______ ____
ROOT
ATOM      1  N   UNL     1      34.641 -16.241 -24.671  0.00  0.00    +0.387 N 
ATOM      2  C   UNL     1      33.257 -13.860 -23.683  0.00  0.00    +0.086 C 
ATOM      3  C   UNL     1      34.520 -14.407 -23.017  0.00  0.00    -0.000 C 
ATOM      4  C   UNL     1      33.213 -14.279 -25.152  0.00  0.00    -0.000 C 
ATOM      5  C   UNL     1      34.657 -15.914 -23.238  0.00  0.00    -0.075 C 
ATOM      6  C   UNL     1      33.394 -15.790 -25.305  0.00  0.00    -0.075 C 
ATOM      7  H   UNL     1      35.415 -15.748 -25.115  0.00  0.00    -0.080 HD
ENDROOT
BRANCH   2   9
ATOM      8  O   UNL     1      34.367 -11.716 -25.490  0.00  0.00    -0.247 OA
ATOM      9  N   UNL     1      33.181 -12.427 -23.555  0.00  0.00    -0.282 N 
ATOM     10  N   UNL     1      33.419 -10.205 -23.937  0.00  0.00    -0.305 N 
ATOM     11  C   UNL     1      32.545 -11.736 -22.515  0.00  0.00    +0.079 A 
ATOM     12  C   UNL     1      33.740 -11.488 -24.465  0.00  0.00    +0.328 A 
ATOM     13  C   UNL     1      32.695 -10.372 -22.756  0.00  0.00    +0.076 A 
ATOM     14  C   UNL     1      31.867 -12.202 -21.409  0.00  0.00    +0.019 C 
ATOM     15  C   UNL     1      32.181  -9.411 -21.913  0.00  0.00    +0.019 C 
ATOM     16  C   UNL     1      31.334 -11.246 -20.537  0.00  0.00    +0.002 C 
ATOM     17  C   UNL     1      31.490  -9.866 -20.787  0.00  0.00    +0.002 C 
ATOM     18  H   UNL     1      33.667  -9.342 -24.340  0.00  0.00    +0.170 HD
ENDBRANCH   2   9
BRANCH   1  19
ATOM     19  C   UNL     1      34.824 -17.679 -24.869  0.00  0.00    -0.077 C 
BRANCH  19  20
ATOM     20  C   UNL     1      34.311 -18.450 -23.651  0.00  0.00    -0.015 C 
BRANCH  20  21
ATOM     21  C   UNL     1      35.381 -19.367 -23.051  0.00  0.00    +0.067 C 
BRANCH  21  23
ATOM     22  O   UNL     1      36.014 -18.284 -20.989  0.00  0.00    -0.291 OA
ATOM     23  C   UNL     1      35.494 -19.254 -21.538  0.00  0.00    +0.173 C 
BRANCH  23  25
ATOM     24  F   UNL     1      33.408 -23.361 -18.383  0.00  0.00    -0.204 F 
ATOM     25  C   UNL     1      34.937 -20.351 -20.696  0.00  0.00    +0.035 C 
ATOM     26  C   UNL     1      35.811 -21.179 -20.028  0.00  0.00    +0.005 C 
ATOM     27  C   UNL     1      33.570 -20.494 -20.617  0.00  0.00    +0.005 C 
ATOM     28  C   UNL     1      35.290 -22.205 -19.240  0.00  0.00    +0.030 C 
ATOM     29  C   UNL     1      33.049 -21.520 -19.829  0.00  0.00    +0.030 C 
ATOM     30  C   UNL     1      33.908 -22.376 -19.140  0.00  0.00    +0.140 C 
ENDBRANCH  23  25
ENDBRANCH  21  23
ENDBRANCH  20  21
ENDBRANCH  19  20
ENDBRANCH   1  19
TORSDOF 6
ENDMDL
MODEL 3
REMARK VINA RESULT:     -11.4      3.807      9.889
REMARK  Name = 16363
REMARK  6 active torsions:
REMARK  status: ('A' for Active; 'I' for Inactive)
REMARK    1  A    between atoms: N_1  and  C_19
REMARK    2  A    between atoms: C_2  and  N_9
REMARK    3  A    between atoms: C_19  and  C_20
REMARK    4  A    between atoms: C_20  and  C_21
REMARK    5  A    between atoms: C_21  and  C_23
REMARK    6  A    between atoms: C_23  and  C_25
REMARK                            x       y       z     vdW  Elec       q    Type
REMARK                         _______ _______ _______ _____ _____    ______ ____
ROOT
ATOM      1  N   UNL     1      34.043 -16.133 -24.010  0.00  0.00    +0.387 N 
ATOM      2  C   UNL     1      35.765 -18.037 -22.607  0.00  0.00    +0.086 C 
ATOM      3  C   UNL     1      35.271 -16.746 -21.953  0.00  0.00    -0.000 C 
ATOM      4  C   UNL     1      34.803 -18.468 -23.714  0.00  0.00    -0.000 C 
ATOM      5  C   UNL     1      34.999 -15.663 -22.998  0.00  0.00    -0.075 C 
ATOM      6  C   UNL     1      34.545 -17.328 -24.701  0.00  0.00    -0.075 C 
ATOM      7  H   UNL     1      33.178 -16.386 -23.533  0.00  0.00    -0.080 HD
ENDROOT
BRANCH   2   9
ATOM      8  O   UNL     1      38.278 -19.044 -21.279  0.00  0.00    -0.247 OA
ATOM      9  N   UNL     1      35.927 -19.084 -21.631  0.00  0.00    -0.282 N 
ATOM     10  N   UNL     1      36.836 -20.546 -20.157  0.00  0.00    -0.305 N 
ATOM     11  C   UNL     1      34.892 -19.863 -21.095  0.00  0.00    +0.079 A 
ATOM     12  C   UNL     1      37.162 -19.492 -21.057  0.00  0.00    +0.328 A 
ATOM     13  C   UNL     1      35.458 -20.759 -20.191  0.00  0.00    +0.076 A 
ATOM     14  C   UNL     1      33.535 -19.844 -21.337  0.00  0.00    +0.019 C 
ATOM     15  C   UNL     1      34.706 -21.673 -19.486  0.00  0.00    +0.019 C 
ATOM     16  C   UNL     1      32.748 -20.762 -20.633  0.00  0.00    +0.002 C 
ATOM     17  C   UNL     1      33.328 -21.667 -19.719  0.00  0.00    +0.002 C 
ATOM     18  H   UNL     1      37.479 -21.043 -19.600  0.00  0.00    +0.170 HD
ENDBRANCH   2   9
BRANCH   1  19
ATOM     19  C   UNL     1      33.753 -15.070 -24.973  0.00  0.00    -0.077 C 
BRANCH  19  20
ATOM     20  C   UNL     1      32.999 -13.928 -24.289  0.00  0.00    -0.015 C 
BRANCH  20  21
ATOM     21  C   UNL     1      33.940 -12.841 -23.765  0.00  0.00    +0.067 C 
BRANCH  21  23
ATOM     22  O   UNL     1      34.042 -11.599 -25.832  0.00  0.00    -0.291 OA
ATOM     23  C   UNL     1      33.930 -11.574 -24.608  0.00  0.00    +0.173 C 
BRANCH  23  25
ATOM     24  F   UNL     1      33.286  -6.656 -22.044  0.00  0.00    -0.204 F 
ATOM     25  C   UNL     1      33.757 -10.261 -23.923  0.00  0.00    +0.035 C 
ATOM     26  C   UNL     1      34.737  -9.305 -24.072  0.00  0.00    +0.005 C 
ATOM     27  C   UNL     1      32.626 -10.053 -23.167  0.00  0.00    +0.005 C 
ATOM     28  C   UNL     1      34.577  -8.076 -23.432  0.00  0.00    +0.030 C 
ATOM     29  C   UNL     1      32.465  -8.824 -22.527  0.00  0.00    +0.030 C 
ATOM     30  C   UNL     1      33.440  -7.836 -22.659  0.00  0.00    +0.140 C 
ENDBRANCH  23  25
ENDBRANCH  21  23
ENDBRANCH  20  21
ENDBRANCH  19  20
ENDBRANCH   1  19
TORSDOF 6
ENDMDL
MODEL 4
REMARK VINA RESULT:     -11.3      3.269      5.500
REMARK  Name = 16363
REMARK  6 active torsions:
REMARK  status: ('A' for Active; 'I' for Inactive)
REMARK    1  A    between atoms: N_1  and  C_19
REMARK    2  A    between atoms: C_2  and  N_9
REMARK    3  A    between atoms: C_19  and  C_20
REMARK    4  A    between atoms: C_20  and  C_21
REMARK    5  A    between atoms: C_21  and  C_23
REMARK    6  A    between atoms: C_23  and  C_25
REMARK                            x       y       z     vdW  Elec       q    Type
REMARK                         _______ _______ _______ _____ _____    ______ ____
ROOT
ATOM      1  N   UNL     1      35.942 -19.699 -20.712  0.00  0.00    +0.387 N 
ATOM      2  C   UNL     1      35.317 -18.481 -23.298  0.00  0.00    +0.086 C 
ATOM      3  C   UNL     1      34.281 -19.264 -22.492  0.00  0.00    -0.000 C 
ATOM      4  C   UNL     1      36.391 -17.917 -22.369  0.00  0.00    -0.000 C 
ATOM      5  C   UNL     1      34.947 -20.314 -21.601  0.00  0.00    -0.075 C 
ATOM      6  C   UNL     1      36.989 -19.011 -21.481  0.00  0.00    -0.075 C 
ATOM      7  H   UNL     1      35.465 -19.003 -20.139  0.00  0.00    -0.080 HD
ENDROOT
BRANCH   2   9
ATOM      8  O   UNL     1      34.234 -18.542 -26.112  0.00  0.00    -0.247 OA
ATOM      9  N   UNL     1      34.695 -17.430 -24.062  0.00  0.00    -0.282 N 
ATOM     10  N   UNL     1      33.687 -16.273 -25.730  0.00  0.00    -0.305 N 
ATOM     11  C   UNL     1      34.470 -16.122 -23.610  0.00  0.00    +0.079 A 
ATOM     12  C   UNL     1      34.212 -17.553 -25.393  0.00  0.00    +0.328 A 
ATOM     13  C   UNL     1      33.851 -15.418 -24.641  0.00  0.00    +0.076 A 
ATOM     14  C   UNL     1      34.760 -15.526 -22.402  0.00  0.00    +0.019 C 
ATOM     15  C   UNL     1      33.492 -14.093 -24.518  0.00  0.00    +0.019 C 
ATOM     16  C   UNL     1      34.405 -14.181 -22.252  0.00  0.00    +0.002 C 
ATOM     17  C   UNL     1      33.778 -13.473 -23.299  0.00  0.00    +0.002 C 
ATOM     18  H   UNL     1      33.276 -16.031 -26.591  0.00  0.00    +0.170 HD
ENDBRANCH   2   9
BRANCH   1  19
ATOM     19  C   UNL     1      36.533 -20.706 -19.831  0.00  0.00    -0.077 C 
BRANCH  19  20
ATOM     20  C   UNL     1      35.693 -21.984 -19.850  0.00  0.00    -0.015 C 
BRANCH  20  21
ATOM     21  C   UNL     1      35.187 -22.368 -18.457  0.00  0.00    +0.067 C 
BRANCH  21  23
ATOM     22  O   UNL     1      32.977 -22.557 -19.408  0.00  0.00    -0.291 OA
ATOM     23  C   UNL     1      33.695 -22.667 -18.417  0.00  0.00    +0.173 C 
BRANCH  23  25
ATOM     24  F   UNL     1      31.440 -24.393 -13.609  0.00  0.00    -0.204 F 
ATOM     25  C   UNL     1      33.094 -23.128 -17.133  0.00  0.00    +0.035 C 
ATOM     26  C   UNL     1      31.728 -23.041 -16.975  0.00  0.00    +0.005 C 
ATOM     27  C   UNL     1      33.925 -23.623 -16.153  0.00  0.00    +0.005 C 
ATOM     28  C   UNL     1      31.165 -23.472 -15.774  0.00  0.00    +0.030 C 
ATOM     29  C   UNL     1      33.361 -24.054 -14.953  0.00  0.00    +0.030 C 
ATOM     30  C   UNL     1      31.982 -23.979 -14.763  0.00  0.00    +0.140 C 
ENDBRANCH  23  25
ENDBRANCH  21  23
ENDBRANCH  20  21
ENDBRANCH  19  20
ENDBRANCH   1  19
TORSDOF 6
ENDMDL
MODEL 5
REMARK VINA RESULT:     -11.1      3.811      9.817
REMARK  Name = 16363
REMARK  6 active torsions:
REMARK  status: ('A' for Active; 'I' for Inactive)
REMARK    1  A    between atoms: N_1  and  C_19
REMARK    2  A    between atoms: C_2  and  N_9
REMARK    3  A    between atoms: C_19  and  C_20
REMARK    4  A    between atoms: C_20  and  C_21
REMARK    5  A    between atoms: C_21  and  C_23
REMARK    6  A    between atoms: C_23  and  C_25
REMARK                            x       y       z     vdW  Elec       q    Type
REMARK                         _______ _______ _______ _____ _____    ______ ____
ROOT
ATOM      1  N   UNL     1      35.027 -17.149 -24.356  0.00  0.00    +0.387 N 
ATOM      2  C   UNL     1      34.898 -18.836 -21.969  0.00  0.00    +0.086 C 
ATOM      3  C   UNL     1      34.887 -19.418 -23.383  0.00  0.00    -0.000 C 
ATOM      4  C   UNL     1      35.583 -17.470 -21.968  0.00  0.00    -0.000 C 
ATOM      5  C   UNL     1      34.300 -18.426 -24.388  0.00  0.00    -0.075 C 
ATOM      6  C   UNL     1      34.974 -16.541 -23.020  0.00  0.00    -0.075 C 
ATOM      7  H   UNL     1      36.004 -17.337 -24.578  0.00  0.00    -0.080 HD
ENDROOT
BRANCH   2   9
ATOM      8  O   UNL     1      37.818 -19.091 -21.262  0.00  0.00    -0.247 OA
ATOM      9  N   UNL     1      35.540 -19.733 -21.042  0.00  0.00    -0.282 N 
ATOM     10  N   UNL     1      37.103 -20.809 -19.803  0.00  0.00    -0.305 N 
ATOM     11  C   UNL     1      34.888 -20.698 -20.262  0.00  0.00    +0.079 A 
ATOM     12  C   UNL     1      36.935 -19.780 -20.773  0.00  0.00    +0.328 A 
ATOM     13  C   UNL     1      35.855 -21.355 -19.504  0.00  0.00    +0.076 A 
ATOM     14  C   UNL     1      33.553 -21.031 -20.173  0.00  0.00    +0.019 C 
ATOM     15  C   UNL     1      35.542 -22.368 -18.625  0.00  0.00    +0.019 C 
ATOM     16  C   UNL     1      33.209 -22.057 -19.287  0.00  0.00    +0.002 C 
ATOM     17  C   UNL     1      34.193 -22.718 -18.521  0.00  0.00    +0.002 C 
ATOM     18  H   UNL     1      37.960 -21.088 -19.408  0.00  0.00    +0.170 HD
ENDBRANCH   2   9
BRANCH   1  19
ATOM     19  C   UNL     1      34.487 -16.229 -25.358  0.00  0.00    -0.077 C 
BRANCH  19  20
ATOM     20  C   UNL     1      33.864 -15.011 -24.675  0.00  0.00    -0.015 C 
BRANCH  20  21
ATOM     21  C   UNL     1      32.913 -14.248 -25.602  0.00  0.00    +0.067 C 
BRANCH  21  23
ATOM     22  O   UNL     1      33.800 -13.099 -27.531  0.00  0.00    -0.291 OA
ATOM     23  C   UNL     1      33.577 -13.082 -26.322  0.00  0.00    +0.173 C 
BRANCH  23  25
ATOM     24  F   UNL     1      34.972  -8.558 -23.363  0.00  0.00    -0.204 F 
ATOM     25  C   UNL     1      33.949 -11.874 -25.533  0.00  0.00    +0.035 C 
ATOM     26  C   UNL     1      33.186 -11.541 -24.436  0.00  0.00    +0.005 C 
ATOM     27  C   UNL     1      35.042 -11.137 -25.928  0.00  0.00    +0.005 C 
ATOM     28  C   UNL     1      33.534 -10.411 -23.696  0.00  0.00    +0.030 C 
ATOM     29  C   UNL     1      35.391 -10.007 -25.189  0.00  0.00    +0.030 C 
ATOM     30  C   UNL     1      34.638  -9.644 -24.073  0.00  0.00    +0.140 C 
ENDBRANCH  23  25
ENDBRANCH  21  23
ENDBRANCH  20  21
ENDBRANCH  19  20
ENDBRANCH   1  19
TORSDOF 6
ENDMDL
MODEL 6
REMARK VINA RESULT:     -11.0      6.231     12.298
REMARK  Name = 16363
REMARK  6 active torsions:
REMARK  status: ('A' for Active; 'I' for Inactive)
REMARK    1  A    between atoms: N_1  and  C_19
REMARK    2  A    between atoms: C_2  and  N_9
REMARK    3  A    between atoms: C_19  and  C_20
REMARK    4  A    between atoms: C_20  and  C_21
REMARK    5  A    between atoms: C_21  and  C_23
REMARK    6  A    between atoms: C_23  and  C_25
REMARK                            x       y       z     vdW  Elec       q    Type
REMARK                         _______ _______ _______ _____ _____    ______ ____
ROOT
ATOM      1  N   UNL     1      34.349 -23.056 -18.192  0.00  0.00    +0.387 N 
ATOM      2  C   UNL     1      34.909 -23.274 -15.329  0.00  0.00    +0.086 C 
ATOM      3  C   UNL     1      33.692 -23.936 -15.977  0.00  0.00    -0.000 C 
ATOM      4  C   UNL     1      36.015 -23.079 -16.365  0.00  0.00    -0.000 C 
ATOM      5  C   UNL     1      33.247 -23.177 -17.228  0.00  0.00    -0.075 C 
ATOM      6  C   UNL     1      35.495 -22.348 -17.604  0.00  0.00    -0.075 C 
ATOM      7  H   UNL     1      34.654 -23.996 -18.441  0.00  0.00    -0.080 HD
ENDROOT
BRANCH   2   9
ATOM      8  O   UNL     1      33.482 -24.032 -12.783  0.00  0.00    -0.247 OA
ATOM      9  N   UNL     1      35.384 -24.045 -14.208  0.00  0.00    -0.282 N 
ATOM     10  N   UNL     1      35.502 -25.125 -12.219  0.00  0.00    -0.305 N 
ATOM     11  C   UNL     1      36.662 -24.611 -14.095  0.00  0.00    +0.079 A 
ATOM     12  C   UNL     1      34.633 -24.354 -13.042  0.00  0.00    +0.328 A 
ATOM     13  C   UNL     1      36.726 -25.272 -12.871  0.00  0.00    +0.076 A 
ATOM     14  C   UNL     1      37.735 -24.587 -14.960  0.00  0.00    +0.019 C 
ATOM     15  C   UNL     1      37.856 -25.939 -12.450  0.00  0.00    +0.019 C 
ATOM     16  C   UNL     1      38.895 -25.257 -14.555  0.00  0.00    +0.002 C 
ATOM     17  C   UNL     1      38.954 -25.925 -13.314  0.00  0.00    +0.002 C 
ATOM     18  H   UNL     1      35.275 -25.495 -11.335  0.00  0.00    +0.170 HD
ENDBRANCH   2   9
BRANCH   1  19
ATOM     19  C   UNL     1      33.894 -22.373 -19.404  0.00  0.00    -0.077 C 
BRANCH  19  20
ATOM     20  C   UNL     1      34.962 -21.391 -19.890  0.00  0.00    -0.015 C 
BRANCH  20  21
ATOM     21  C   UNL     1      34.377 -20.284 -20.770  0.00  0.00    +0.067 C 
BRANCH  21  23
ATOM     22  O   UNL     1      36.502 -19.141 -20.716  0.00  0.00    -0.291 OA
ATOM     23  C   UNL     1      35.421 -19.301 -21.280  0.00  0.00    +0.173 C 
BRANCH  23  25
ATOM     24  F   UNL     1      34.312 -16.388 -25.912  0.00  0.00    -0.204 F 
ATOM     25  C   UNL     1      35.126 -18.523 -22.516  0.00  0.00    +0.035 C 
ATOM     26  C   UNL     1      34.568 -19.178 -23.591  0.00  0.00    +0.005 C 
ATOM     27  C   UNL     1      35.420 -17.178 -22.538  0.00  0.00    +0.005 C 
ATOM     28  C   UNL     1      34.291 -18.451 -24.749  0.00  0.00    +0.030 C 
ATOM     29  C   UNL     1      35.143 -16.451 -23.695  0.00  0.00    +0.030 C 
ATOM     30  C   UNL     1      34.578 -17.086 -24.800  0.00  0.00    +0.140 C 
ENDBRANCH  23  25
ENDBRANCH  21  23
ENDBRANCH  20  21
ENDBRANCH  19  20
ENDBRANCH   1  19
TORSDOF 6
ENDMDL
MODEL 7
REMARK VINA RESULT:     -10.7      5.113     11.070
REMARK  Name = 16363
REMARK  6 active torsions:
REMARK  status: ('A' for Active; 'I' for Inactive)
REMARK    1  A    between atoms: N_1  and  C_19
REMARK    2  A    between atoms: C_2  and  N_9
REMARK    3  A    between atoms: C_19  and  C_20
REMARK    4  A    between atoms: C_20  and  C_21
REMARK    5  A    between atoms: C_21  and  C_23
REMARK    6  A    between atoms: C_23  and  C_25
REMARK                            x       y       z     vdW  Elec       q    Type
REMARK                         _______ _______ _______ _____ _____    ______ ____
ROOT
ATOM      1  N   UNL     1      34.837 -21.080 -19.544  0.00  0.00    +0.387 N 
ATOM      2  C   UNL     1      34.320 -23.318 -17.731  0.00  0.00    +0.086 C 
ATOM      3  C   UNL     1      35.606 -22.493 -17.666  0.00  0.00    -0.000 C 
ATOM      4  C   UNL     1      33.193 -22.489 -18.347  0.00  0.00    -0.000 C 
ATOM      5  C   UNL     1      35.949 -21.890 -19.029  0.00  0.00    -0.075 C 
ATOM      6  C   UNL     1      33.615 -21.885 -19.687  0.00  0.00    -0.075 C 
ATOM      7  H   UNL     1      34.647 -20.340 -18.869  0.00  0.00    -0.080 HD
ENDROOT
BRANCH   2   9
ATOM      8  O   UNL     1      36.007 -24.701 -15.649  0.00  0.00    -0.247 OA
ATOM      9  N   UNL     1      33.947 -23.804 -16.427  0.00  0.00    -0.282 N 
ATOM     10  N   UNL     1      34.020 -24.747 -14.368  0.00  0.00    -0.305 N 
ATOM     11  C   UNL     1      32.667 -23.716 -15.863  0.00  0.00    +0.079 A 
ATOM     12  C   UNL     1      34.819 -24.448 -15.507  0.00  0.00    +0.328 A 
ATOM     13  C   UNL     1      32.720 -24.297 -14.598  0.00  0.00    +0.076 A 
ATOM     14  C   UNL     1      31.499 -23.180 -16.362  0.00  0.00    +0.019 C 
ATOM     15  C   UNL     1      31.619 -24.374 -13.774  0.00  0.00    +0.019 C 
ATOM     16  C   UNL     1      30.366 -23.245 -15.544  0.00  0.00    +0.002 C 
ATOM     17  C   UNL     1      30.426 -23.836 -14.264  0.00  0.00    +0.002 C 
ATOM     18  H   UNL     1      34.334 -25.197 -13.550  0.00  0.00    +0.170 HD
ENDBRANCH   2   9
BRANCH   1  19
ATOM     19  C   UNL     1      35.199 -20.469 -20.823  0.00  0.00    -0.077 C 
BRANCH  19  20
ATOM     20  C   UNL     1      36.597 -19.853 -20.738  0.00  0.00    -0.015 C 
BRANCH  20  21
ATOM     21  C   UNL     1      36.807 -18.742 -21.769  0.00  0.00    +0.067 C 
BRANCH  21  23
ATOM     22  O   UNL     1      35.392 -17.129 -20.663  0.00  0.00    -0.291 OA
ATOM     23  C   UNL     1      35.739 -17.659 -21.717  0.00  0.00    +0.173 C 
BRANCH  23  25
ATOM     24  F   UNL     1      33.377 -15.997 -26.495  0.00  0.00    -0.204 F 
ATOM     25  C   UNL     1      35.109 -17.214 -22.992  0.00  0.00    +0.035 C 
ATOM     26  C   UNL     1      34.875 -18.151 -23.974  0.00  0.00    +0.005 C 
ATOM     27  C   UNL     1      34.783 -15.885 -23.142  0.00  0.00    +0.005 C 
ATOM     28  C   UNL     1      34.284 -17.736 -25.168  0.00  0.00    +0.030 C 
ATOM     29  C   UNL     1      34.193 -15.470 -24.335  0.00  0.00    +0.030 C 
ATOM     30  C   UNL     1      33.943 -16.395 -25.348  0.00  0.00    +0.140 C 
ENDBRANCH  23  25
ENDBRANCH  21  23
ENDBRANCH  20  21
ENDBRANCH  19  20
ENDBRANCH   1  19
TORSDOF 6
ENDMDL
MODEL 8
REMARK VINA RESULT:     -10.7      4.738     10.631
REMARK  Name = 16363
REMARK  6 active torsions:
REMARK  status: ('A' for Active; 'I' for Inactive)
REMARK    1  A    between atoms: N_1  and  C_19
REMARK    2  A    between atoms: C_2  and  N_9
REMARK    3  A    between atoms: C_19  and  C_20
REMARK    4  A    between atoms: C_20  and  C_21
REMARK    5  A    between atoms: C_21  and  C_23
REMARK    6  A    between atoms: C_23  and  C_25
REMARK                            x       y       z     vdW  Elec       q    Type
REMARK                         _______ _______ _______ _____ _____    ______ ____
ROOT
ATOM      1  N   UNL     1      31.912 -10.611 -22.790  0.00  0.00    +0.387 N 
ATOM      2  C   UNL     1      33.531 -13.022 -23.149  0.00  0.00    +0.086 C 
ATOM      3  C   UNL     1      32.198 -13.036 -22.399  0.00  0.00    -0.000 C 
ATOM      4  C   UNL     1      33.563 -11.861 -24.143  0.00  0.00    -0.000 C 
ATOM      5  C   UNL     1      31.897 -11.672 -21.774  0.00  0.00    -0.075 C 
ATOM      6  C   UNL     1      33.217 -10.535 -23.462  0.00  0.00    -0.075 C 
ATOM      7  H   UNL     1      31.209 -10.838 -23.493  0.00  0.00    -0.080 HD
ENDROOT
BRANCH   2   9
ATOM      8  O   UNL     1      32.836 -13.850 -25.964  0.00  0.00    -0.247 OA
ATOM      9  N   UNL     1      33.764 -14.277 -23.817  0.00  0.00    -0.282 N 
ATOM     10  N   UNL     1      33.823 -15.918 -25.379  0.00  0.00    -0.305 N 
ATOM     11  C   UNL     1      34.389 -15.395 -23.249  0.00  0.00    +0.079 A 
ATOM     12  C   UNL     1      33.398 -14.577 -25.157  0.00  0.00    +0.328 A 
ATOM     13  C   UNL     1      34.422 -16.399 -24.214  0.00  0.00    +0.076 A 
ATOM     14  C   UNL     1      34.913 -15.590 -21.989  0.00  0.00    +0.019 C 
ATOM     15  C   UNL     1      34.974 -17.638 -23.974  0.00  0.00    +0.019 C 
ATOM     16  C   UNL     1      35.481 -16.839 -21.719  0.00  0.00    +0.002 C 
ATOM     17  C   UNL     1      35.510 -17.853 -22.701  0.00  0.00    +0.002 C 
ATOM     18  H   UNL     1      33.714 -16.422 -26.217  0.00  0.00    +0.170 HD
ENDBRANCH   2   9
BRANCH   1  19
ATOM     19  C   UNL     1      31.572  -9.322 -22.188  0.00  0.00    -0.077 C 
BRANCH  19  20
ATOM     20  C   UNL     1      32.257  -9.177 -20.827  0.00  0.00    -0.015 C 
BRANCH  20  21
ATOM     21  C   UNL     1      33.040  -7.866 -20.708  0.00  0.00    +0.067 C 
BRANCH  21  23
ATOM     22  O   UNL     1      31.413  -6.099 -20.945  0.00  0.00    -0.291 OA
ATOM     23  C   UNL     1      32.375  -6.698 -21.422  0.00  0.00    +0.173 C 
BRANCH  23  25
ATOM     24  F   UNL     1      34.440  -5.049 -26.340  0.00  0.00    -0.204 F 
ATOM     25  C   UNL     1      32.927  -6.257 -22.735  0.00  0.00    +0.035 C 
ATOM     26  C   UNL     1      34.065  -6.868 -23.212  0.00  0.00    +0.005 C 
ATOM     27  C   UNL     1      32.278  -5.256 -23.422  0.00  0.00    +0.005 C 
ATOM     28  C   UNL     1      34.581  -6.457 -24.440  0.00  0.00    +0.030 C 
ATOM     29  C   UNL     1      32.794  -4.844 -24.650  0.00  0.00    +0.030 C 
ATOM     30  C   UNL     1      33.945  -5.444 -25.160  0.00  0.00    +0.140 C 
ENDBRANCH  23  25
ENDBRANCH  21  23
ENDBRANCH  20  21
ENDBRANCH  19  20
ENDBRANCH   1  19
TORSDOF 6
ENDMDL
MODEL 9
REMARK VINA RESULT:     -10.7      2.222      3.778
REMARK  Name = 16363
REMARK  6 active torsions:
REMARK  status: ('A' for Active; 'I' for Inactive)
REMARK    1  A    between atoms: N_1  and  C_19
REMARK    2  A    between atoms: C_2  and  N_9
REMARK    3  A    between atoms: C_19  and  C_20
REMARK    4  A    between atoms: C_20  and  C_21
REMARK    5  A    between atoms: C_21  and  C_23
REMARK    6  A    between atoms: C_23  and  C_25
REMARK                            x       y       z     vdW  Elec       q    Type
REMARK                         _______ _______ _______ _____ _____    ______ ____
ROOT
ATOM      1  N   UNL     1      33.383 -12.958 -22.865  0.00  0.00    +0.387 N 
ATOM      2  C   UNL     1      32.074 -10.399 -22.319  0.00  0.00    +0.086 C 
ATOM      3  C   UNL     1      31.971 -11.590 -21.365  0.00  0.00    -0.000 C 
ATOM      4  C   UNL     1      33.350 -10.501 -23.153  0.00  0.00    -0.000 C 
ATOM      5  C   UNL     1      32.122 -12.916 -22.113  0.00  0.00    -0.075 C 
ATOM      6  C   UNL     1      33.457 -11.863 -23.843  0.00  0.00    -0.075 C 
ATOM      7  H   UNL     1      34.149 -12.839 -22.203  0.00  0.00    -0.080 HD
ENDROOT
BRANCH   2   9
ATOM      8  O   UNL     1      32.593  -9.854 -19.398  0.00  0.00    -0.247 OA
ATOM      9  N   UNL     1      32.029  -9.152 -21.599  0.00  0.00    -0.282 N 
ATOM     10  N   UNL     1      32.130  -7.601 -19.949  0.00  0.00    -0.305 N 
ATOM     11  C   UNL     1      31.722  -7.903 -22.156  0.00  0.00    +0.079 A 
ATOM     12  C   UNL     1      32.292  -8.991 -20.211  0.00  0.00    +0.328 A 
ATOM     13  C   UNL     1      31.786  -6.955 -21.136  0.00  0.00    +0.076 A 
ATOM     14  C   UNL     1      31.400  -7.550 -23.449  0.00  0.00    +0.019 C 
ATOM     15  C   UNL     1      31.534  -5.619 -21.353  0.00  0.00    +0.019 C 
ATOM     16  C   UNL     1      31.141  -6.197 -23.696  0.00  0.00    +0.002 C 
ATOM     17  C   UNL     1      31.207  -5.243 -22.659  0.00  0.00    +0.002 C 
ATOM     18  H   UNL     1      32.244  -7.167 -19.073  0.00  0.00    +0.170 HD
ENDBRANCH   2   9
BRANCH   1  19
ATOM     19  C   UNL     1      33.537 -14.251 -23.533  0.00  0.00    -0.077 C 
BRANCH  19  20
ATOM     20  C   UNL     1      34.355 -15.203 -22.659  0.00  0.00    -0.015 C 
BRANCH  20  21
ATOM     21  C   UNL     1      35.322 -16.060 -23.481  0.00  0.00    +0.067 C 
BRANCH  21  23
ATOM     22  O   UNL     1      34.232 -17.924 -24.559  0.00  0.00    -0.291 OA
ATOM     23  C   UNL     1      34.888 -17.513 -23.604  0.00  0.00    +0.173 C 
BRANCH  23  25
ATOM     24  F   UNL     1      36.398 -21.100 -19.600  0.00  0.00    -0.204 F 
ATOM     25  C   UNL     1      35.290 -18.472 -22.535  0.00  0.00    +0.035 C 
ATOM     26  C   UNL     1      36.567 -18.393 -22.026  0.00  0.00    +0.005 C 
ATOM     27  C   UNL     1      34.371 -19.398 -22.097  0.00  0.00    +0.005 C 
ATOM     28  C   UNL     1      36.945 -19.289 -21.026  0.00  0.00    +0.030 C 
ATOM     29  C   UNL     1      34.749 -20.294 -21.097  0.00  0.00    +0.030 C 
ATOM     30  C   UNL     1      36.035 -20.240 -20.561  0.00  0.00    +0.140 C 
ENDBRANCH  23  25
ENDBRANCH  21  23
ENDBRANCH  20  21
ENDBRANCH  19  20
ENDBRANCH   1  19
TORSDOF 6
ENDMDL
