MODEL 1
REMARK VINA RESULT:     -12.3      0.000      0.000
REMARK  Name = 60870
REMARK  7 active torsions:
REMARK  status: ('A' for Active; 'I' for Inactive)
REMARK    1  A    between atoms: C_2  and  C_4
REMARK    2  A    between atoms: C_2  and  C_18
REMARK    3  A    between atoms: C_3  and  C_9
REMARK    4  A    between atoms: C_9  and  C_14
REMARK    5  A    between atoms: C_18  and  C_19
REMARK    6  A    between atoms: C_19  and  C_22
REMARK    7  A    between atoms: C_24  and  C_26
REMARK                            x       y       z     vdW  Elec       q    Type
REMARK                         _______ _______ _______ _____ _____    ______ ____
ROOT
ATOM      1  O   UNL     1      33.093 -14.549 -24.837  0.00  0.00    -0.291 OA
ATOM      2  C   UNL     1      33.566 -14.022 -23.809  0.00  0.00    +0.173 C 
ENDROOT
BRANCH   2   4
ATOM      3  C   UNL     1      33.305  -9.845 -23.206  0.00  0.00    -0.021 C 
ATOM      4  C   UNL     1      33.477 -12.585 -23.601  0.00  0.00    +0.035 C 
ATOM      5  C   UNL     1      32.520 -10.695 -22.441  0.00  0.00    -0.004 C 
ATOM      6  C   UNL     1      34.176 -10.342 -24.165  0.00  0.00    -0.004 C 
ATOM      7  C   UNL     1      32.606 -12.073 -22.640  0.00  0.00    +0.003 C 
ATOM      8  C   UNL     1      34.262 -11.721 -24.363  0.00  0.00    +0.003 C 
BRANCH   3   9
ATOM      9  C   UNL     1      33.213  -8.356 -22.991  0.00  0.00    +0.047 C 
BRANCH   9  14
ATOM     10  S   UNL     1      30.910  -6.862 -23.220  0.00  0.00    -0.048 S 
ATOM     11  O   UNL     1      33.024  -7.635 -20.084  0.00  0.00    -0.274 OA
ATOM     12  O   UNL     1      30.284  -4.544 -22.150  0.00  0.00    -0.263 OA
ATOM     13  N   UNL     1      31.668  -5.973 -20.948  0.00  0.00    -0.246 N 
ATOM     14  C   UNL     1      31.958  -7.970 -22.228  0.00  0.00    +0.137 C 
ATOM     15  C   UNL     1      32.293  -7.202 -20.968  0.00  0.00    +0.239 C 
ATOM     16  C   UNL     1      30.896  -5.592 -22.014  0.00  0.00    +0.279 C 
ATOM     17  H   UNL     1      31.775  -5.374 -20.175  0.00  0.00    +0.158 HD
ENDBRANCH   9  14
ENDBRANCH   3   9
ENDBRANCH   2   4
BRANCH   2  18
ATOM     18  C   UNL     1      34.248 -14.912 -22.753  0.00  0.00    +0.076 C 
BRANCH  18  19
ATOM     19  C   UNL     1      35.308 -15.850 -23.336  0.00  0.00    +0.066 C 
BRANCH  19  22
ATOM     20  O   UNL     1      34.431 -19.392 -23.211  0.00  0.00    -0.449 OA
ATOM     21  N   UNL     1      35.195 -17.791 -21.808  0.00  0.00    -0.373 NA
ATOM     22  C   UNL     1      35.008 -17.292 -23.056  0.00  0.00    +0.130 C 
ATOM     23  C   UNL     1      34.551 -18.232 -23.916  0.00  0.00    +0.216 C 
ATOM     24  C   UNL     1      34.835 -19.046 -21.959  0.00  0.00    +0.277 C 
ATOM     25  C   UNL     1      34.183 -18.273 -25.336  0.00  0.00    +0.055 C 
BRANCH  24  26
ATOM     26  C   UNL     1      34.807 -20.108 -20.992  0.00  0.00    +0.066 C 
ATOM     27  C   UNL     1      33.587 -20.638 -20.563  0.00  0.00    +0.006 C 
ATOM     28  C   UNL     1      36.001 -20.617 -20.473  0.00  0.00    +0.006 C 
ATOM     29  C   UNL     1      33.560 -21.669 -19.623  0.00  0.00    +0.000 C 
ATOM     30  C   UNL     1      35.974 -21.648 -19.532  0.00  0.00    +0.000 C 
ATOM     31  C   UNL     1      34.754 -22.173 -19.108  0.00  0.00    +0.000 C 
ENDBRANCH  24  26
ENDBRANCH  19  22
ENDBRANCH  18  19
ENDBRANCH   2  18
TORSDOF 7
ENDMDL
MODEL 2
REMARK VINA RESULT:     -12.2      5.079     11.828
REMARK  Name = 60870
REMARK  7 active torsions:
REMARK  status: ('A' for Active; 'I' for Inactive)
REMARK    1  A    between atoms: C_2  and  C_4
REMARK    2  A    between atoms: C_2  and  C_18
REMARK    3  A    between atoms: C_3  and  C_9
REMARK    4  A    between atoms: C_9  and  C_14
REMARK    5  A    between atoms: C_18  and  C_19
REMARK    6  A    between atoms: C_19  and  C_22
REMARK    7  A    between atoms: C_24  and  C_26
REMARK                            x       y       z     vdW  Elec       q    Type
REMARK                         _______ _______ _______ _____ _____    ______ ____
ROOT
ATOM      1  O   UNL     1      37.290 -19.289 -20.948  0.00  0.00    -0.291 OA
ATOM      2  C   UNL     1      36.079 -19.546 -21.108  0.00  0.00    +0.173 C 
ENDROOT
BRANCH   2   4
ATOM      3  C   UNL     1      34.170 -22.510 -18.776  0.00  0.00    -0.021 C 
ATOM      4  C   UNL     1      35.422 -20.565 -20.305  0.00  0.00    +0.035 C 
ATOM      5  C   UNL     1      35.545 -22.356 -18.688  0.00  0.00    -0.004 C 
ATOM      6  C   UNL     1      33.410 -21.709 -19.614  0.00  0.00    -0.004 C 
ATOM      7  C   UNL     1      36.175 -21.377 -19.458  0.00  0.00    +0.003 C 
ATOM      8  C   UNL     1      34.040 -20.730 -20.384  0.00  0.00    +0.003 C 
BRANCH   3   9
ATOM      9  C   UNL     1      33.489 -23.567 -17.944  0.00  0.00    +0.047 C 
BRANCH   9  14
ATOM     10  S   UNL     1      33.879 -23.863 -15.233  0.00  0.00    -0.048 S 
ATOM     11  O   UNL     1      30.676 -22.884 -17.152  0.00  0.00    -0.274 OA
ATOM     12  O   UNL     1      32.366 -25.020 -13.422  0.00  0.00    -0.263 OA
ATOM     13  N   UNL     1      31.327 -23.983 -15.224  0.00  0.00    -0.246 N 
ATOM     14  C   UNL     1      33.026 -23.023 -16.604  0.00  0.00    +0.137 C 
ATOM     15  C   UNL     1      31.551 -23.273 -16.386  0.00  0.00    +0.239 C 
ATOM     16  C   UNL     1      32.395 -24.388 -14.467  0.00  0.00    +0.279 C 
ATOM     17  H   UNL     1      30.409 -24.196 -14.941  0.00  0.00    +0.158 HD
ENDBRANCH   9  14
ENDBRANCH   3   9
ENDBRANCH   2   4
BRANCH   2  18
ATOM     18  C   UNL     1      35.279 -18.768 -22.170  0.00  0.00    +0.076 C 
BRANCH  18  19
ATOM     19  C   UNL     1      36.041 -17.578 -22.760  0.00  0.00    +0.066 C 
BRANCH  19  22
ATOM     20  O   UNL     1      33.710 -15.330 -24.446  0.00  0.00    -0.449 OA
ATOM     21  N   UNL     1      34.946 -15.370 -22.552  0.00  0.00    -0.373 NA
ATOM     22  C   UNL     1      35.120 -16.509 -23.269  0.00  0.00    +0.130 C 
ATOM     23  C   UNL     1      34.391 -16.509 -24.409  0.00  0.00    +0.216 C 
ATOM     24  C   UNL     1      34.096 -14.704 -23.301  0.00  0.00    +0.277 C 
ATOM     25  C   UNL     1      34.186 -17.433 -25.530  0.00  0.00    +0.055 C 
BRANCH  24  26
ATOM     26  C   UNL     1      33.512 -13.409 -23.085  0.00  0.00    +0.066 C 
ATOM     27  C   UNL     1      32.575 -13.220 -22.065  0.00  0.00    +0.006 C 
ATOM     28  C   UNL     1      33.877 -12.330 -23.896  0.00  0.00    +0.006 C 
ATOM     29  C   UNL     1      32.008 -11.962 -21.857  0.00  0.00    +0.000 C 
ATOM     30  C   UNL     1      33.310 -11.072 -23.688  0.00  0.00    +0.000 C 
ATOM     31  C   UNL     1      32.375 -10.889 -22.668  0.00  0.00    +0.000 C 
ENDBRANCH  24  26
ENDBRANCH  19  22
ENDBRANCH  18  19
ENDBRANCH   2  18
TORSDOF 7
ENDMDL
MODEL 3
REMARK VINA RESULT:     -11.9      6.355     10.639
REMARK  Name = 60870
REMARK  7 active torsions:
REMARK  status: ('A' for Active; 'I' for Inactive)
REMARK    1  A    between atoms: C_2  and  C_4
REMARK    2  A    between atoms: C_2  and  C_18
REMARK    3  A    between atoms: C_3  and  C_9
REMARK    4  A    between atoms: C_9  and  C_14
REMARK    5  A    between atoms: C_18  and  C_19
REMARK    6  A    between atoms: C_19  and  C_22
REMARK    7  A    between atoms: C_24  and  C_26
REMARK                            x       y       z     vdW  Elec       q    Type
REMARK                         _______ _______ _______ _____ _____    ______ ____
ROOT
ATOM      1  O   UNL     1      33.819 -24.335 -18.594  0.00  0.00    -0.291 OA
ATOM      2  C   UNL     1      33.560 -23.127 -18.416  0.00  0.00    +0.173 C 
ENDROOT
BRANCH   2   4
ATOM      3  C   UNL     1      35.193 -20.171 -20.960  0.00  0.00    -0.021 C 
ATOM      4  C   UNL     1      34.122 -22.109 -19.291  0.00  0.00    +0.035 C 
ATOM      5  C   UNL     1      33.816 -20.305 -20.868  0.00  0.00    -0.004 C 
ATOM      6  C   UNL     1      36.044 -20.988 -20.232  0.00  0.00    -0.004 C 
ATOM      7  C   UNL     1      33.277 -21.280 -20.028  0.00  0.00    +0.003 C 
ATOM      8  C   UNL     1      35.505 -21.963 -19.392  0.00  0.00    +0.003 C 
BRANCH   3   9
ATOM      9  C   UNL     1      35.776 -19.116 -21.867  0.00  0.00    +0.047 C 
BRANCH   9  14
ATOM     10  S   UNL     1      34.448 -18.792 -24.258  0.00  0.00    -0.048 S 
ATOM     11  O   UNL     1      35.373 -16.155 -21.596  0.00  0.00    -0.274 OA
ATOM     12  O   UNL     1      34.707 -16.934 -26.099  0.00  0.00    -0.263 OA
ATOM     13  N   UNL     1      35.071 -16.344 -23.881  0.00  0.00    -0.246 N 
ATOM     14  C   UNL     1      34.697 -18.279 -22.530  0.00  0.00    +0.137 C 
ATOM     15  C   UNL     1      35.087 -16.819 -22.586  0.00  0.00    +0.239 C 
ATOM     16  C   UNL     1      34.761 -17.197 -24.908  0.00  0.00    +0.279 C 
ATOM     17  H   UNL     1      35.280 -15.400 -24.066  0.00  0.00    +0.158 HD
ENDBRANCH   9  14
ENDBRANCH   3   9
ENDBRANCH   2   4
BRANCH   2  18
ATOM     18  C   UNL     1      32.632 -22.718 -17.257  0.00  0.00    +0.076 C 
BRANCH  18  19
ATOM     19  C   UNL     1      32.128 -23.904 -16.430  0.00  0.00    +0.066 C 
BRANCH  19  22
ATOM     20  O   UNL     1      33.418 -24.255 -13.032  0.00  0.00    -0.449 OA
ATOM     21  N   UNL     1      34.226 -24.139 -15.142  0.00  0.00    -0.373 NA
ATOM     22  C   UNL     1      32.872 -24.053 -15.136  0.00  0.00    +0.130 C 
ATOM     23  C   UNL     1      32.363 -24.120 -13.884  0.00  0.00    +0.216 C 
ATOM     24  C   UNL     1      34.497 -24.256 -13.861  0.00  0.00    +0.277 C 
ATOM     25  C   UNL     1      31.024 -24.084 -13.286  0.00  0.00    +0.055 C 
BRANCH  24  26
ATOM     26  C   UNL     1      35.770 -24.389 -13.208  0.00  0.00    +0.066 C 
ATOM     27  C   UNL     1      36.661 -25.392 -13.598  0.00  0.00    +0.006 C 
ATOM     28  C   UNL     1      36.124 -23.516 -12.175  0.00  0.00    +0.006 C 
ATOM     29  C   UNL     1      37.896 -25.522 -12.962  0.00  0.00    +0.000 C 
ATOM     30  C   UNL     1      37.359 -23.645 -11.539  0.00  0.00    +0.000 C 
ATOM     31  C   UNL     1      38.245 -24.648 -11.933  0.00  0.00    +0.000 C 
ENDBRANCH  24  26
ENDBRANCH  19  22
ENDBRANCH  18  19
ENDBRANCH   2  18
TORSDOF 7
ENDMDL
MODEL 4
REMARK VINA RESULT:     -11.6      1.497      1.878
REMARK  Name = 60870
REMARK  7 active torsions:
REMARK  status: ('A' for Active; 'I' for Inactive)
REMARK    1  A    between atoms: C_2  and  C_4
REMARK    2  A    between atoms: C_2  and  C_18
REMARK    3  A    between atoms: C_3  and  C_9
REMARK    4  A    between atoms: C_9  and  C_14
REMARK    5  A    between atoms: C_18  and  C_19
REMARK    6  A    between atoms: C_19  and  C_22
REMARK    7  A    between atoms: C_24  and  C_26
REMARK                            x       y       z     vdW  Elec       q    Type
REMARK                         _______ _______ _______ _____ _____    ______ ____
ROOT
ATOM      1  O   UNL     1      34.718 -15.156 -21.098  0.00  0.00    -0.291 OA
ATOM      2  C   UNL     1      34.242 -14.739 -22.174  0.00  0.00    +0.173 C 
ENDROOT
BRANCH   2   4
ATOM      3  C   UNL     1      31.995 -11.160 -22.306  0.00  0.00    -0.021 C 
ATOM      4  C   UNL     1      33.470 -13.507 -22.219  0.00  0.00    +0.035 C 
ATOM      5  C   UNL     1      31.731 -12.094 -21.315  0.00  0.00    -0.004 C 
ATOM      6  C   UNL     1      32.984 -11.379 -23.253  0.00  0.00    -0.004 C 
ATOM      7  C   UNL     1      32.473 -13.275 -21.271  0.00  0.00    +0.003 C 
ATOM      8  C   UNL     1      33.726 -12.560 -23.209  0.00  0.00    +0.003 C 
BRANCH   3   9
ATOM      9  C   UNL     1      31.195  -9.883 -22.353  0.00  0.00    +0.047 C 
BRANCH   9  14
ATOM     10  S   UNL     1      32.805  -8.185 -20.900  0.00  0.00    -0.048 S 
ATOM     11  O   UNL     1      30.639  -7.442 -24.006  0.00  0.00    -0.274 OA
ATOM     12  O   UNL     1      32.368  -5.725 -20.084  0.00  0.00    -0.263 OA
ATOM     13  N   UNL     1      31.422  -6.401 -22.096  0.00  0.00    -0.246 N 
ATOM     14  C   UNL     1      32.084  -8.661 -22.501  0.00  0.00    +0.137 C 
ATOM     15  C   UNL     1      31.296  -7.459 -22.972  0.00  0.00    +0.239 C 
ATOM     16  C   UNL     1      32.164  -6.557 -20.954  0.00  0.00    +0.279 C 
ATOM     17  H   UNL     1      30.982  -5.543 -22.288  0.00  0.00    +0.158 HD
ENDBRANCH   9  14
ENDBRANCH   3   9
ENDBRANCH   2   4
BRANCH   2  18
ATOM     18  C   UNL     1      34.482 -15.545 -23.465  0.00  0.00    +0.076 C 
BRANCH  18  19
ATOM     19  C   UNL     1      35.627 -16.555 -23.351  0.00  0.00    +0.066 C 
BRANCH  19  22
ATOM     20  O   UNL     1      34.263 -19.915 -22.921  0.00  0.00    -0.449 OA
ATOM     21  N   UNL     1      35.349 -18.363 -21.686  0.00  0.00    -0.373 NA
ATOM     22  C   UNL     1      35.145 -17.918 -22.951  0.00  0.00    +0.130 C 
ATOM     23  C   UNL     1      34.495 -18.830 -23.712  0.00  0.00    +0.216 C 
ATOM     24  C   UNL     1      34.803 -19.557 -21.725  0.00  0.00    +0.277 C 
ATOM     25  C   UNL     1      34.023 -18.902 -25.099  0.00  0.00    +0.055 C 
BRANCH  24  26
ATOM     26  C   UNL     1      34.694 -20.544 -20.686  0.00  0.00    +0.066 C 
ATOM     27  C   UNL     1      33.437 -20.969 -20.247  0.00  0.00    +0.006 C 
ATOM     28  C   UNL     1      35.846 -21.082 -20.105  0.00  0.00    +0.006 C 
ATOM     29  C   UNL     1      33.332 -21.926 -19.237  0.00  0.00    +0.000 C 
ATOM     30  C   UNL     1      35.741 -22.039 -19.094  0.00  0.00    +0.000 C 
ATOM     31  C   UNL     1      34.484 -22.460 -18.661  0.00  0.00    +0.000 C 
ENDBRANCH  24  26
ENDBRANCH  19  22
ENDBRANCH  18  19
ENDBRANCH   2  18
TORSDOF 7
ENDMDL
MODEL 5
REMARK VINA RESULT:     -11.4      5.721      9.619
REMARK  Name = 60870
REMARK  7 active torsions:
REMARK  status: ('A' for Active; 'I' for Inactive)
REMARK    1  A    between atoms: C_2  and  C_4
REMARK    2  A    between atoms: C_2  and  C_18
REMARK    3  A    between atoms: C_3  and  C_9
REMARK    4  A    between atoms: C_9  and  C_14
REMARK    5  A    between atoms: C_18  and  C_19
REMARK    6  A    between atoms: C_19  and  C_22
REMARK    7  A    between atoms: C_24  and  C_26
REMARK                            x       y       z     vdW  Elec       q    Type
REMARK                         _______ _______ _______ _____ _____    ______ ____
ROOT
ATOM      1  O   UNL     1      36.447 -22.148 -18.095  0.00  0.00    -0.291 OA
ATOM      2  C   UNL     1      35.596 -22.040 -19.001  0.00  0.00    +0.173 C 
ENDROOT
BRANCH   2   4
ATOM      3  C   UNL     1      35.882 -18.959 -21.881  0.00  0.00    -0.021 C 
ATOM      4  C   UNL     1      35.694 -20.980 -19.993  0.00  0.00    +0.035 C 
ATOM      5  C   UNL     1      37.022 -19.367 -21.205  0.00  0.00    -0.004 C 
ATOM      6  C   UNL     1      34.650 -19.544 -21.630  0.00  0.00    -0.004 C 
ATOM      7  C   UNL     1      36.927 -20.385 -20.255  0.00  0.00    +0.003 C 
ATOM      8  C   UNL     1      34.556 -20.561 -20.680  0.00  0.00    +0.003 C 
BRANCH   3   9
ATOM      9  C   UNL     1      35.984 -17.860 -22.909  0.00  0.00    +0.047 C 
BRANCH   9  14
ATOM     10  S   UNL     1      34.135 -17.916 -24.950  0.00  0.00    -0.048 S 
ATOM     11  O   UNL     1      34.954 -15.077 -22.467  0.00  0.00    -0.274 OA
ATOM     12  O   UNL     1      33.542 -16.090 -26.746  0.00  0.00    -0.263 OA
ATOM     13  N   UNL     1      34.222 -15.382 -24.639  0.00  0.00    -0.246 N 
ATOM     14  C   UNL     1      34.620 -17.321 -23.300  0.00  0.00    +0.137 C 
ATOM     15  C   UNL     1      34.628 -15.811 -23.393  0.00  0.00    +0.239 C 
ATOM     16  C   UNL     1      33.912 -16.306 -25.602  0.00  0.00    +0.279 C 
ATOM     17  H   UNL     1      34.155 -14.420 -24.835  0.00  0.00    +0.158 HD
ENDBRANCH   9  14
ENDBRANCH   3   9
ENDBRANCH   2   4
BRANCH   2  18
ATOM     18  C   UNL     1      34.431 -23.046 -19.063  0.00  0.00    +0.076 C 
BRANCH  18  19
ATOM     19  C   UNL     1      33.334 -22.775 -18.030  0.00  0.00    +0.066 C 
BRANCH  19  22
ATOM     20  O   UNL     1      33.423 -24.354 -14.739  0.00  0.00    -0.449 OA
ATOM     21  N   UNL     1      34.846 -23.918 -16.442  0.00  0.00    -0.373 NA
ATOM     22  C   UNL     1      33.600 -23.461 -16.723  0.00  0.00    +0.130 C 
ATOM     23  C   UNL     1      32.728 -23.710 -15.718  0.00  0.00    +0.216 C 
ATOM     24  C   UNL     1      34.682 -24.440 -15.247  0.00  0.00    +0.277 C 
ATOM     25  C   UNL     1      31.304 -23.458 -15.470  0.00  0.00    +0.055 C 
BRANCH  24  26
ATOM     26  C   UNL     1      35.641 -25.091 -14.398  0.00  0.00    +0.066 C 
ATOM     27  C   UNL     1      36.456 -26.107 -14.905  0.00  0.00    +0.006 C 
ATOM     28  C   UNL     1      35.764 -24.713 -13.057  0.00  0.00    +0.006 C 
ATOM     29  C   UNL     1      37.386 -26.740 -14.080  0.00  0.00    +0.000 C 
ATOM     30  C   UNL     1      36.694 -25.346 -12.232  0.00  0.00    +0.000 C 
ATOM     31  C   UNL     1      37.504 -26.360 -12.744  0.00  0.00    +0.000 C 
ENDBRANCH  24  26
ENDBRANCH  19  22
ENDBRANCH  18  19
ENDBRANCH   2  18
TORSDOF 7
ENDMDL
MODEL 6
REMARK VINA RESULT:     -11.2      3.654     11.149
REMARK  Name = 60870
REMARK  7 active torsions:
REMARK  status: ('A' for Active; 'I' for Inactive)
REMARK    1  A    between atoms: C_2  and  C_4
REMARK    2  A    between atoms: C_2  and  C_18
REMARK    3  A    between atoms: C_3  and  C_9
REMARK    4  A    between atoms: C_9  and  C_14
REMARK    5  A    between atoms: C_18  and  C_19
REMARK    6  A    between atoms: C_19  and  C_22
REMARK    7  A    between atoms: C_24  and  C_26
REMARK                            x       y       z     vdW  Elec       q    Type
REMARK                         _______ _______ _______ _____ _____    ______ ____
ROOT
ATOM      1  O   UNL     1      33.977 -15.433 -26.650  0.00  0.00    -0.291 OA
ATOM      2  C   UNL     1      33.779 -15.511 -25.420  0.00  0.00    +0.173 C 
ENDROOT
BRANCH   2   4
ATOM      3  C   UNL     1      34.940 -18.956 -23.260  0.00  0.00    -0.021 C 
ATOM      4  C   UNL     1      34.178 -16.697 -24.676  0.00  0.00    +0.035 C 
ATOM      5  C   UNL     1      35.309 -17.703 -22.794  0.00  0.00    -0.004 C 
ATOM      6  C   UNL     1      34.195 -19.099 -24.421  0.00  0.00    -0.004 C 
ATOM      7  C   UNL     1      34.926 -16.566 -23.507  0.00  0.00    +0.003 C 
ATOM      8  C   UNL     1      33.812 -17.962 -25.134  0.00  0.00    +0.003 C 
BRANCH   3   9
ATOM      9  C   UNL     1      35.353 -20.184 -22.489  0.00  0.00    +0.047 C 
BRANCH   9  14
ATOM     10  S   UNL     1      36.264 -21.000 -20.022  0.00  0.00    -0.048 S 
ATOM     11  O   UNL     1      32.661 -20.215 -21.162  0.00  0.00    -0.274 OA
ATOM     12  O   UNL     1      35.282 -22.786 -18.361  0.00  0.00    -0.263 OA
ATOM     13  N   UNL     1      33.799 -21.579 -19.682  0.00  0.00    -0.246 N 
ATOM     14  C   UNL     1      35.067 -20.045 -21.005  0.00  0.00    +0.137 C 
ATOM     15  C   UNL     1      33.706 -20.600 -20.649  0.00  0.00    +0.239 C 
ATOM     16  C   UNL     1      35.033 -21.942 -19.208  0.00  0.00    +0.279 C 
ATOM     17  H   UNL     1      32.987 -22.012 -19.334  0.00  0.00    +0.158 HD
ENDBRANCH   9  14
ENDBRANCH   3   9
ENDBRANCH   2   4
BRANCH   2  18
ATOM     18  C   UNL     1      33.108 -14.333 -24.689  0.00  0.00    +0.076 C 
BRANCH  18  19
ATOM     19  C   UNL     1      34.101 -13.414 -23.971  0.00  0.00    +0.066 C 
BRANCH  19  22
ATOM     20  O   UNL     1      32.259 -10.720 -22.334  0.00  0.00    -0.449 OA
ATOM     21  N   UNL     1      33.724 -10.971 -24.039  0.00  0.00    -0.373 NA
ATOM     22  C   UNL     1      33.449 -12.165 -23.456  0.00  0.00    +0.130 C 
ATOM     23  C   UNL     1      32.574 -12.042 -22.431  0.00  0.00    +0.216 C 
ATOM     24  C   UNL     1      32.986 -10.146 -23.330  0.00  0.00    +0.277 C 
ATOM     25  C   UNL     1      31.937 -12.952 -21.473  0.00  0.00    +0.055 C 
BRANCH  24  26
ATOM     26  C   UNL     1      32.837  -8.722 -23.453  0.00  0.00    +0.066 C 
ATOM     27  C   UNL     1      31.572  -8.136 -23.364  0.00  0.00    +0.006 C 
ATOM     28  C   UNL     1      33.959  -7.914 -23.665  0.00  0.00    +0.006 C 
ATOM     29  C   UNL     1      31.427  -6.754 -23.485  0.00  0.00    +0.000 C 
ATOM     30  C   UNL     1      33.814  -6.532 -23.786  0.00  0.00    +0.000 C 
ATOM     31  C   UNL     1      32.549  -5.952 -23.696  0.00  0.00    +0.000 C 
ENDBRANCH  24  26
ENDBRANCH  19  22
ENDBRANCH  18  19
ENDBRANCH   2  18
TORSDOF 7
ENDMDL
MODEL 7
REMARK VINA RESULT:     -11.1      3.438     11.324
REMARK  Name = 60870
REMARK  7 active torsions:
REMARK  status: ('A' for Active; 'I' for Inactive)
REMARK    1  A    between atoms: C_2  and  C_4
REMARK    2  A    between atoms: C_2  and  C_18
REMARK    3  A    between atoms: C_3  and  C_9
REMARK    4  A    between atoms: C_9  and  C_14
REMARK    5  A    between atoms: C_18  and  C_19
REMARK    6  A    between atoms: C_19  and  C_22
REMARK    7  A    between atoms: C_24  and  C_26
REMARK                            x       y       z     vdW  Elec       q    Type
REMARK                         _______ _______ _______ _____ _____    ______ ____
ROOT
ATOM      1  O   UNL     1      33.470 -14.848 -25.004  0.00  0.00    -0.291 OA
ATOM      2  C   UNL     1      33.961 -14.636 -23.876  0.00  0.00    +0.173 C 
ENDROOT
BRANCH   2   4
ATOM      3  C   UNL     1      35.630 -17.795 -21.615  0.00  0.00    -0.021 C 
ATOM      4  C   UNL     1      34.537 -15.722 -23.098  0.00  0.00    +0.035 C 
ATOM      5  C   UNL     1      35.501 -17.934 -22.989  0.00  0.00    -0.004 C 
ATOM      6  C   UNL     1      35.223 -16.637 -20.970  0.00  0.00    -0.004 C 
ATOM      7  C   UNL     1      34.951 -16.892 -23.735  0.00  0.00    +0.003 C 
ATOM      8  C   UNL     1      34.673 -15.594 -21.716  0.00  0.00    +0.003 C 
BRANCH   3   9
ATOM      9  C   UNL     1      36.225 -18.921 -20.809  0.00  0.00    +0.047 C 
BRANCH   9  14
ATOM     10  S   UNL     1      33.753 -20.120 -20.994  0.00  0.00    -0.048 S 
ATOM     11  O   UNL     1      37.131 -21.635 -19.906  0.00  0.00    -0.274 OA
ATOM     12  O   UNL     1      32.549 -21.779 -19.349  0.00  0.00    -0.263 OA
ATOM     13  N   UNL     1      34.866 -21.868 -19.501  0.00  0.00    -0.246 N 
ATOM     14  C   UNL     1      35.563 -20.252 -21.118  0.00  0.00    +0.137 C 
ATOM     15  C   UNL     1      35.967 -21.315 -20.120  0.00  0.00    +0.239 C 
ATOM     16  C   UNL     1      33.615 -21.400 -19.808  0.00  0.00    +0.279 C 
ATOM     17  H   UNL     1      34.978 -22.592 -18.844  0.00  0.00    +0.158 HD
ENDBRANCH   9  14
ENDBRANCH   3   9
ENDBRANCH   2   4
BRANCH   2  18
ATOM     18  C   UNL     1      33.956 -13.203 -23.310  0.00  0.00    +0.076 C 
BRANCH  18  19
ATOM     19  C   UNL     1      32.654 -12.833 -22.594  0.00  0.00    +0.066 C 
BRANCH  19  22
ATOM     20  O   UNL     1      31.709  -9.342 -22.097  0.00  0.00    -0.449 OA
ATOM     21  N   UNL     1      33.127 -10.540 -23.390  0.00  0.00    -0.373 NA
ATOM     22  C   UNL     1      32.424 -11.352 -22.560  0.00  0.00    +0.130 C 
ATOM     23  C   UNL     1      31.567 -10.658 -21.775  0.00  0.00    +0.216 C 
ATOM     24  C   UNL     1      32.659  -9.353 -23.071  0.00  0.00    +0.277 C 
ATOM     25  C   UNL     1      30.592 -10.987 -20.730  0.00  0.00    +0.055 C 
BRANCH  24  26
ATOM     26  C   UNL     1      33.008  -8.065 -23.601  0.00  0.00    +0.066 C 
ATOM     27  C   UNL     1      32.013  -7.117 -23.860  0.00  0.00    +0.006 C 
ATOM     28  C   UNL     1      34.345  -7.751 -23.864  0.00  0.00    +0.006 C 
ATOM     29  C   UNL     1      32.352  -5.866 -24.376  0.00  0.00    +0.000 C 
ATOM     30  C   UNL     1      34.683  -6.500 -24.381  0.00  0.00    +0.000 C 
ATOM     31  C   UNL     1      33.686  -5.558 -24.637  0.00  0.00    +0.000 C 
ENDBRANCH  24  26
ENDBRANCH  19  22
ENDBRANCH  18  19
ENDBRANCH   2  18
TORSDOF 7
ENDMDL
MODEL 8
REMARK VINA RESULT:     -11.1      3.489     11.102
REMARK  Name = 60870
REMARK  7 active torsions:
REMARK  status: ('A' for Active; 'I' for Inactive)
REMARK    1  A    between atoms: C_2  and  C_4
REMARK    2  A    between atoms: C_2  and  C_18
REMARK    3  A    between atoms: C_3  and  C_9
REMARK    4  A    between atoms: C_9  and  C_14
REMARK    5  A    between atoms: C_18  and  C_19
REMARK    6  A    between atoms: C_19  and  C_22
REMARK    7  A    between atoms: C_24  and  C_26
REMARK                            x       y       z     vdW  Elec       q    Type
REMARK                         _______ _______ _______ _____ _____    ______ ____
ROOT
ATOM      1  O   UNL     1      33.833 -15.367 -25.361  0.00  0.00    -0.291 OA
ATOM      2  C   UNL     1      34.118 -15.115 -24.173  0.00  0.00    +0.173 C 
ENDROOT
BRANCH   2   4
ATOM      3  C   UNL     1      35.653 -18.126 -21.632  0.00  0.00    -0.021 C 
ATOM      4  C   UNL     1      34.645 -16.152 -23.298  0.00  0.00    +0.035 C 
ATOM      5  C   UNL     1      35.351 -16.879 -21.105  0.00  0.00    -0.004 C 
ATOM      6  C   UNL     1      35.460 -18.403 -22.977  0.00  0.00    -0.004 C 
ATOM      7  C   UNL     1      34.844 -15.886 -21.944  0.00  0.00    +0.003 C 
ATOM      8  C   UNL     1      34.953 -17.410 -23.815  0.00  0.00    +0.003 C 
BRANCH   3   9
ATOM      9  C   UNL     1      36.200 -19.200 -20.726  0.00  0.00    +0.047 C 
BRANCH   9  14
ATOM     10  S   UNL     1      33.703 -20.359 -20.824  0.00  0.00    -0.048 S 
ATOM     11  O   UNL     1      37.058 -21.869 -19.657  0.00  0.00    -0.274 OA
ATOM     12  O   UNL     1      32.477 -21.887 -19.071  0.00  0.00    -0.263 OA
ATOM     13  N   UNL     1      34.791 -22.031 -19.228  0.00  0.00    -0.246 N 
ATOM     14  C   UNL     1      35.510 -20.534 -20.947  0.00  0.00    +0.137 C 
ATOM     15  C   UNL     1      35.900 -21.540 -19.886  0.00  0.00    +0.239 C 
ATOM     16  C   UNL     1      33.548 -21.559 -19.558  0.00  0.00    +0.279 C 
ATOM     17  H   UNL     1      34.893 -22.714 -18.527  0.00  0.00    +0.158 HD
ENDBRANCH   9  14
ENDBRANCH   3   9
ENDBRANCH   2   4
BRANCH   2  18
ATOM     18  C   UNL     1      33.909 -13.687 -23.634  0.00  0.00    +0.076 C 
BRANCH  18  19
ATOM     19  C   UNL     1      33.486 -12.684 -24.711  0.00  0.00    +0.066 C 
BRANCH  19  22
ATOM     20  O   UNL     1      34.411  -9.215 -24.046  0.00  0.00    -0.449 OA
ATOM     21  N   UNL     1      32.900 -10.730 -23.313  0.00  0.00    -0.373 NA
ATOM     22  C   UNL     1      33.692 -11.263 -24.277  0.00  0.00    +0.130 C 
ATOM     23  C   UNL     1      34.606 -10.375 -24.733  0.00  0.00    +0.216 C 
ATOM     24  C   UNL     1      33.374  -9.508 -23.215  0.00  0.00    +0.277 C 
ATOM     25  C   UNL     1      35.681 -10.386 -25.732  0.00  0.00    +0.055 C 
BRANCH  24  26
ATOM     26  C   UNL     1      32.955  -8.435 -22.358  0.00  0.00    +0.066 C 
ATOM     27  C   UNL     1      32.556  -8.696 -21.045  0.00  0.00    +0.006 C 
ATOM     28  C   UNL     1      32.941  -7.120 -22.834  0.00  0.00    +0.006 C 
ATOM     29  C   UNL     1      32.147  -7.653 -20.213  0.00  0.00    +0.000 C 
ATOM     30  C   UNL     1      32.532  -6.077 -22.003  0.00  0.00    +0.000 C 
ATOM     31  C   UNL     1      32.135  -6.344 -20.692  0.00  0.00    +0.000 C 
ENDBRANCH  24  26
ENDBRANCH  19  22
ENDBRANCH  18  19
ENDBRANCH   2  18
TORSDOF 7
ENDMDL
MODEL 9
REMARK VINA RESULT:     -11.1      4.098     11.342
REMARK  Name = 60870
REMARK  7 active torsions:
REMARK  status: ('A' for Active; 'I' for Inactive)
REMARK    1  A    between atoms: C_2  and  C_4
REMARK    2  A    between atoms: C_2  and  C_18
REMARK    3  A    between atoms: C_3  and  C_9
REMARK    4  A    between atoms: C_9  and  C_14
REMARK    5  A    between atoms: C_18  and  C_19
REMARK    6  A    between atoms: C_19  and  C_22
REMARK    7  A    between atoms: C_24  and  C_26
REMARK                            x       y       z     vdW  Elec       q    Type
REMARK                         _______ _______ _______ _____ _____    ______ ____
ROOT
ATOM      1  O   UNL     1      34.986 -15.956 -25.137  0.00  0.00    -0.291 OA
ATOM      2  C   UNL     1      34.870 -16.020 -23.896  0.00  0.00    +0.173 C 
ENDROOT
BRANCH   2   4
ATOM      3  C   UNL     1      35.236 -19.716 -21.877  0.00  0.00    -0.021 C 
ATOM      4  C   UNL     1      34.997 -17.292 -23.201  0.00  0.00    +0.035 C 
ATOM      5  C   UNL     1      34.799 -19.699 -23.193  0.00  0.00    -0.004 C 
ATOM      6  C   UNL     1      35.555 -18.542 -21.211  0.00  0.00    -0.004 C 
ATOM      7  C   UNL     1      34.679 -18.479 -23.859  0.00  0.00    +0.003 C 
ATOM      8  C   UNL     1      35.435 -17.322 -21.878  0.00  0.00    +0.003 C 
BRANCH   3   9
ATOM      9  C   UNL     1      35.367 -21.034 -21.157  0.00  0.00    +0.047 C 
BRANCH   9  14
ATOM     10  S   UNL     1      35.467 -22.236 -18.680  0.00  0.00    -0.048 S 
ATOM     11  O   UNL     1      32.442 -20.739 -20.552  0.00  0.00    -0.274 OA
ATOM     12  O   UNL     1      33.842 -23.986 -17.581  0.00  0.00    -0.263 OA
ATOM     13  N   UNL     1      32.945 -22.418 -19.044  0.00  0.00    -0.246 N 
ATOM     14  C   UNL     1      34.719 -20.998 -19.784  0.00  0.00    +0.137 C 
ATOM     15  C   UNL     1      33.249 -21.346 -19.857  0.00  0.00    +0.239 C 
ATOM     16  C   UNL     1      33.946 -23.031 -18.336  0.00  0.00    +0.279 C 
ATOM     17  H   UNL     1      32.018 -22.740 -18.972  0.00  0.00    +0.158 HD
ENDBRANCH   9  14
ENDBRANCH   3   9
ENDBRANCH   2   4
BRANCH   2  18
ATOM     18  C   UNL     1      34.591 -14.732 -23.098  0.00  0.00    +0.076 C 
BRANCH  18  19
ATOM     19  C   UNL     1      33.225 -14.109 -23.400  0.00  0.00    +0.066 C 
BRANCH  19  22
ATOM     20  O   UNL     1      33.573 -10.987 -25.261  0.00  0.00    -0.449 OA
ATOM     21  N   UNL     1      33.263 -11.652 -23.121  0.00  0.00    -0.373 NA
ATOM     22  C   UNL     1      33.343 -12.720 -23.954  0.00  0.00    +0.130 C 
ATOM     23  C   UNL     1      33.529 -12.348 -25.242  0.00  0.00    +0.216 C 
ATOM     24  C   UNL     1      33.407 -10.646 -23.954  0.00  0.00    +0.277 C 
ATOM     25  C   UNL     1      33.681 -13.039 -26.528  0.00  0.00    +0.055 C 
BRANCH  24  26
ATOM     26  C   UNL     1      33.413  -9.234 -23.685  0.00  0.00    +0.066 C 
ATOM     27  C   UNL     1      32.221  -8.569 -23.386  0.00  0.00    +0.006 C 
ATOM     28  C   UNL     1      34.613  -8.517 -23.724  0.00  0.00    +0.006 C 
ATOM     29  C   UNL     1      32.227  -7.198 -23.126  0.00  0.00    +0.000 C 
ATOM     30  C   UNL     1      34.619  -7.146 -23.464  0.00  0.00    +0.000 C 
ATOM     31  C   UNL     1      33.426  -6.487 -23.166  0.00  0.00    +0.000 C 
ENDBRANCH  24  26
ENDBRANCH  19  22
ENDBRANCH  18  19
ENDBRANCH   2  18
TORSDOF 7
ENDMDL
