MODEL 1
REMARK VINA RESULT:     -10.9      0.000      0.000
REMARK  Name = 447767
REMARK  2 active torsions:
REMARK  status: ('A' for Active; 'I' for Inactive)
REMARK    1  A    between atoms: N_2  and  C_10
REMARK    2  A    between atoms: C_8  and  C_24
REMARK                            x       y       z     vdW  Elec       q    Type
REMARK                         _______ _______ _______ _____ _____    ______ ____
ROOT
ATOM      1  O   UNL     1      31.213 -12.629 -20.944  0.00  0.00    -0.270 OA
ATOM      2  N   UNL     1      32.574  -8.319 -23.046  0.00  0.00    +0.396 N 
ATOM      3  N   UNL     1      32.042 -11.076 -22.483  0.00  0.00    -0.280 N 
ATOM      4  C   UNL     1      33.602  -9.340 -23.298  0.00  0.00    -0.054 C 
ATOM      5  C   UNL     1      31.745  -8.698 -21.893  0.00  0.00    -0.054 C 
ATOM      6  C   UNL     1      32.968 -10.707 -23.561  0.00  0.00    +0.071 C 
ATOM      7  C   UNL     1      31.067 -10.045 -22.137  0.00  0.00    +0.071 C 
ATOM      8  C   UNL     1      31.989 -12.319 -21.847  0.00  0.00    +0.249 C 
ATOM      9  H   UNL     1      31.974  -8.257 -23.869  0.00  0.00    -0.079 HD
ENDROOT
BRANCH   2  10
ATOM     10  C   UNL     1      33.191  -7.011 -22.827  0.00  0.00    -0.011 C 
ATOM     11  C   UNL     1      32.171  -5.953 -22.427  0.00  0.00    -0.038 C 
ATOM     12  C   UNL     1      33.753  -6.417 -24.112  0.00  0.00    -0.038 C 
ATOM     13  C   UNL     1      32.160  -4.897 -23.367  0.00  0.00    -0.006 C 
ATOM     14  C   UNL     1      33.131  -5.182 -24.401  0.00  0.00    -0.006 C 
ATOM     15  C   UNL     1      31.346  -5.933 -21.314  0.00  0.00    -0.006 C 
ATOM     16  C   UNL     1      34.744  -6.932 -24.932  0.00  0.00    -0.006 C 
ATOM     17  C   UNL     1      31.310  -3.815 -23.202  0.00  0.00    -0.000 C 
ATOM     18  C   UNL     1      33.491  -4.456 -25.524  0.00  0.00    -0.000 C 
ATOM     19  C   UNL     1      30.490  -4.844 -21.148  0.00  0.00    -0.000 C 
ATOM     20  C   UNL     1      35.107  -6.200 -26.065  0.00  0.00    -0.000 C 
ATOM     21  C   UNL     1      30.471  -3.795 -22.083  0.00  0.00    -0.000 C 
ATOM     22  C   UNL     1      34.486  -4.975 -26.358  0.00  0.00    -0.000 C 
ENDBRANCH   2  10
BRANCH   8  24
ATOM     23  N   UNL     1      35.430 -16.291 -23.734  0.00  0.00    -0.312 N 
ATOM     24  C   UNL     1      32.926 -13.363 -22.285  0.00  0.00    +0.054 C 
ATOM     25  C   UNL     1      32.789 -13.916 -23.561  0.00  0.00    +0.006 C 
ATOM     26  C   UNL     1      33.935 -13.783 -21.425  0.00  0.00    +0.006 C 
ATOM     27  C   UNL     1      33.691 -14.915 -23.974  0.00  0.00    +0.015 C 
ATOM     28  C   UNL     1      34.696 -15.320 -23.093  0.00  0.00    +0.048 C 
ATOM     29  C   UNL     1      34.843 -14.772 -21.813  0.00  0.00    +0.015 C 
ATOM     30  C   UNL     1      33.849 -15.678 -25.165  0.00  0.00    +0.017 C 
ATOM     31  C   UNL     1      34.925 -16.515 -24.987  0.00  0.00    +0.062 C 
ATOM     32  H   UNL     1      36.206 -16.759 -23.347  0.00  0.00    +0.152 HD
ENDBRANCH   8  24
TORSDOF 2
ENDMDL
MODEL 2
REMARK VINA RESULT:      -9.8      4.162      7.315
REMARK  Name = 447767
REMARK  2 active torsions:
REMARK  status: ('A' for Active; 'I' for Inactive)
REMARK    1  A    between atoms: N_2  and  C_10
REMARK    2  A    between atoms: C_8  and  C_24
REMARK                            x       y       z     vdW  Elec       q    Type
REMARK                         _______ _______ _______ _____ _____    ______ ____
ROOT
ATOM      1  O   UNL     1      34.377 -19.508 -24.842  0.00  0.00    -0.270 OA
ATOM      2  N   UNL     1      34.070 -14.547 -24.462  0.00  0.00    +0.396 N 
ATOM      3  N   UNL     1      34.838 -17.297 -24.237  0.00  0.00    -0.280 N 
ATOM      4  C   UNL     1      34.375 -15.128 -23.146  0.00  0.00    -0.054 C 
ATOM      5  C   UNL     1      33.478 -15.562 -25.346  0.00  0.00    -0.054 C 
ATOM      6  C   UNL     1      35.339 -16.309 -23.275  0.00  0.00    +0.071 C 
ATOM      7  C   UNL     1      34.431 -16.742 -25.526  0.00  0.00    +0.071 C 
ATOM      8  C   UNL     1      34.797 -18.679 -24.036  0.00  0.00    +0.249 C 
ATOM      9  H   UNL     1      34.941 -14.223 -24.882  0.00  0.00    -0.079 HD
ENDROOT
BRANCH   2  10
ATOM     10  C   UNL     1      33.173 -13.401 -24.323  0.00  0.00    -0.011 C 
ATOM     11  C   UNL     1      33.853 -12.089 -24.690  0.00  0.00    -0.038 C 
ATOM     12  C   UNL     1      32.788 -13.145 -22.872  0.00  0.00    -0.038 C 
ATOM     13  C   UNL     1      33.852 -11.205 -23.588  0.00  0.00    -0.006 C 
ATOM     14  C   UNL     1      33.198 -11.854 -22.471  0.00  0.00    -0.006 C 
ATOM     15  C   UNL     1      34.403 -11.719 -25.907  0.00  0.00    -0.006 C 
ATOM     16  C   UNL     1      32.115 -13.987 -22.002  0.00  0.00    -0.006 C 
ATOM     17  C   UNL     1      34.415  -9.944 -23.694  0.00  0.00    -0.000 C 
ATOM     18  C   UNL     1      32.946 -11.400 -21.187  0.00  0.00    -0.000 C 
ATOM     19  C   UNL     1      34.971 -10.448 -26.014  0.00  0.00    -0.000 C 
ATOM     20  C   UNL     1      31.861 -13.530 -20.707  0.00  0.00    -0.000 C 
ATOM     21  C   UNL     1      34.977  -9.570 -24.918  0.00  0.00    -0.000 C 
ATOM     22  C   UNL     1      32.273 -12.249 -20.304  0.00  0.00    -0.000 C 
ENDBRANCH   2  10
BRANCH   8  24
ATOM     23  N   UNL     1      36.505 -20.842 -19.180  0.00  0.00    -0.312 N 
ATOM     24  C   UNL     1      35.301 -19.210 -22.762  0.00  0.00    +0.054 C 
ATOM     25  C   UNL     1      34.535 -20.144 -22.058  0.00  0.00    +0.006 C 
ATOM     26  C   UNL     1      36.531 -18.778 -22.278  0.00  0.00    +0.006 C 
ATOM     27  C   UNL     1      35.026 -20.650 -20.839  0.00  0.00    +0.015 C 
ATOM     28  C   UNL     1      36.264 -20.201 -20.373  0.00  0.00    +0.048 C 
ATOM     29  C   UNL     1      37.038 -19.267 -21.070  0.00  0.00    +0.015 C 
ATOM     30  C   UNL     1      34.535 -21.583 -19.883  0.00  0.00    +0.017 C 
ATOM     31  C   UNL     1      35.465 -21.679 -18.875  0.00  0.00    +0.062 C 
ATOM     32  H   UNL     1      37.309 -20.717 -18.625  0.00  0.00    +0.152 HD
ENDBRANCH   8  24
TORSDOF 2
ENDMDL
MODEL 3
REMARK VINA RESULT:      -9.0      9.506     15.379
REMARK  Name = 447767
REMARK  2 active torsions:
REMARK  status: ('A' for Active; 'I' for Inactive)
REMARK    1  A    between atoms: N_2  and  C_10
REMARK    2  A    between atoms: C_8  and  C_24
REMARK                            x       y       z     vdW  Elec       q    Type
REMARK                         _______ _______ _______ _____ _____    ______ ____
ROOT
ATOM      1  O   UNL     1      36.744 -21.843 -20.326  0.00  0.00    -0.270 OA
ATOM      2  N   UNL     1      32.483 -22.673 -17.876  0.00  0.00    +0.396 N 
ATOM      3  N   UNL     1      34.465 -21.954 -19.814  0.00  0.00    -0.280 N 
ATOM      4  C   UNL     1      32.418 -21.371 -18.557  0.00  0.00    -0.054 C 
ATOM      5  C   UNL     1      33.881 -23.093 -17.704  0.00  0.00    -0.054 C 
ATOM      6  C   UNL     1      33.099 -21.430 -19.926  0.00  0.00    +0.071 C 
ATOM      7  C   UNL     1      34.582 -23.198 -19.057  0.00  0.00    +0.071 C 
ATOM      8  C   UNL     1      35.598 -21.404 -20.419  0.00  0.00    +0.249 C 
ATOM      9  H   UNL     1      32.007 -23.364 -18.456  0.00  0.00    -0.079 HD
ENDROOT
BRANCH   2  10
ATOM     10  C   UNL     1      31.803 -22.611 -16.583  0.00  0.00    -0.011 C 
ATOM     11  C   UNL     1      32.533 -23.407 -15.509  0.00  0.00    -0.038 C 
ATOM     12  C   UNL     1      30.451 -23.311 -16.610  0.00  0.00    -0.038 C 
ATOM     13  C   UNL     1      31.699 -24.425 -14.996  0.00  0.00    -0.006 C 
ATOM     14  C   UNL     1      30.420 -24.366 -15.672  0.00  0.00    -0.006 C 
ATOM     15  C   UNL     1      33.818 -23.219 -15.027  0.00  0.00    -0.006 C 
ATOM     16  C   UNL     1      29.346 -23.012 -17.391  0.00  0.00    -0.006 C 
ATOM     17  C   UNL     1      32.153 -25.274 -14.000  0.00  0.00    -0.000 C 
ATOM     18  C   UNL     1      29.282 -25.141 -15.517  0.00  0.00    -0.000 C 
ATOM     19  C   UNL     1      34.276 -24.074 -14.024  0.00  0.00    -0.000 C 
ATOM     20  C   UNL     1      28.199 -23.793 -17.236  0.00  0.00    -0.000 C 
ATOM     21  C   UNL     1      33.453 -25.092 -13.515  0.00  0.00    -0.000 C 
ATOM     22  C   UNL     1      28.168 -24.847 -16.309  0.00  0.00    -0.000 C 
ENDBRANCH   2  10
BRANCH   8  24
ATOM     23  N   UNL     1      34.842 -16.987 -23.749  0.00  0.00    -0.312 N 
ATOM     24  C   UNL     1      35.428 -20.204 -21.249  0.00  0.00    +0.054 C 
ATOM     25  C   UNL     1      34.842 -20.321 -22.512  0.00  0.00    +0.006 C 
ATOM     26  C   UNL     1      35.851 -18.970 -20.765  0.00  0.00    +0.006 C 
ATOM     27  C   UNL     1      34.681 -19.166 -23.301  0.00  0.00    +0.015 C 
ATOM     28  C   UNL     1      35.113 -17.939 -22.793  0.00  0.00    +0.048 C 
ATOM     29  C   UNL     1      35.701 -17.810 -21.530  0.00  0.00    +0.015 C 
ATOM     30  C   UNL     1      34.141 -18.916 -24.594  0.00  0.00    +0.017 C 
ATOM     31  C   UNL     1      34.255 -17.568 -24.842  0.00  0.00    +0.062 C 
ATOM     32  H   UNL     1      35.041 -16.027 -23.661  0.00  0.00    +0.152 HD
ENDBRANCH   8  24
TORSDOF 2
ENDMDL
MODEL 4
REMARK VINA RESULT:      -8.9     14.843     17.424
REMARK  Name = 447767
REMARK  2 active torsions:
REMARK  status: ('A' for Active; 'I' for Inactive)
REMARK    1  A    between atoms: N_2  and  C_10
REMARK    2  A    between atoms: C_8  and  C_24
REMARK                            x       y       z     vdW  Elec       q    Type
REMARK                         _______ _______ _______ _____ _____    ______ ____
ROOT
ATOM      1  O   UNL     1      28.572 -25.479 -14.015  0.00  0.00    -0.270 OA
ATOM      2  N   UNL     1      33.343 -24.068 -14.310  0.00  0.00    +0.396 N 
ATOM      3  N   UNL     1      30.483 -24.192 -14.405  0.00  0.00    -0.280 N 
ATOM      4  C   UNL     1      32.621 -23.628 -15.513  0.00  0.00    -0.054 C 
ATOM      5  C   UNL     1      32.622 -25.165 -13.650  0.00  0.00    -0.054 C 
ATOM      6  C   UNL     1      31.204 -23.164 -15.166  0.00  0.00    +0.071 C 
ATOM      7  C   UNL     1      31.213 -24.724 -13.257  0.00  0.00    +0.071 C 
ATOM      8  C   UNL     1      29.176 -24.619 -14.653  0.00  0.00    +0.249 C 
ATOM      9  H   UNL     1      33.398 -23.282 -13.662  0.00  0.00    -0.079 HD
ENDROOT
BRANCH   2  10
ATOM     10  C   UNL     1      34.704 -24.480 -14.650  0.00  0.00    -0.011 C 
ATOM     11  C   UNL     1      35.664 -24.321 -13.478  0.00  0.00    -0.038 C 
ATOM     12  C   UNL     1      35.341 -23.563 -15.686  0.00  0.00    -0.038 C 
ATOM     13  C   UNL     1      36.708 -23.430 -13.811  0.00  0.00    -0.006 C 
ATOM     14  C   UNL     1      36.510 -22.965 -15.167  0.00  0.00    -0.006 C 
ATOM     15  C   UNL     1      35.612 -24.936 -12.237  0.00  0.00    -0.006 C 
ATOM     16  C   UNL     1      34.918 -23.309 -16.981  0.00  0.00    -0.006 C 
ATOM     17  C   UNL     1      37.706 -23.138 -12.894  0.00  0.00    -0.000 C 
ATOM     18  C   UNL     1      37.261 -22.094 -15.940  0.00  0.00    -0.000 C 
ATOM     19  C   UNL     1      36.617 -24.642 -11.314  0.00  0.00    -0.000 C 
ATOM     20  C   UNL     1      35.674 -22.431 -17.760  0.00  0.00    -0.000 C 
ATOM     21  C   UNL     1      37.653 -23.751 -11.639  0.00  0.00    -0.000 C 
ATOM     22  C   UNL     1      36.833 -21.829 -17.244  0.00  0.00    -0.000 C 
ENDBRANCH   2  10
BRANCH   8  24
ATOM     23  N   UNL     1      26.274 -22.086 -18.695  0.00  0.00    -0.312 N 
ATOM     24  C   UNL     1      28.440 -23.994 -15.760  0.00  0.00    +0.054 C 
ATOM     25  C   UNL     1      27.558 -22.944 -15.491  0.00  0.00    +0.006 C 
ATOM     26  C   UNL     1      28.633 -24.455 -17.058  0.00  0.00    +0.006 C 
ATOM     27  C   UNL     1      26.858 -22.349 -16.558  0.00  0.00    +0.015 C 
ATOM     28  C   UNL     1      27.068 -22.829 -17.852  0.00  0.00    +0.048 C 
ATOM     29  C   UNL     1      27.949 -23.879 -18.133  0.00  0.00    +0.015 C 
ATOM     30  C   UNL     1      25.909 -21.292 -16.654  0.00  0.00    +0.017 C 
ATOM     31  C   UNL     1      25.569 -21.154 -17.980  0.00  0.00    +0.062 C 
ATOM     32  H   UNL     1      26.220 -22.206 -19.670  0.00  0.00    +0.152 HD
ENDBRANCH   8  24
TORSDOF 2
ENDMDL
MODEL 5
REMARK VINA RESULT:      -8.7      1.679      2.478
REMARK  Name = 447767
REMARK  2 active torsions:
REMARK  status: ('A' for Active; 'I' for Inactive)
REMARK    1  A    between atoms: N_2  and  C_10
REMARK    2  A    between atoms: C_8  and  C_24
REMARK                            x       y       z     vdW  Elec       q    Type
REMARK                         _______ _______ _______ _____ _____    ______ ____
ROOT
ATOM      1  O   UNL     1      32.183 -10.131 -19.575  0.00  0.00    -0.270 OA
ATOM      2  N   UNL     1      32.008  -6.138 -22.553  0.00  0.00    +0.396 N 
ATOM      3  N   UNL     1      31.802  -8.766 -21.434  0.00  0.00    -0.280 N 
ATOM      4  C   UNL     1      32.461  -7.308 -23.319  0.00  0.00    -0.054 C 
ATOM      5  C   UNL     1      32.216  -6.355 -21.114  0.00  0.00    -0.054 C 
ATOM      6  C   UNL     1      31.715  -8.573 -22.887  0.00  0.00    +0.071 C 
ATOM      7  C   UNL     1      31.454  -7.591 -20.640  0.00  0.00    +0.071 C 
ATOM      8  C   UNL     1      32.110  -9.968 -20.792  0.00  0.00    +0.249 C 
ATOM      9  H   UNL     1      31.010  -6.010 -22.719  0.00  0.00    -0.079 HD
ENDROOT
BRANCH   2  10
ATOM     10  C   UNL     1      32.706  -4.932 -22.996  0.00  0.00    -0.011 C 
ATOM     11  C   UNL     1      31.743  -3.811 -23.365  0.00  0.00    -0.038 C 
ATOM     12  C   UNL     1      33.440  -5.143 -24.314  0.00  0.00    -0.038 C 
ATOM     13  C   UNL     1      31.912  -3.438 -24.717  0.00  0.00    -0.006 C 
ATOM     14  C   UNL     1      32.954  -4.256 -25.300  0.00  0.00    -0.006 C 
ATOM     15  C   UNL     1      30.816  -3.175 -22.554  0.00  0.00    -0.006 C 
ATOM     16  C   UNL     1      34.462  -6.037 -24.592  0.00  0.00    -0.006 C 
ATOM     17  C   UNL     1      31.142  -2.429 -25.272  0.00  0.00    -0.000 C 
ATOM     18  C   UNL     1      33.482  -4.266 -26.581  0.00  0.00    -0.000 C 
ATOM     19  C   UNL     1      30.041  -2.159 -23.113  0.00  0.00    -0.000 C 
ATOM     20  C   UNL     1      34.994  -6.047 -25.883  0.00  0.00    -0.000 C 
ATOM     21  C   UNL     1      30.201  -1.789 -24.459  0.00  0.00    -0.000 C 
ATOM     22  C   UNL     1      34.508  -5.170 -26.867  0.00  0.00    -0.000 C 
ENDBRANCH   2  10
BRANCH   8  24
ATOM     23  N   UNL     1      33.150 -14.318 -24.135  0.00  0.00    -0.312 N 
ATOM     24  C   UNL     1      32.365 -11.153 -21.622  0.00  0.00    +0.054 C 
ATOM     25  C   UNL     1      32.808 -10.987 -22.937  0.00  0.00    +0.006 C 
ATOM     26  C   UNL     1      32.164 -12.421 -21.087  0.00  0.00    +0.006 C 
ATOM     27  C   UNL     1      33.051 -12.127 -23.726  0.00  0.00    +0.015 C 
ATOM     28  C   UNL     1      32.842 -13.390 -23.167  0.00  0.00    +0.048 C 
ATOM     29  C   UNL     1      32.399 -13.568 -21.852  0.00  0.00    +0.015 C 
ATOM     30  C   UNL     1      33.495 -12.332 -25.063  0.00  0.00    +0.017 C 
ATOM     31  C   UNL     1      33.545 -13.689 -25.285  0.00  0.00    +0.062 C 
ATOM     32  H   UNL     1      33.094 -15.294 -24.018  0.00  0.00    +0.152 HD
ENDBRANCH   8  24
TORSDOF 2
ENDMDL
MODEL 6
REMARK VINA RESULT:      -8.7      2.060      8.544
REMARK  Name = 447767
REMARK  2 active torsions:
REMARK  status: ('A' for Active; 'I' for Inactive)
REMARK    1  A    between atoms: N_2  and  C_10
REMARK    2  A    between atoms: C_8  and  C_24
REMARK                            x       y       z     vdW  Elec       q    Type
REMARK                         _______ _______ _______ _____ _____    ______ ____
ROOT
ATOM      1  O   UNL     1      31.602  -6.747 -22.090  0.00  0.00    -0.270 OA
ATOM      2  N   UNL     1      33.046 -11.470 -22.764  0.00  0.00    +0.396 N 
ATOM      3  N   UNL     1      32.899  -8.613 -22.641  0.00  0.00    -0.280 N 
ATOM      4  C   UNL     1      33.464 -10.655 -23.915  0.00  0.00    -0.054 C 
ATOM      5  C   UNL     1      31.952 -10.810 -22.037  0.00  0.00    -0.054 C 
ATOM      6  C   UNL     1      33.922  -9.265 -23.468  0.00  0.00    +0.071 C 
ATOM      7  C   UNL     1      32.388  -9.431 -21.545  0.00  0.00    +0.071 C 
ATOM      8  C   UNL     1      32.459  -7.294 -22.783  0.00  0.00    +0.249 C 
ATOM      9  H   UNL     1      33.841 -11.567 -22.133  0.00  0.00    -0.079 HD
ENDROOT
BRANCH   2  10
ATOM     10  C   UNL     1      32.640 -12.805 -23.201  0.00  0.00    -0.011 C 
ATOM     11  C   UNL     1      33.434 -13.904 -22.508  0.00  0.00    -0.038 C 
ATOM     12  C   UNL     1      32.983 -13.062 -24.662  0.00  0.00    -0.038 C 
ATOM     13  C   UNL     1      34.136 -14.682 -23.457  0.00  0.00    -0.006 C 
ATOM     14  C   UNL     1      33.859 -14.164 -24.779  0.00  0.00    -0.006 C 
ATOM     15  C   UNL     1      33.503 -14.189 -21.154  0.00  0.00    -0.006 C 
ATOM     16  C   UNL     1      32.534 -12.379 -25.781  0.00  0.00    -0.006 C 
ATOM     17  C   UNL     1      34.924 -15.747 -23.052  0.00  0.00    -0.000 C 
ATOM     18  C   UNL     1      34.301 -14.585 -26.023  0.00  0.00    -0.000 C 
ATOM     19  C   UNL     1      34.297 -15.262 -20.746  0.00  0.00    -0.000 C 
ATOM     20  C   UNL     1      32.980 -12.803 -27.035  0.00  0.00    -0.000 C 
ATOM     21  C   UNL     1      35.001 -16.033 -21.685  0.00  0.00    -0.000 C 
ATOM     22  C   UNL     1      33.856 -13.895 -27.154  0.00  0.00    -0.000 C 
ENDBRANCH   2  10
BRANCH   8  24
ATOM     23  N   UNL     1      34.533  -4.043 -26.821  0.00  0.00    -0.312 N 
ATOM     24  C   UNL     1      33.062  -6.471 -23.840  0.00  0.00    +0.054 C 
ATOM     25  C   UNL     1      32.286  -5.504 -24.483  0.00  0.00    +0.006 C 
ATOM     26  C   UNL     1      34.397  -6.664 -24.181  0.00  0.00    +0.006 C 
ATOM     27  C   UNL     1      32.872  -4.717 -25.493  0.00  0.00    +0.015 C 
ATOM     28  C   UNL     1      34.213  -4.930 -25.819  0.00  0.00    +0.048 C 
ATOM     29  C   UNL     1      35.000  -5.895 -25.180  0.00  0.00    +0.015 C 
ATOM     30  C   UNL     1      32.399  -3.671 -26.336  0.00  0.00    +0.017 C 
ATOM     31  C   UNL     1      33.443  -3.278 -27.140  0.00  0.00    +0.062 C 
ATOM     32  H   UNL     1      35.418  -3.969 -27.247  0.00  0.00    +0.152 HD
ENDBRANCH   8  24
TORSDOF 2
ENDMDL
MODEL 7
REMARK VINA RESULT:      -8.3     11.099     17.215
REMARK  Name = 447767
REMARK  2 active torsions:
REMARK  status: ('A' for Active; 'I' for Inactive)
REMARK    1  A    between atoms: N_2  and  C_10
REMARK    2  A    between atoms: C_8  and  C_24
REMARK                            x       y       z     vdW  Elec       q    Type
REMARK                         _______ _______ _______ _____ _____    ______ ____
ROOT
ATOM      1  O   UNL     1      33.368 -23.285 -19.354  0.00  0.00    -0.270 OA
ATOM      2  N   UNL     1      35.390 -24.240 -14.899  0.00  0.00    +0.396 N 
ATOM      3  N   UNL     1      34.514 -23.013 -17.334  0.00  0.00    -0.280 N 
ATOM      4  C   UNL     1      36.325 -23.443 -15.708  0.00  0.00    -0.054 C 
ATOM      5  C   UNL     1      34.410 -24.913 -15.763  0.00  0.00    -0.054 C 
ATOM      6  C   UNL     1      35.581 -22.395 -16.538  0.00  0.00    +0.071 C 
ATOM      7  C   UNL     1      33.622 -23.892 -16.581  0.00  0.00    +0.071 C 
ATOM      8  C   UNL     1      34.263 -22.768 -18.687  0.00  0.00    +0.249 C 
ATOM      9  H   UNL     1      34.889 -23.611 -14.272  0.00  0.00    -0.079 HD
ENDROOT
BRANCH   2  10
ATOM     10  C   UNL     1      36.116 -25.216 -14.088  0.00  0.00    -0.011 C 
ATOM     11  C   UNL     1      36.188 -24.807 -12.623  0.00  0.00    -0.038 C 
ATOM     12  C   UNL     1      37.592 -25.286 -14.454  0.00  0.00    -0.038 C 
ATOM     13  C   UNL     1      37.534 -24.665 -12.215  0.00  0.00    -0.006 C 
ATOM     14  C   UNL     1      38.395 -24.959 -13.339  0.00  0.00    -0.006 C 
ATOM     15  C   UNL     1      35.143 -24.603 -11.736  0.00  0.00    -0.006 C 
ATOM     16  C   UNL     1      38.158 -25.631 -15.671  0.00  0.00    -0.006 C 
ATOM     17  C   UNL     1      37.841 -24.303 -10.913  0.00  0.00    -0.000 C 
ATOM     18  C   UNL     1      39.777 -24.963 -13.439  0.00  0.00    -0.000 C 
ATOM     19  C   UNL     1      35.453 -24.238 -10.425  0.00  0.00    -0.000 C 
ATOM     20  C   UNL     1      39.551 -25.634 -15.772  0.00  0.00    -0.000 C 
ATOM     21  C   UNL     1      36.789 -24.088 -10.018  0.00  0.00    -0.000 C 
ATOM     22  C   UNL     1      40.352 -25.303 -14.667  0.00  0.00    -0.000 C 
ENDBRANCH   2  10
BRANCH   8  24
ATOM     23  N   UNL     1      37.330 -19.020 -21.465  0.00  0.00    -0.312 N 
ATOM     24  C   UNL     1      35.124 -21.807 -19.389  0.00  0.00    +0.054 C 
ATOM     25  C   UNL     1      34.550 -20.895 -20.278  0.00  0.00    +0.006 C 
ATOM     26  C   UNL     1      36.496 -21.819 -19.157  0.00  0.00    +0.006 C 
ATOM     27  C   UNL     1      35.382 -19.976 -20.946  0.00  0.00    +0.015 C 
ATOM     28  C   UNL     1      36.756 -20.006 -20.697  0.00  0.00    +0.048 C 
ATOM     29  C   UNL     1      37.341 -20.916 -19.808  0.00  0.00    +0.015 C 
ATOM     30  C   UNL     1      35.153 -18.936 -21.891  0.00  0.00    +0.017 C 
ATOM     31  C   UNL     1      36.369 -18.367 -22.191  0.00  0.00    +0.062 C 
ATOM     32  H   UNL     1      38.292 -18.813 -21.490  0.00  0.00    +0.152 HD
ENDBRANCH   8  24
TORSDOF 2
ENDMDL
