MODEL 1
REMARK VINA RESULT:     -11.8      0.000      0.000
REMARK  Name = 6450551
REMARK  5 active torsions:
REMARK  status: ('A' for Active; 'I' for Inactive)
REMARK    1  A    between atoms: C_5  and  C_11
REMARK    2  A    between atoms: C_7  and  S_19
REMARK    3  A    between atoms: C_12  and  C_14
REMARK    4  A    between atoms: S_19  and  C_20
REMARK    5  A    between atoms: C_21  and  C_28
REMARK                            x       y       z     vdW  Elec       q    Type
REMARK                         _______ _______ _______ _____ _____    ______ ____
ROOT
ATOM      1  N   UNL     1      36.096 -22.225 -18.617  0.00  0.00    -0.276 N 
ATOM      2  N   UNL     1      35.117 -22.870 -17.961  0.00  0.00    -0.173 NA
ATOM      3  C   UNL     1      34.263 -21.424 -19.516  0.00  0.00    +0.036 A 
ATOM      4  C   UNL     1      35.650 -21.341 -19.564  0.00  0.00    +0.076 A 
ATOM      5  C   UNL     1      34.003 -22.380 -18.511  0.00  0.00    +0.102 A 
ATOM      6  C   UNL     1      36.333 -20.496 -20.441  0.00  0.00    +0.025 C 
ATOM      7  C   UNL     1      35.557 -19.709 -21.296  0.00  0.00    +0.031 C 
ATOM      8  C   UNL     1      33.496 -20.626 -20.383  0.00  0.00    +0.004 C 
ATOM      9  C   UNL     1      34.162 -19.771 -21.269  0.00  0.00    +0.007 C 
ATOM     10  H   UNL     1      37.052 -22.373 -18.432  0.00  0.00    +0.189 HD
ENDROOT
BRANCH   5  11
ATOM     11  C   UNL     1      32.703 -22.790 -18.114  0.00  0.00    +0.022 C 
ATOM     12  C   UNL     1      32.241 -22.993 -16.851  0.00  0.00    +0.021 C 
BRANCH  12  14
ATOM     13  N   UNL     1      29.887 -22.773 -17.128  0.00  0.00    -0.244 NA
ATOM     14  C   UNL     1      30.878 -23.433 -16.504  0.00  0.00    +0.081 C 
ATOM     15  C   UNL     1      30.710 -24.451 -15.596  0.00  0.00    +0.019 C 
ATOM     16  C   UNL     1      29.406 -24.831 -15.299  0.00  0.00    +0.003 C 
ATOM     17  C   UNL     1      28.633 -23.169 -16.816  0.00  0.00    +0.099 C 
ATOM     18  C   UNL     1      28.342 -24.182 -15.916  0.00  0.00    +0.021 C 
ENDBRANCH  12  14
ENDBRANCH   5  11
BRANCH   7  19
ATOM     19  S   UNL     1      36.366 -18.604 -22.443  0.00  0.00    -0.087 S 
BRANCH  19  20
ATOM     20  C   UNL     1      35.180 -18.565 -23.779  0.00  0.00    +0.034 C 
ATOM     21  C   UNL     1      34.520 -17.390 -24.147  0.00  0.00    +0.059 C 
ATOM     22  C   UNL     1      34.917 -19.752 -24.464  0.00  0.00    +0.007 C 
ATOM     23  C   UNL     1      33.601 -17.405 -25.197  0.00  0.00    +0.005 C 
ATOM     24  C   UNL     1      33.998 -19.767 -25.514  0.00  0.00    +0.001 C 
ATOM     25  C   UNL     1      33.340 -18.592 -25.880  0.00  0.00    +0.000 C 
BRANCH  21  28
ATOM     26  O   UNL     1      35.637 -16.028 -22.601  0.00  0.00    -0.270 OA
ATOM     27  N   UNL     1      33.962 -15.039 -23.862  0.00  0.00    -0.299 N 
ATOM     28  C   UNL     1      34.754 -16.121 -23.468  0.00  0.00    +0.246 C 
ATOM     29  C   UNL     1      34.090 -13.713 -23.301  0.00  0.00    +0.111 C 
ATOM     30  H   UNL     1      33.280 -15.189 -24.557  0.00  0.00    +0.150 HD
ENDBRANCH  21  28
ENDBRANCH  19  20
ENDBRANCH   7  19
TORSDOF 5
ENDMDL
MODEL 2
REMARK VINA RESULT:     -11.8      1.592      2.574
REMARK  Name = 6450551
REMARK  5 active torsions:
REMARK  status: ('A' for Active; 'I' for Inactive)
REMARK    1  A    between atoms: C_5  and  C_11
REMARK    2  A    between atoms: C_7  and  S_19
REMARK    3  A    between atoms: C_12  and  C_14
REMARK    4  A    between atoms: S_19  and  C_20
REMARK    5  A    between atoms: C_21  and  C_28
REMARK                            x       y       z     vdW  Elec       q    Type
REMARK                         _______ _______ _______ _____ _____    ______ ____
ROOT
ATOM      1  N   UNL     1      36.092 -22.047 -18.865  0.00  0.00    -0.276 N 
ATOM      2  N   UNL     1      35.297 -22.726 -18.021  0.00  0.00    -0.173 NA
ATOM      3  C   UNL     1      34.070 -21.538 -19.545  0.00  0.00    +0.036 A 
ATOM      4  C   UNL     1      35.417 -21.313 -19.804  0.00  0.00    +0.076 A 
ATOM      5  C   UNL     1      34.068 -22.415 -18.438  0.00  0.00    +0.102 A 
ATOM      6  C   UNL     1      35.866 -20.488 -20.838  0.00  0.00    +0.025 C 
ATOM      7  C   UNL     1      34.890 -19.876 -21.630  0.00  0.00    +0.031 C 
ATOM      8  C   UNL     1      33.100 -20.916 -20.350  0.00  0.00    +0.004 C 
ATOM      9  C   UNL     1      33.530 -20.085 -21.392  0.00  0.00    +0.007 C 
ATOM     10  H   UNL     1      37.075 -22.073 -18.813  0.00  0.00    +0.189 HD
ENDROOT
BRANCH   5  11
ATOM     11  C   UNL     1      32.894 -22.922 -17.821  0.00  0.00    +0.022 C 
ATOM     12  C   UNL     1      32.749 -23.373 -16.547  0.00  0.00    +0.021 C 
BRANCH  12  14
ATOM     13  N   UNL     1      31.662 -24.770 -14.955  0.00  0.00    -0.244 NA
ATOM     14  C   UNL     1      31.500 -23.900 -15.967  0.00  0.00    +0.081 C 
ATOM     15  C   UNL     1      30.293 -23.487 -16.479  0.00  0.00    +0.019 C 
ATOM     16  C   UNL     1      29.143 -24.012 -15.901  0.00  0.00    +0.003 C 
ATOM     17  C   UNL     1      30.523 -25.261 -14.419  0.00  0.00    +0.099 C 
ATOM     18  C   UNL     1      29.251 -24.917 -14.851  0.00  0.00    +0.021 C 
ENDBRANCH  12  14
ENDBRANCH   5  11
BRANCH   7  19
ATOM     19  S   UNL     1      35.395 -18.808 -22.969  0.00  0.00    -0.087 S 
BRANCH  19  20
ATOM     20  C   UNL     1      35.075 -17.197 -22.265  0.00  0.00    +0.034 C 
ATOM     21  C   UNL     1      34.672 -16.114 -23.050  0.00  0.00    +0.059 C 
ATOM     22  C   UNL     1      35.238 -17.033 -20.889  0.00  0.00    +0.007 C 
ATOM     23  C   UNL     1      34.433 -14.873 -22.459  0.00  0.00    +0.005 C 
ATOM     24  C   UNL     1      34.999 -15.793 -20.297  0.00  0.00    +0.001 C 
ATOM     25  C   UNL     1      34.597 -14.712 -21.083  0.00  0.00    +0.000 C 
BRANCH  21  28
ATOM     26  O   UNL     1      35.031 -17.142 -25.126  0.00  0.00    -0.270 OA
ATOM     27  N   UNL     1      33.657 -15.276 -25.096  0.00  0.00    -0.299 N 
ATOM     28  C   UNL     1      34.486 -16.225 -24.492  0.00  0.00    +0.246 C 
ATOM     29  C   UNL     1      33.355 -15.266 -26.510  0.00  0.00    +0.111 C 
ATOM     30  H   UNL     1      33.259 -14.576 -24.529  0.00  0.00    +0.150 HD
ENDBRANCH  21  28
ENDBRANCH  19  20
ENDBRANCH   7  19
TORSDOF 5
ENDMDL
MODEL 3
REMARK VINA RESULT:     -11.7      3.361      9.225
REMARK  Name = 6450551
REMARK  5 active torsions:
REMARK  status: ('A' for Active; 'I' for Inactive)
REMARK    1  A    between atoms: C_5  and  C_11
REMARK    2  A    between atoms: C_7  and  S_19
REMARK    3  A    between atoms: C_12  and  C_14
REMARK    4  A    between atoms: S_19  and  C_20
REMARK    5  A    between atoms: C_21  and  C_28
REMARK                            x       y       z     vdW  Elec       q    Type
REMARK                         _______ _______ _______ _____ _____    ______ ____
ROOT
ATOM      1  N   UNL     1      37.111 -20.197 -20.202  0.00  0.00    -0.276 N 
ATOM      2  N   UNL     1      36.945 -19.015 -20.819  0.00  0.00    -0.173 NA
ATOM      3  C   UNL     1      34.948 -20.102 -20.550  0.00  0.00    +0.036 A 
ATOM      4  C   UNL     1      35.951 -20.900 -20.011  0.00  0.00    +0.076 A 
ATOM      5  C   UNL     1      35.627 -18.960 -21.028  0.00  0.00    +0.102 A 
ATOM      6  C   UNL     1      35.703 -22.141 -19.422  0.00  0.00    +0.025 C 
ATOM      7  C   UNL     1      34.374 -22.573 -19.389  0.00  0.00    +0.031 C 
ATOM      8  C   UNL     1      33.617 -20.549 -20.509  0.00  0.00    +0.004 C 
ATOM      9  C   UNL     1      33.347 -21.792 -19.923  0.00  0.00    +0.007 C 
ATOM     10  H   UNL     1      37.992 -20.531 -19.914  0.00  0.00    +0.189 HD
ENDROOT
BRANCH   5  11
ATOM     11  C   UNL     1      34.994 -17.862 -21.667  0.00  0.00    +0.022 C 
ATOM     12  C   UNL     1      35.365 -17.236 -22.815  0.00  0.00    +0.021 C 
BRANCH  12  14
ATOM     13  N   UNL     1      34.178 -16.302 -24.655  0.00  0.00    -0.244 NA
ATOM     14  C   UNL     1      34.669 -16.088 -23.422  0.00  0.00    +0.081 C 
ATOM     15  C   UNL     1      34.570 -14.911 -22.717  0.00  0.00    +0.019 C 
ATOM     16  C   UNL     1      33.905 -13.855 -23.331  0.00  0.00    +0.003 C 
ATOM     17  C   UNL     1      33.539 -15.254 -25.220  0.00  0.00    +0.099 C 
ATOM     18  C   UNL     1      33.378 -14.021 -24.606  0.00  0.00    +0.021 C 
ENDBRANCH  12  14
ENDBRANCH   5  11
BRANCH   7  19
ATOM     19  S   UNL     1      33.986 -24.152 -18.651  0.00  0.00    -0.087 S 
BRANCH  19  20
ATOM     20  C   UNL     1      33.215 -23.639 -17.122  0.00  0.00    +0.034 C 
ATOM     21  C   UNL     1      33.936 -23.529 -15.931  0.00  0.00    +0.059 C 
ATOM     22  C   UNL     1      31.851 -23.343 -17.137  0.00  0.00    +0.007 C 
ATOM     23  C   UNL     1      33.295 -23.124 -14.761  0.00  0.00    +0.005 C 
ATOM     24  C   UNL     1      31.209 -22.938 -15.966  0.00  0.00    +0.001 C 
ATOM     25  C   UNL     1      31.932 -22.829 -14.778  0.00  0.00    +0.000 C 
BRANCH  21  28
ATOM     26  O   UNL     1      35.754 -24.994 -15.716  0.00  0.00    -0.270 OA
ATOM     27  N   UNL     1      36.238 -22.742 -15.972  0.00  0.00    -0.299 N 
ATOM     28  C   UNL     1      35.362 -23.825 -15.855  0.00  0.00    +0.246 C 
ATOM     29  C   UNL     1      37.678 -22.875 -15.941  0.00  0.00    +0.111 C 
ATOM     30  H   UNL     1      35.855 -21.841 -16.081  0.00  0.00    +0.150 HD
ENDBRANCH  21  28
ENDBRANCH  19  20
ENDBRANCH   7  19
TORSDOF 5
ENDMDL
MODEL 4
REMARK VINA RESULT:     -11.4      2.916      4.400
REMARK  Name = 6450551
REMARK  5 active torsions:
REMARK  status: ('A' for Active; 'I' for Inactive)
REMARK    1  A    between atoms: C_5  and  C_11
REMARK    2  A    between atoms: C_7  and  S_19
REMARK    3  A    between atoms: C_12  and  C_14
REMARK    4  A    between atoms: S_19  and  C_20
REMARK    5  A    between atoms: C_21  and  C_28
REMARK                            x       y       z     vdW  Elec       q    Type
REMARK                         _______ _______ _______ _____ _____    ______ ____
ROOT
ATOM      1  N   UNL     1      32.464 -21.402 -19.771  0.00  0.00    -0.276 N 
ATOM      2  N   UNL     1      32.628 -22.257 -18.747  0.00  0.00    -0.173 NA
ATOM      3  C   UNL     1      34.642 -21.543 -19.567  0.00  0.00    +0.036 A 
ATOM      4  C   UNL     1      33.634 -20.937 -20.309  0.00  0.00    +0.076 A 
ATOM      5  C   UNL     1      33.955 -22.339 -18.626  0.00  0.00    +0.102 A 
ATOM      6  C   UNL     1      33.888 -20.054 -21.360  0.00  0.00    +0.025 C 
ATOM      7  C   UNL     1      35.228 -19.788 -21.655  0.00  0.00    +0.031 C 
ATOM      8  C   UNL     1      35.985 -21.265 -19.876  0.00  0.00    +0.004 C 
ATOM      9  C   UNL     1      36.261 -20.382 -20.927  0.00  0.00    +0.007 C 
ATOM     10  H   UNL     1      31.578 -21.134 -20.107  0.00  0.00    +0.189 HD
ENDROOT
BRANCH   5  11
ATOM     11  C   UNL     1      34.590 -23.149 -17.647  0.00  0.00    +0.022 C 
ATOM     12  C   UNL     1      35.396 -22.749 -16.628  0.00  0.00    +0.021 C 
BRANCH  12  14
ATOM     13  N   UNL     1      35.711 -24.943 -15.761  0.00  0.00    -0.244 NA
ATOM     14  C   UNL     1      36.037 -23.644 -15.648  0.00  0.00    +0.081 C 
ATOM     15  C   UNL     1      36.895 -23.115 -14.713  0.00  0.00    +0.019 C 
ATOM     16  C   UNL     1      37.475 -23.998 -13.810  0.00  0.00    +0.003 C 
ATOM     17  C   UNL     1      36.293 -25.772 -14.866  0.00  0.00    +0.099 C 
ATOM     18  C   UNL     1      37.173 -25.353 -13.880  0.00  0.00    +0.021 C 
ENDBRANCH  12  14
ENDBRANCH   5  11
BRANCH   7  19
ATOM     19  S   UNL     1      35.624 -18.667 -22.988  0.00  0.00    -0.087 S 
BRANCH  19  20
ATOM     20  C   UNL     1      35.169 -17.097 -22.266  0.00  0.00    +0.034 C 
ATOM     21  C   UNL     1      34.684 -16.040 -23.039  0.00  0.00    +0.059 C 
ATOM     22  C   UNL     1      35.311 -16.939 -20.886  0.00  0.00    +0.007 C 
ATOM     23  C   UNL     1      34.341 -14.831 -22.433  0.00  0.00    +0.005 C 
ATOM     24  C   UNL     1      34.968 -15.730 -20.280  0.00  0.00    +0.001 C 
ATOM     25  C   UNL     1      34.483 -14.676 -21.055  0.00  0.00    +0.000 C 
BRANCH  21  28
ATOM     26  O   UNL     1      35.141 -17.004 -25.126  0.00  0.00    -0.270 OA
ATOM     27  N   UNL     1      33.611 -15.264 -25.080  0.00  0.00    -0.299 N 
ATOM     28  C   UNL     1      34.515 -16.147 -24.484  0.00  0.00    +0.246 C 
ATOM     29  C   UNL     1      33.316 -15.261 -26.496  0.00  0.00    +0.111 C 
ATOM     30  H   UNL     1      33.150 -14.609 -24.506  0.00  0.00    +0.150 HD
ENDBRANCH  21  28
ENDBRANCH  19  20
ENDBRANCH   7  19
TORSDOF 5
ENDMDL
MODEL 5
REMARK VINA RESULT:     -11.3      3.290     10.010
REMARK  Name = 6450551
REMARK  5 active torsions:
REMARK  status: ('A' for Active; 'I' for Inactive)
REMARK    1  A    between atoms: C_5  and  C_11
REMARK    2  A    between atoms: C_7  and  S_19
REMARK    3  A    between atoms: C_12  and  C_14
REMARK    4  A    between atoms: S_19  and  C_20
REMARK    5  A    between atoms: C_21  and  C_28
REMARK                            x       y       z     vdW  Elec       q    Type
REMARK                         _______ _______ _______ _____ _____    ______ ____
ROOT
ATOM      1  N   UNL     1      34.284 -16.441 -25.045  0.00  0.00    -0.276 N 
ATOM      2  N   UNL     1      33.798 -15.192 -25.145  0.00  0.00    -0.173 NA
ATOM      3  C   UNL     1      34.535 -15.631 -23.022  0.00  0.00    +0.036 A 
ATOM      4  C   UNL     1      34.742 -16.767 -23.796  0.00  0.00    +0.076 A 
ATOM      5  C   UNL     1      33.953 -14.702 -23.912  0.00  0.00    +0.102 A 
ATOM      6  C   UNL     1      35.309 -17.939 -23.292  0.00  0.00    +0.025 C 
ATOM      7  C   UNL     1      35.674 -17.936 -21.942  0.00  0.00    +0.031 C 
ATOM      8  C   UNL     1      34.907 -15.643 -21.668  0.00  0.00    +0.004 C 
ATOM      9  C   UNL     1      35.478 -16.809 -21.142  0.00  0.00    +0.007 C 
ATOM     10  H   UNL     1      34.308 -17.067 -25.804  0.00  0.00    +0.189 HD
ENDROOT
BRANCH   5  11
ATOM     11  C   UNL     1      33.567 -13.384 -23.553  0.00  0.00    +0.022 C 
ATOM     12  C   UNL     1      34.033 -12.211 -24.058  0.00  0.00    +0.021 C 
BRANCH  12  14
ATOM     13  N   UNL     1      32.472 -10.837 -22.899  0.00  0.00    -0.244 NA
ATOM     14  C   UNL     1      33.598 -10.868 -23.632  0.00  0.00    +0.081 C 
ATOM     15  C   UNL     1      34.342  -9.772 -23.999  0.00  0.00    +0.019 C 
ATOM     16  C   UNL     1      33.892  -8.526 -23.575  0.00  0.00    +0.003 C 
ATOM     17  C   UNL     1      32.065  -9.610 -22.505  0.00  0.00    +0.099 C 
ATOM     18  C   UNL     1      32.732  -8.435 -22.814  0.00  0.00    +0.021 C 
ENDBRANCH  12  14
ENDBRANCH   5  11
BRANCH   7  19
ATOM     19  S   UNL     1      36.405 -19.403 -21.232  0.00  0.00    -0.087 S 
BRANCH  19  20
ATOM     20  C   UNL     1      34.951 -20.278 -20.674  0.00  0.00    +0.034 C 
ATOM     21  C   UNL     1      35.022 -21.302 -19.727  0.00  0.00    +0.059 C 
ATOM     22  C   UNL     1      33.714 -19.915 -21.211  0.00  0.00    +0.007 C 
ATOM     23  C   UNL     1      33.860 -21.959 -19.319  0.00  0.00    +0.005 C 
ATOM     24  C   UNL     1      32.553 -20.572 -20.804  0.00  0.00    +0.001 C 
ATOM     25  C   UNL     1      32.627 -21.594 -19.858  0.00  0.00    +0.000 C 
BRANCH  21  28
ATOM     26  O   UNL     1      37.264 -21.975 -19.850  0.00  0.00    -0.270 OA
ATOM     27  N   UNL     1      36.328 -21.802 -17.736  0.00  0.00    -0.299 N 
ATOM     28  C   UNL     1      36.284 -21.724 -19.131  0.00  0.00    +0.246 C 
ATOM     29  C   UNL     1      37.512 -22.181 -16.997  0.00  0.00    +0.111 C 
ATOM     30  H   UNL     1      35.511 -21.588 -17.231  0.00  0.00    +0.150 HD
ENDBRANCH  21  28
ENDBRANCH  19  20
ENDBRANCH   7  19
TORSDOF 5
ENDMDL
MODEL 6
REMARK VINA RESULT:     -11.3      4.425      7.902
REMARK  Name = 6450551
REMARK  5 active torsions:
REMARK  status: ('A' for Active; 'I' for Inactive)
REMARK    1  A    between atoms: C_5  and  C_11
REMARK    2  A    between atoms: C_7  and  S_19
REMARK    3  A    between atoms: C_12  and  C_14
REMARK    4  A    between atoms: S_19  and  C_20
REMARK    5  A    between atoms: C_21  and  C_28
REMARK                            x       y       z     vdW  Elec       q    Type
REMARK                         _______ _______ _______ _____ _____    ______ ____
ROOT
ATOM      1  N   UNL     1      33.645 -16.789 -25.838  0.00  0.00    -0.276 N 
ATOM      2  N   UNL     1      34.080 -17.940 -25.298  0.00  0.00    -0.173 NA
ATOM      3  C   UNL     1      34.406 -16.178 -23.874  0.00  0.00    +0.036 A 
ATOM      4  C   UNL     1      33.813 -15.693 -25.034  0.00  0.00    +0.076 A 
ATOM      5  C   UNL     1      34.542 -17.564 -24.103  0.00  0.00    +0.102 A 
ATOM      6  C   UNL     1      33.499 -14.345 -25.223  0.00  0.00    +0.025 C 
ATOM      7  C   UNL     1      33.810 -13.470 -24.178  0.00  0.00    +0.031 C 
ATOM      8  C   UNL     1      34.712 -15.285 -22.833  0.00  0.00    +0.004 C 
ATOM      9  C   UNL     1      34.406 -13.930 -23.002  0.00  0.00    +0.007 C 
ATOM     10  H   UNL     1      33.242 -16.737 -26.735  0.00  0.00    +0.189 HD
ENDROOT
BRANCH   5  11
ATOM     11  C   UNL     1      35.106 -18.477 -23.174  0.00  0.00    +0.022 C 
ATOM     12  C   UNL     1      34.585 -18.892 -21.988  0.00  0.00    +0.021 C 
BRANCH  12  14
ATOM     13  N   UNL     1      36.535 -19.615 -20.831  0.00  0.00    -0.244 NA
ATOM     14  C   UNL     1      35.230 -19.837 -21.059  0.00  0.00    +0.081 C 
ATOM     15  C   UNL     1      34.484 -20.850 -20.504  0.00  0.00    +0.019 C 
ATOM     16  C   UNL     1      35.135 -21.717 -19.634  0.00  0.00    +0.003 C 
ATOM     17  C   UNL     1      37.135 -20.477 -19.981  0.00  0.00    +0.099 C 
ATOM     18  C   UNL     1      36.486 -21.535 -19.363  0.00  0.00    +0.021 C 
ENDBRANCH  12  14
ENDBRANCH   5  11
BRANCH   7  19
ATOM     19  S   UNL     1      33.436 -11.732 -24.354  0.00  0.00    -0.087 S 
BRANCH  19  20
ATOM     20  C   UNL     1      32.629 -11.393 -22.796  0.00  0.00    +0.034 C 
ATOM     21  C   UNL     1      32.376 -10.090 -22.362  0.00  0.00    +0.059 C 
ATOM     22  C   UNL     1      32.249 -12.475 -21.999  0.00  0.00    +0.007 C 
ATOM     23  C   UNL     1      31.744  -9.871 -21.138  0.00  0.00    +0.005 C 
ATOM     24  C   UNL     1      31.617 -12.256 -20.776  0.00  0.00    +0.001 C 
ATOM     25  C   UNL     1      31.365 -10.953 -20.345  0.00  0.00    +0.000 C 
BRANCH  21  28
ATOM     26  O   UNL     1      31.944  -8.418 -23.947  0.00  0.00    -0.270 OA
ATOM     27  N   UNL     1      34.032  -8.404 -22.941  0.00  0.00    -0.299 N 
ATOM     28  C   UNL     1      32.751  -8.922 -23.150  0.00  0.00    +0.246 C 
ATOM     29  C   UNL     1      34.541  -7.237 -23.627  0.00  0.00    +0.111 C 
ATOM     30  H   UNL     1      34.618  -8.857 -22.293  0.00  0.00    +0.150 HD
ENDBRANCH  21  28
ENDBRANCH  19  20
ENDBRANCH   7  19
TORSDOF 5
ENDMDL
MODEL 7
REMARK VINA RESULT:     -11.2      2.664      3.587
REMARK  Name = 6450551
REMARK  5 active torsions:
REMARK  status: ('A' for Active; 'I' for Inactive)
REMARK    1  A    between atoms: C_5  and  C_11
REMARK    2  A    between atoms: C_7  and  S_19
REMARK    3  A    between atoms: C_12  and  C_14
REMARK    4  A    between atoms: S_19  and  C_20
REMARK    5  A    between atoms: C_21  and  C_28
REMARK                            x       y       z     vdW  Elec       q    Type
REMARK                         _______ _______ _______ _____ _____    ______ ____
ROOT
ATOM      1  N   UNL     1      32.801 -21.249 -20.115  0.00  0.00    -0.276 N 
ATOM      2  N   UNL     1      32.836 -22.186 -19.152  0.00  0.00    -0.173 NA
ATOM      3  C   UNL     1      34.927 -21.362 -19.588  0.00  0.00    +0.036 A 
ATOM      4  C   UNL     1      34.024 -20.716 -20.424  0.00  0.00    +0.076 A 
ATOM      5  C   UNL     1      34.131 -22.251 -18.833  0.00  0.00    +0.102 A 
ATOM      6  C   UNL     1      34.405 -19.740 -21.347  0.00  0.00    +0.025 C 
ATOM      7  C   UNL     1      35.765 -19.421 -21.408  0.00  0.00    +0.031 C 
ATOM      8  C   UNL     1      36.291 -21.030 -19.660  0.00  0.00    +0.004 C 
ATOM      9  C   UNL     1      36.694 -20.054 -20.580  0.00  0.00    +0.007 C 
ATOM     10  H   UNL     1      31.969 -20.972 -20.562  0.00  0.00    +0.189 HD
ENDROOT
BRANCH   5  11
ATOM     11  C   UNL     1      34.636 -23.128 -17.837  0.00  0.00    +0.022 C 
ATOM     12  C   UNL     1      35.277 -22.801 -16.684  0.00  0.00    +0.021 C 
BRANCH  12  14
ATOM     13  N   UNL     1      35.395 -25.036 -15.873  0.00  0.00    -0.244 NA
ATOM     14  C   UNL     1      35.790 -23.764 -15.693  0.00  0.00    +0.081 C 
ATOM     15  C   UNL     1      36.609 -23.318 -14.682  0.00  0.00    +0.019 C 
ATOM     16  C   UNL     1      37.067 -24.263 -13.771  0.00  0.00    +0.003 C 
ATOM     17  C   UNL     1      35.859 -25.926 -14.968  0.00  0.00    +0.099 C 
ATOM     18  C   UNL     1      36.690 -25.594 -13.909  0.00  0.00    +0.021 C 
ENDBRANCH  12  14
ENDBRANCH   5  11
BRANCH   7  19
ATOM     19  S   UNL     1      36.321 -18.182 -22.568  0.00  0.00    -0.087 S 
BRANCH  19  20
ATOM     20  C   UNL     1      35.094 -18.339 -23.857  0.00  0.00    +0.034 C 
ATOM     21  C   UNL     1      34.365 -17.242 -24.322  0.00  0.00    +0.059 C 
ATOM     22  C   UNL     1      34.869 -19.604 -24.404  0.00  0.00    +0.007 C 
ATOM     23  C   UNL     1      33.416 -17.411 -25.330  0.00  0.00    +0.005 C 
ATOM     24  C   UNL     1      33.920 -19.772 -25.413  0.00  0.00    +0.001 C 
ATOM     25  C   UNL     1      33.194 -18.675 -25.875  0.00  0.00    +0.000 C 
BRANCH  21  28
ATOM     26  O   UNL     1      35.493 -15.661 -23.009  0.00  0.00    -0.270 OA
ATOM     27  N   UNL     1      33.660 -14.916 -24.217  0.00  0.00    -0.299 N 
ATOM     28  C   UNL     1      34.557 -15.899 -23.788  0.00  0.00    +0.246 C 
ATOM     29  C   UNL     1      33.732 -13.534 -23.797  0.00  0.00    +0.111 C 
ATOM     30  H   UNL     1      32.941 -15.179 -24.836  0.00  0.00    +0.150 HD
ENDBRANCH  21  28
ENDBRANCH  19  20
ENDBRANCH   7  19
TORSDOF 5
ENDMDL
MODEL 8
REMARK VINA RESULT:     -11.1      3.635      9.585
REMARK  Name = 6450551
REMARK  5 active torsions:
REMARK  status: ('A' for Active; 'I' for Inactive)
REMARK    1  A    between atoms: C_5  and  C_11
REMARK    2  A    between atoms: C_7  and  S_19
REMARK    3  A    between atoms: C_12  and  C_14
REMARK    4  A    between atoms: S_19  and  C_20
REMARK    5  A    between atoms: C_21  and  C_28
REMARK                            x       y       z     vdW  Elec       q    Type
REMARK                         _______ _______ _______ _____ _____    ______ ____
ROOT
ATOM      1  N   UNL     1      36.948 -20.312 -20.385  0.00  0.00    -0.276 N 
ATOM      2  N   UNL     1      36.795 -19.376 -21.337  0.00  0.00    -0.173 NA
ATOM      3  C   UNL     1      34.781 -20.271 -20.719  0.00  0.00    +0.036 A 
ATOM      4  C   UNL     1      35.777 -20.889 -19.971  0.00  0.00    +0.076 A 
ATOM      5  C   UNL     1      35.475 -19.353 -21.537  0.00  0.00    +0.102 A 
ATOM      6  C   UNL     1      35.513 -21.879 -19.022  0.00  0.00    +0.025 C 
ATOM      7  C   UNL     1      34.176 -22.243 -18.840  0.00  0.00    +0.031 C 
ATOM      8  C   UNL     1      33.441 -20.647 -20.525  0.00  0.00    +0.004 C 
ATOM      9  C   UNL     1      33.155 -21.639 -19.578  0.00  0.00    +0.007 C 
ATOM     10  H   UNL     1      37.826 -20.563 -20.018  0.00  0.00    +0.189 HD
ENDROOT
BRANCH   5  11
ATOM     11  C   UNL     1      34.854 -18.491 -22.478  0.00  0.00    +0.022 C 
ATOM     12  C   UNL     1      35.284 -17.275 -22.907  0.00  0.00    +0.021 C 
BRANCH  12  14
ATOM     13  N   UNL     1      34.231 -15.204 -23.426  0.00  0.00    -0.244 NA
ATOM     14  C   UNL     1      34.583 -16.419 -23.881  0.00  0.00    +0.081 C 
ATOM     15  C   UNL     1      34.340 -16.898 -25.146  0.00  0.00    +0.019 C 
ATOM     16  C   UNL     1      33.676 -16.055 -26.030  0.00  0.00    +0.003 C 
ATOM     17  C   UNL     1      33.586 -14.412 -24.312  0.00  0.00    +0.099 C 
ATOM     18  C   UNL     1      33.287 -14.788 -25.613  0.00  0.00    +0.021 C 
ENDBRANCH  12  14
ENDBRANCH   5  11
BRANCH   7  19
ATOM     19  S   UNL     1      33.768 -23.503 -17.643  0.00  0.00    -0.087 S 
BRANCH  19  20
ATOM     20  C   UNL     1      35.037 -23.235 -16.414  0.00  0.00    +0.034 C 
ATOM     21  C   UNL     1      34.817 -23.483 -15.057  0.00  0.00    +0.059 C 
ATOM     22  C   UNL     1      36.280 -22.764 -16.840  0.00  0.00    +0.007 C 
ATOM     23  C   UNL     1      35.837 -23.260 -14.132  0.00  0.00    +0.005 C 
ATOM     24  C   UNL     1      37.300 -22.541 -15.915  0.00  0.00    +0.001 C 
ATOM     25  C   UNL     1      37.077 -22.789 -14.560  0.00  0.00    +0.000 C 
BRANCH  21  28
ATOM     26  O   UNL     1      33.388 -25.181 -14.303  0.00  0.00    -0.270 OA
ATOM     27  N   UNL     1      32.533 -23.028 -14.353  0.00  0.00    -0.299 N 
ATOM     28  C   UNL     1      33.540 -23.976 -14.554  0.00  0.00    +0.246 C 
ATOM     29  C   UNL     1      31.222 -23.355 -13.837  0.00  0.00    +0.111 C 
ATOM     30  H   UNL     1      32.726 -22.088 -14.574  0.00  0.00    +0.150 HD
ENDBRANCH  21  28
ENDBRANCH  19  20
ENDBRANCH   7  19
TORSDOF 5
ENDMDL
MODEL 9
REMARK VINA RESULT:     -10.8      8.054     12.466
REMARK  Name = 6450551
REMARK  5 active torsions:
REMARK  status: ('A' for Active; 'I' for Inactive)
REMARK    1  A    between atoms: C_5  and  C_11
REMARK    2  A    between atoms: C_7  and  S_19
REMARK    3  A    between atoms: C_12  and  C_14
REMARK    4  A    between atoms: S_19  and  C_20
REMARK    5  A    between atoms: C_21  and  C_28
REMARK                            x       y       z     vdW  Elec       q    Type
REMARK                         _______ _______ _______ _____ _____    ______ ____
ROOT
ATOM      1  N   UNL     1      31.799 -10.913 -19.920  0.00  0.00    -0.276 N 
ATOM      2  N   UNL     1      31.965 -12.163 -20.384  0.00  0.00    -0.173 NA
ATOM      3  C   UNL     1      32.238 -10.615 -22.048  0.00  0.00    +0.036 A 
ATOM      4  C   UNL     1      31.949  -9.937 -20.869  0.00  0.00    +0.076 A 
ATOM      5  C   UNL     1      32.233 -11.978 -21.679  0.00  0.00    +0.102 A 
ATOM      6  C   UNL     1      31.859  -8.546 -20.793  0.00  0.00    +0.025 C 
ATOM      7  C   UNL     1      32.074  -7.831 -21.975  0.00  0.00    +0.031 C 
ATOM      8  C   UNL     1      32.453  -9.883 -23.228  0.00  0.00    +0.004 C 
ATOM      9  C   UNL     1      32.366  -8.486 -23.173  0.00  0.00    +0.007 C 
ATOM     10  H   UNL     1      31.586 -10.715 -18.979  0.00  0.00    +0.189 HD
ENDROOT
BRANCH   5  11
ATOM     11  C   UNL     1      32.482 -13.050 -22.575  0.00  0.00    +0.022 C 
ATOM     12  C   UNL     1      33.665 -13.674 -22.821  0.00  0.00    +0.021 C 
BRANCH  12  14
ATOM     13  N   UNL     1      34.673 -15.763 -23.356  0.00  0.00    -0.244 NA
ATOM     14  C   UNL     1      33.861 -14.779 -23.777  0.00  0.00    +0.081 C 
ATOM     15  C   UNL     1      33.227 -14.735 -24.996  0.00  0.00    +0.019 C 
ATOM     16  C   UNL     1      33.443 -15.799 -25.865  0.00  0.00    +0.003 C 
ATOM     17  C   UNL     1      34.861 -16.780 -24.226  0.00  0.00    +0.099 C 
ATOM     18  C   UNL     1      34.275 -16.845 -25.481  0.00  0.00    +0.021 C 
ENDBRANCH  12  14
ENDBRANCH   5  11
BRANCH   7  19
ATOM     19  S   UNL     1      31.974  -6.048 -21.950  0.00  0.00    -0.087 S 
BRANCH  19  20
ATOM     20  C   UNL     1      32.836  -5.632 -23.459  0.00  0.00    +0.034 C 
ATOM     21  C   UNL     1      32.446  -4.557 -24.261  0.00  0.00    +0.059 C 
ATOM     22  C   UNL     1      33.929  -6.416 -23.833  0.00  0.00    +0.007 C 
ATOM     23  C   UNL     1      33.148  -4.268 -25.431  0.00  0.00    +0.005 C 
ATOM     24  C   UNL     1      34.631  -6.126 -25.003  0.00  0.00    +0.001 C 
ATOM     25  C   UNL     1      34.239  -5.052 -25.802  0.00  0.00    +0.000 C 
BRANCH  21  28
ATOM     26  O   UNL     1      30.203  -3.900 -24.440  0.00  0.00    -0.270 OA
ATOM     27  N   UNL     1      31.542  -2.696 -22.981  0.00  0.00    -0.299 N 
ATOM     28  C   UNL     1      31.313  -3.704 -23.921  0.00  0.00    +0.246 C 
ATOM     29  C   UNL     1      30.515  -1.786 -22.524  0.00  0.00    +0.111 C 
ATOM     30  H   UNL     1      32.450  -2.600 -22.612  0.00  0.00    +0.150 HD
ENDBRANCH  21  28
ENDBRANCH  19  20
ENDBRANCH   7  19
TORSDOF 5
ENDMDL
