MODEL 1
REMARK VINA RESULT:     -11.7      0.000      0.000
REMARK  Name = 24963046
REMARK  6 active torsions:
REMARK  status: ('A' for Active; 'I' for Inactive)
REMARK    1  A    between atoms: N_1  and  C_27
REMARK    2  A    between atoms: C_4  and  C_16
REMARK    3  A    between atoms: C_13  and  C_22
REMARK    4  A    between atoms: N_21  and  C_24
REMARK    5  A    between atoms: C_27  and  C_28
REMARK    6  A    between atoms: C_28  and  N_30
REMARK                            x       y       z     vdW  Elec       q    Type
REMARK                         _______ _______ _______ _____ _____    ______ ____
ROOT
ATOM      1  N   UNL     1      35.951 -22.756 -17.478  0.00  0.00    -0.270 N 
ATOM      2  N   UNL     1      36.437 -21.142 -19.077  0.00  0.00    -0.338 NA
ATOM      3  N   UNL     1      34.252 -22.149 -18.936  0.00  0.00    -0.170 NA
ATOM      4  C   UNL     1      35.201 -18.793 -22.291  0.00  0.00    -0.000 C 
ATOM      5  C   UNL     1      34.307 -19.679 -21.697  0.00  0.00    +0.004 C 
ATOM      6  C   UNL     1      34.721 -20.473 -20.613  0.00  0.00    +0.050 C 
ATOM      7  C   UNL     1      35.526 -21.982 -18.545  0.00  0.00    +0.145 C 
ATOM      8  C   UNL     1      36.500 -18.699 -21.804  0.00  0.00    +0.003 C 
ATOM      9  C   UNL     1      36.031 -20.388 -20.113  0.00  0.00    +0.146 C 
ATOM     10  C   UNL     1      36.903 -19.492 -20.726  0.00  0.00    +0.033 C 
ATOM     11  C   UNL     1      33.878 -21.378 -19.976  0.00  0.00    +0.114 C 
ATOM     12  H   UNL     1      35.305 -23.378 -17.069  0.00  0.00    +0.159 HD
ENDROOT
BRANCH   4  16
ATOM     13  C   UNL     1      34.236 -15.791 -24.285  0.00  0.00    +0.053 C 
ATOM     14  C   UNL     1      34.640 -16.600 -23.223  0.00  0.00    +0.004 C 
ATOM     15  C   UNL     1      33.973 -16.357 -25.532  0.00  0.00    +0.004 C 
ATOM     16  C   UNL     1      34.780 -17.975 -23.407  0.00  0.00    -0.004 C 
ATOM     17  C   UNL     1      34.516 -18.541 -24.655  0.00  0.00    -0.022 C 
ATOM     18  C   UNL     1      34.113 -17.733 -25.717  0.00  0.00    -0.004 C 
ATOM     19  C   UNL     1      34.656 -20.012 -24.891  0.00  0.00    +0.031 C 
BRANCH  13  22
ATOM     20  O   UNL     1      34.283 -13.843 -22.977  0.00  0.00    -0.270 OA
ATOM     21  N   UNL     1      33.707 -13.600 -25.208  0.00  0.00    -0.302 N 
ATOM     22  C   UNL     1      34.090 -14.356 -24.094  0.00  0.00    +0.246 C 
ATOM     23  H   UNL     1      33.570 -14.067 -26.065  0.00  0.00    +0.150 HD
BRANCH  21  24
ATOM     24  C   UNL     1      33.504 -12.178 -25.166  0.00  0.00    +0.072 C 
ATOM     25  C   UNL     1      34.164 -11.330 -24.119  0.00  0.00    +0.021 C 
ATOM     26  C   UNL     1      34.597 -11.227 -25.553  0.00  0.00    +0.021 C 
ENDBRANCH  21  24
ENDBRANCH  13  22
ENDBRANCH   4  16
BRANCH   1  27
ATOM     27  C   UNL     1      37.285 -22.703 -16.930  0.00  0.00    +0.075 C 
BRANCH  27  28
ATOM     28  C   UNL     1      37.271 -23.215 -15.495  0.00  0.00    -0.055 C 
BRANCH  28  30
ATOM     29  O   UNL     1      38.000 -27.107 -14.105  0.00  0.00    -0.358 OA
ATOM     30  N   UNL     1      37.643 -24.628 -15.456  0.00  0.00    +0.391 N 
ATOM     31  C   UNL     1      36.497 -25.458 -15.058  0.00  0.00    -0.045 C 
ATOM     32  C   UNL     1      38.767 -24.846 -14.535  0.00  0.00    -0.045 C 
ATOM     33  C   UNL     1      36.912 -26.925 -15.013  0.00  0.00    +0.119 C 
ATOM     34  C   UNL     1      39.129 -26.328 -14.503  0.00  0.00    +0.119 C 
ATOM     35  H   UNL     1      37.932 -24.900 -16.395  0.00  0.00    -0.079 HD
ENDBRANCH  28  30
ENDBRANCH  27  28
ENDBRANCH   1  27
TORSDOF 6
ENDMDL
MODEL 2
REMARK VINA RESULT:     -11.4      3.155     11.476
REMARK  Name = 24963046
REMARK  6 active torsions:
REMARK  status: ('A' for Active; 'I' for Inactive)
REMARK    1  A    between atoms: N_1  and  C_27
REMARK    2  A    between atoms: C_4  and  C_16
REMARK    3  A    between atoms: C_13  and  C_22
REMARK    4  A    between atoms: N_21  and  C_24
REMARK    5  A    between atoms: C_27  and  C_28
REMARK    6  A    between atoms: C_28  and  N_30
REMARK                            x       y       z     vdW  Elec       q    Type
REMARK                         _______ _______ _______ _____ _____    ______ ____
ROOT
ATOM      1  N   UNL     1      33.335 -14.290 -26.422  0.00  0.00    -0.270 N 
ATOM      2  N   UNL     1      34.118 -15.122 -24.398  0.00  0.00    -0.338 NA
ATOM      3  N   UNL     1      33.558 -16.590 -26.226  0.00  0.00    -0.170 NA
ATOM      4  C   UNL     1      35.183 -18.388 -22.036  0.00  0.00    -0.000 C 
ATOM      5  C   UNL     1      34.730 -18.592 -23.336  0.00  0.00    +0.004 C 
ATOM      6  C   UNL     1      34.369 -17.493 -24.136  0.00  0.00    +0.050 C 
ATOM      7  C   UNL     1      33.685 -15.384 -25.648  0.00  0.00    +0.145 C 
ATOM      8  C   UNL     1      35.277 -17.093 -21.538  0.00  0.00    +0.003 C 
ATOM      9  C   UNL     1      34.460 -16.180 -23.643  0.00  0.00    +0.146 C 
ATOM     10  C   UNL     1      34.917 -16.006 -22.339  0.00  0.00    +0.033 C 
ATOM     11  C   UNL     1      33.909 -17.628 -25.442  0.00  0.00    +0.114 C 
ATOM     12  H   UNL     1      33.016 -14.452 -27.339  0.00  0.00    +0.159 HD
ENDROOT
BRANCH   4  16
ATOM     13  C   UNL     1      34.883 -21.397 -19.852  0.00  0.00    +0.053 C 
ATOM     14  C   UNL     1      34.549 -20.305 -20.652  0.00  0.00    +0.004 C 
ATOM     15  C   UNL     1      36.222 -21.701 -19.612  0.00  0.00    +0.004 C 
ATOM     16  C   UNL     1      35.554 -19.515 -21.210  0.00  0.00    -0.004 C 
ATOM     17  C   UNL     1      36.894 -19.820 -20.969  0.00  0.00    -0.022 C 
ATOM     18  C   UNL     1      37.228 -20.913 -20.170  0.00  0.00    -0.004 C 
ATOM     19  C   UNL     1      38.000 -18.997 -21.551  0.00  0.00    +0.031 C 
BRANCH  13  22
ATOM     20  O   UNL     1      32.737 -22.347 -19.841  0.00  0.00    -0.270 OA
ATOM     21  N   UNL     1      34.116 -22.836 -18.044  0.00  0.00    -0.302 N 
ATOM     22  C   UNL     1      33.835 -22.221 -19.270  0.00  0.00    +0.246 C 
ATOM     23  H   UNL     1      35.005 -22.696 -17.643  0.00  0.00    +0.150 HD
BRANCH  21  24
ATOM     24  C   UNL     1      33.172 -23.661 -17.340  0.00  0.00    +0.072 C 
ATOM     25  C   UNL     1      33.115 -23.669 -15.841  0.00  0.00    +0.021 C 
ATOM     26  C   UNL     1      31.994 -23.060 -16.632  0.00  0.00    +0.021 C 
ENDBRANCH  21  24
ENDBRANCH  13  22
ENDBRANCH   4  16
BRANCH   1  27
ATOM     27  C   UNL     1      33.411 -12.924 -25.959  0.00  0.00    +0.075 C 
BRANCH  27  28
ATOM     28  C   UNL     1      33.204 -12.882 -24.450  0.00  0.00    -0.055 C 
BRANCH  28  30
ATOM     29  O   UNL     1      34.026  -8.805 -23.881  0.00  0.00    -0.358 OA
ATOM     30  N   UNL     1      33.735 -11.637 -23.899  0.00  0.00    +0.391 N 
ATOM     31  C   UNL     1      32.645 -10.756 -23.457  0.00  0.00    -0.045 C 
ATOM     32  C   UNL     1      34.574 -10.944 -24.887  0.00  0.00    -0.045 C 
ATOM     33  C   UNL     1      33.223  -9.459 -22.897  0.00  0.00    +0.119 C 
ATOM     34  C   UNL     1      35.107  -9.644 -24.293  0.00  0.00    +0.119 C 
ATOM     35  H   UNL     1      34.311 -11.874 -23.091  0.00  0.00    -0.079 HD
ENDBRANCH  28  30
ENDBRANCH  27  28
ENDBRANCH   1  27
TORSDOF 6
ENDMDL
MODEL 3
REMARK VINA RESULT:     -11.2      2.100     11.739
REMARK  Name = 24963046
REMARK  6 active torsions:
REMARK  status: ('A' for Active; 'I' for Inactive)
REMARK    1  A    between atoms: N_1  and  C_27
REMARK    2  A    between atoms: C_4  and  C_16
REMARK    3  A    between atoms: C_13  and  C_22
REMARK    4  A    between atoms: N_21  and  C_24
REMARK    5  A    between atoms: C_27  and  C_28
REMARK    6  A    between atoms: C_28  and  N_30
REMARK                            x       y       z     vdW  Elec       q    Type
REMARK                         _______ _______ _______ _____ _____    ______ ____
ROOT
ATOM      1  N   UNL     1      35.727 -19.220 -22.625  0.00  0.00    -0.270 N 
ATOM      2  N   UNL     1      34.460 -20.423 -21.092  0.00  0.00    -0.338 NA
ATOM      3  N   UNL     1      36.850 -20.216 -20.857  0.00  0.00    -0.170 NA
ATOM      4  C   UNL     1      34.270 -22.736 -17.630  0.00  0.00    -0.000 C 
ATOM      5  C   UNL     1      35.498 -22.255 -18.075  0.00  0.00    +0.004 C 
ATOM      6  C   UNL     1      35.566 -21.476 -19.243  0.00  0.00    +0.050 C 
ATOM      7  C   UNL     1      35.679 -19.988 -21.473  0.00  0.00    +0.145 C 
ATOM      8  C   UNL     1      33.116 -22.438 -18.346  0.00  0.00    +0.003 C 
ATOM      9  C   UNL     1      34.407 -21.168 -19.975  0.00  0.00    +0.146 C 
ATOM     10  C   UNL     1      33.192 -21.661 -19.506  0.00  0.00    +0.033 C 
ATOM     11  C   UNL     1      36.761 -20.965 -19.741  0.00  0.00    +0.114 C 
ATOM     12  H   UNL     1      36.604 -18.888 -22.926  0.00  0.00    +0.159 HD
ENDROOT
BRANCH   4  16
ATOM     13  C   UNL     1      35.318 -24.877 -14.759  0.00  0.00    +0.053 C 
ATOM     14  C   UNL     1      35.365 -24.098 -15.916  0.00  0.00    +0.004 C 
ATOM     15  C   UNL     1      34.100 -25.096 -14.117  0.00  0.00    +0.004 C 
ATOM     16  C   UNL     1      34.195 -23.540 -16.430  0.00  0.00    -0.004 C 
ATOM     17  C   UNL     1      32.977 -23.760 -15.786  0.00  0.00    -0.022 C 
ATOM     18  C   UNL     1      32.929 -24.538 -14.629  0.00  0.00    -0.004 C 
ATOM     19  C   UNL     1      31.702 -23.177 -16.307  0.00  0.00    +0.031 C 
BRANCH  13  22
ATOM     20  O   UNL     1      36.631 -25.733 -13.013  0.00  0.00    -0.270 OA
ATOM     21  N   UNL     1      37.591 -25.672 -15.121  0.00  0.00    -0.302 N 
ATOM     22  C   UNL     1      36.538 -25.459 -14.223  0.00  0.00    +0.246 C 
ATOM     23  H   UNL     1      37.454 -25.433 -16.067  0.00  0.00    +0.150 HD
BRANCH  21  24
ATOM     24  C   UNL     1      38.861 -26.220 -14.732  0.00  0.00    +0.072 C 
ATOM     25  C   UNL     1      40.147 -25.627 -15.228  0.00  0.00    +0.021 C 
ATOM     26  C   UNL     1      39.764 -25.489 -13.784  0.00  0.00    +0.021 C 
ENDBRANCH  21  24
ENDBRANCH  13  22
ENDBRANCH   4  16
BRANCH   1  27
ATOM     27  C   UNL     1      34.564 -18.879 -23.410  0.00  0.00    +0.075 C 
BRANCH  27  28
ATOM     28  C   UNL     1      34.919 -17.774 -24.397  0.00  0.00    -0.055 C 
BRANCH  28  30
ATOM     29  O   UNL     1      33.927 -13.711 -24.039  0.00  0.00    -0.358 OA
ATOM     30  N   UNL     1      34.203 -16.544 -24.063  0.00  0.00    +0.391 N 
ATOM     31  C   UNL     1      33.856 -15.796 -25.280  0.00  0.00    -0.045 C 
ATOM     32  C   UNL     1      35.004 -15.702 -23.164  0.00  0.00    -0.045 C 
ATOM     33  C   UNL     1      33.121 -14.512 -24.906  0.00  0.00    +0.119 C 
ATOM     34  C   UNL     1      34.240 -14.421 -22.839  0.00  0.00    +0.119 C 
ATOM     35  H   UNL     1      33.341 -16.806 -23.585  0.00  0.00    -0.079 HD
ENDBRANCH  28  30
ENDBRANCH  27  28
ENDBRANCH   1  27
TORSDOF 6
ENDMDL
MODEL 4
REMARK VINA RESULT:     -11.1      1.641      2.069
REMARK  Name = 24963046
REMARK  6 active torsions:
REMARK  status: ('A' for Active; 'I' for Inactive)
REMARK    1  A    between atoms: N_1  and  C_27
REMARK    2  A    between atoms: C_4  and  C_16
REMARK    3  A    between atoms: C_13  and  C_22
REMARK    4  A    between atoms: N_21  and  C_24
REMARK    5  A    between atoms: C_27  and  C_28
REMARK    6  A    between atoms: C_28  and  N_30
REMARK                            x       y       z     vdW  Elec       q    Type
REMARK                         _______ _______ _______ _____ _____    ______ ____
ROOT
ATOM      1  N   UNL     1      34.078 -23.877 -16.877  0.00  0.00    -0.270 N 
ATOM      2  N   UNL     1      35.163 -22.441 -18.347  0.00  0.00    -0.338 NA
ATOM      3  N   UNL     1      32.761 -22.628 -18.322  0.00  0.00    -0.170 NA
ATOM      4  C   UNL     1      34.961 -19.619 -21.409  0.00  0.00    -0.000 C 
ATOM      5  C   UNL     1      33.790 -20.172 -20.898  0.00  0.00    +0.004 C 
ATOM      6  C   UNL     1      33.855 -21.124 -19.865  0.00  0.00    +0.050 C 
ATOM      7  C   UNL     1      33.995 -22.940 -17.894  0.00  0.00    +0.145 C 
ATOM      8  C   UNL     1      36.190 -20.015 -20.890  0.00  0.00    +0.003 C 
ATOM      9  C   UNL     1      35.090 -21.531 -19.334  0.00  0.00    +0.146 C 
ATOM     10  C   UNL     1      36.245 -20.961 -19.864  0.00  0.00    +0.033 C 
ATOM     11  C   UNL     1      32.723 -21.714 -19.311  0.00  0.00    +0.114 C 
ATOM     12  H   UNL     1      33.240 -24.257 -16.527  0.00  0.00    +0.159 HD
ENDROOT
BRANCH   4  16
ATOM     13  C   UNL     1      34.796 -16.324 -23.150  0.00  0.00    +0.053 C 
ATOM     14  C   UNL     1      34.855 -17.286 -22.142  0.00  0.00    +0.004 C 
ATOM     15  C   UNL     1      34.782 -16.717 -24.488  0.00  0.00    +0.004 C 
ATOM     16  C   UNL     1      34.900 -18.641 -22.471  0.00  0.00    -0.004 C 
ATOM     17  C   UNL     1      34.885 -19.033 -23.811  0.00  0.00    -0.022 C 
ATOM     18  C   UNL     1      34.827 -18.071 -24.819  0.00  0.00    -0.004 C 
ATOM     19  C   UNL     1      34.932 -20.476 -24.203  0.00  0.00    +0.031 C 
BRANCH  13  22
ATOM     20  O   UNL     1      35.105 -14.521 -21.681  0.00  0.00    -0.270 OA
ATOM     21  N   UNL     1      34.274 -14.033 -23.788  0.00  0.00    -0.302 N 
ATOM     22  C   UNL     1      34.750 -14.912 -22.807  0.00  0.00    +0.246 C 
ATOM     23  H   UNL     1      34.008 -14.406 -24.660  0.00  0.00    +0.150 HD
BRANCH  21  24
ATOM     24  C   UNL     1      34.152 -12.615 -23.586  0.00  0.00    +0.072 C 
ATOM     25  C   UNL     1      33.399 -11.754 -24.556  0.00  0.00    +0.021 C 
ATOM     26  C   UNL     1      32.846 -11.999 -23.183  0.00  0.00    +0.021 C 
ENDBRANCH  21  24
ENDBRANCH  13  22
ENDBRANCH   4  16
BRANCH   1  27
ATOM     27  C   UNL     1      35.322 -24.325 -16.300  0.00  0.00    +0.075 C 
BRANCH  27  28
ATOM     28  C   UNL     1      35.051 -25.015 -14.969  0.00  0.00    -0.055 C 
BRANCH  28  30
ATOM     29  O   UNL     1      37.486 -25.081 -11.551  0.00  0.00    -0.358 OA
ATOM     30  N   UNL     1      36.091 -24.679 -14.000  0.00  0.00    +0.391 N 
ATOM     31  C   UNL     1      37.021 -25.804 -13.821  0.00  0.00    -0.045 C 
ATOM     32  C   UNL     1      35.500 -24.303 -12.708  0.00  0.00    -0.045 C 
ATOM     33  C   UNL     1      38.090 -25.434 -12.797  0.00  0.00    +0.119 C 
ATOM     34  C   UNL     1      36.606 -23.967 -11.711  0.00  0.00    +0.119 C 
ATOM     35  H   UNL     1      36.612 -23.881 -14.366  0.00  0.00    -0.079 HD
ENDBRANCH  28  30
ENDBRANCH  27  28
ENDBRANCH   1  27
TORSDOF 6
ENDMDL
MODEL 5
REMARK VINA RESULT:     -10.9      3.208     11.434
REMARK  Name = 24963046
REMARK  6 active torsions:
REMARK  status: ('A' for Active; 'I' for Inactive)
REMARK    1  A    between atoms: N_1  and  C_27
REMARK    2  A    between atoms: C_4  and  C_16
REMARK    3  A    between atoms: C_13  and  C_22
REMARK    4  A    between atoms: N_21  and  C_24
REMARK    5  A    between atoms: C_27  and  C_28
REMARK    6  A    between atoms: C_28  and  N_30
REMARK                            x       y       z     vdW  Elec       q    Type
REMARK                         _______ _______ _______ _____ _____    ______ ____
ROOT
ATOM      1  N   UNL     1      34.368 -19.345 -22.882  0.00  0.00    -0.270 N 
ATOM      2  N   UNL     1      35.461 -20.314 -21.074  0.00  0.00    -0.338 NA
ATOM      3  N   UNL     1      33.065 -20.434 -21.302  0.00  0.00    -0.170 NA
ATOM      4  C   UNL     1      35.282 -22.473 -17.513  0.00  0.00    -0.000 C 
ATOM      5  C   UNL     1      34.111 -22.182 -18.207  0.00  0.00    +0.004 C 
ATOM      6  C   UNL     1      34.167 -21.454 -19.408  0.00  0.00    +0.050 C 
ATOM      7  C   UNL     1      34.293 -20.063 -21.700  0.00  0.00    +0.145 C 
ATOM      8  C   UNL     1      36.503 -22.039 -18.017  0.00  0.00    +0.003 C 
ATOM      9  C   UNL     1      35.395 -21.010 -19.927  0.00  0.00    +0.146 C 
ATOM     10  C   UNL     1      36.551 -21.316 -19.212  0.00  0.00    +0.033 C 
ATOM     11  C   UNL     1      33.035 -21.130 -20.149  0.00  0.00    +0.114 C 
ATOM     12  H   UNL     1      33.529 -19.148 -23.360  0.00  0.00    +0.159 HD
ENDROOT
BRANCH   4  16
ATOM     13  C   UNL     1      33.910 -24.318 -14.576  0.00  0.00    +0.053 C 
ATOM     14  C   UNL     1      33.986 -23.596 -15.766  0.00  0.00    +0.004 C 
ATOM     15  C   UNL     1      35.076 -24.665 -13.895  0.00  0.00    +0.004 C 
ATOM     16  C   UNL     1      35.228 -23.220 -16.277  0.00  0.00    -0.004 C 
ATOM     17  C   UNL     1      36.395 -23.568 -15.595  0.00  0.00    -0.022 C 
ATOM     18  C   UNL     1      36.319 -24.291 -14.404  0.00  0.00    -0.004 C 
ATOM     19  C   UNL     1      37.746 -23.184 -16.111  0.00  0.00    +0.031 C 
BRANCH  13  22
ATOM     20  O   UNL     1      32.533 -25.358 -12.985  0.00  0.00    -0.270 OA
ATOM     21  N   UNL     1      31.484 -24.343 -14.784  0.00  0.00    -0.302 N 
ATOM     22  C   UNL     1      32.614 -24.710 -14.043  0.00  0.00    +0.246 C 
ATOM     23  H   UNL     1      31.615 -23.830 -15.614  0.00  0.00    +0.150 HD
BRANCH  21  24
ATOM     24  C   UNL     1      30.142 -24.678 -14.394  0.00  0.00    +0.072 C 
ATOM     25  C   UNL     1      29.003 -24.582 -15.366  0.00  0.00    +0.021 C 
ATOM     26  C   UNL     1      29.477 -25.926 -14.894  0.00  0.00    +0.021 C 
ENDBRANCH  21  24
ENDBRANCH  13  22
ENDBRANCH   4  16
BRANCH   1  27
ATOM     27  C   UNL     1      35.605 -18.869 -23.454  0.00  0.00    +0.075 C 
BRANCH  27  28
ATOM     28  C   UNL     1      35.733 -17.369 -23.221  0.00  0.00    -0.055 C 
BRANCH  28  30
ATOM     29  O   UNL     1      33.440 -14.686 -25.492  0.00  0.00    -0.358 OA
ATOM     30  N   UNL     1      34.592 -16.665 -23.801  0.00  0.00    +0.391 N 
ATOM     31  C   UNL     1      34.571 -16.821 -25.263  0.00  0.00    -0.045 C 
ATOM     32  C   UNL     1      34.622 -15.239 -23.447  0.00  0.00    -0.045 C 
ATOM     33  C   UNL     1      33.379 -16.069 -25.846  0.00  0.00    +0.119 C 
ATOM     34  C   UNL     1      33.428 -14.525 -24.073  0.00  0.00    +0.119 C 
ATOM     35  H   UNL     1      33.742 -17.079 -23.417  0.00  0.00    -0.079 HD
ENDBRANCH  28  30
ENDBRANCH  27  28
ENDBRANCH   1  27
TORSDOF 6
ENDMDL
MODEL 6
REMARK VINA RESULT:     -10.9      5.208     13.682
REMARK  Name = 24963046
REMARK  6 active torsions:
REMARK  status: ('A' for Active; 'I' for Inactive)
REMARK    1  A    between atoms: N_1  and  C_27
REMARK    2  A    between atoms: C_4  and  C_16
REMARK    3  A    between atoms: C_13  and  C_22
REMARK    4  A    between atoms: N_21  and  C_24
REMARK    5  A    between atoms: C_27  and  C_28
REMARK    6  A    between atoms: C_28  and  N_30
REMARK                            x       y       z     vdW  Elec       q    Type
REMARK                         _______ _______ _______ _____ _____    ______ ____
ROOT
ATOM      1  N   UNL     1      31.741  -7.647 -20.792  0.00  0.00    -0.270 N 
ATOM      2  N   UNL     1      32.722  -9.038 -22.375  0.00  0.00    -0.338 NA
ATOM      3  N   UNL     1      31.404  -9.931 -20.565  0.00  0.00    -0.170 NA
ATOM      4  C   UNL     1      33.423 -12.881 -23.827  0.00  0.00    -0.000 C 
ATOM      5  C   UNL     1      32.648 -12.703 -22.685  0.00  0.00    +0.004 C 
ATOM      6  C   UNL     1      32.410 -11.408 -22.192  0.00  0.00    +0.050 C 
ATOM      7  C   UNL     1      31.965  -8.930 -21.263  0.00  0.00    +0.145 C 
ATOM      8  C   UNL     1      33.956 -11.772 -24.475  0.00  0.00    +0.003 C 
ATOM      9  C   UNL     1      32.944 -10.280 -22.837  0.00  0.00    +0.146 C 
ATOM     10  C   UNL     1      33.714 -10.488 -23.978  0.00  0.00    +0.033 C 
ATOM     11  C   UNL     1      31.646 -11.162 -21.056  0.00  0.00    +0.114 C 
ATOM     12  H   UNL     1      31.190  -7.539 -19.983  0.00  0.00    +0.159 HD
ENDROOT
BRANCH   4  16
ATOM     13  C   UNL     1      34.504 -16.449 -23.968  0.00  0.00    +0.053 C 
ATOM     14  C   UNL     1      34.255 -15.160 -23.498  0.00  0.00    +0.004 C 
ATOM     15  C   UNL     1      34.167 -16.790 -25.278  0.00  0.00    +0.004 C 
ATOM     16  C   UNL     1      33.671 -14.211 -24.338  0.00  0.00    -0.004 C 
ATOM     17  C   UNL     1      33.335 -14.553 -25.648  0.00  0.00    -0.022 C 
ATOM     18  C   UNL     1      33.583 -15.843 -26.118  0.00  0.00    -0.004 C 
ATOM     19  C   UNL     1      32.707 -13.564 -26.578  0.00  0.00    +0.031 C 
BRANCH  13  22
ATOM     20  O   UNL     1      36.111 -17.151 -22.409  0.00  0.00    -0.270 OA
ATOM     21  N   UNL     1      34.538 -18.715 -23.078  0.00  0.00    -0.302 N 
ATOM     22  C   UNL     1      35.112 -17.439 -23.093  0.00  0.00    +0.246 C 
ATOM     23  H   UNL     1      33.747 -18.879 -23.643  0.00  0.00    +0.150 HD
BRANCH  21  24
ATOM     24  C   UNL     1      35.042 -19.799 -22.280  0.00  0.00    +0.072 C 
ATOM     25  C   UNL     1      35.734 -19.545 -20.973  0.00  0.00    +0.021 C 
ATOM     26  C   UNL     1      34.379 -20.189 -20.993  0.00  0.00    +0.021 C 
ENDBRANCH  21  24
ENDBRANCH  13  22
ENDBRANCH   4  16
BRANCH   1  27
ATOM     27  C   UNL     1      32.267  -6.458 -21.421  0.00  0.00    +0.075 C 
BRANCH  27  28
ATOM     28  C   UNL     1      31.118  -5.555 -21.851  0.00  0.00    -0.055 C 
BRANCH  28  30
ATOM     29  O   UNL     1      32.814  -3.709 -25.217  0.00  0.00    -0.358 OA
ATOM     30  N   UNL     1      31.325  -5.085 -23.219  0.00  0.00    +0.391 N 
ATOM     31  C   UNL     1      32.559  -5.651 -23.783  0.00  0.00    -0.045 C 
ATOM     32  C   UNL     1      31.376  -3.617 -23.265  0.00  0.00    -0.045 C 
ATOM     33  C   UNL     1      32.761  -5.137 -25.206  0.00  0.00    +0.119 C 
ATOM     34  C   UNL     1      31.604  -3.152 -24.701  0.00  0.00    +0.119 C 
ATOM     35  H   UNL     1      30.535  -5.403 -23.781  0.00  0.00    -0.079 HD
ENDBRANCH  28  30
ENDBRANCH  27  28
ENDBRANCH   1  27
TORSDOF 6
ENDMDL
MODEL 7
REMARK VINA RESULT:     -10.7      5.529      9.919
REMARK  Name = 24963046
REMARK  6 active torsions:
REMARK  status: ('A' for Active; 'I' for Inactive)
REMARK    1  A    between atoms: N_1  and  C_27
REMARK    2  A    between atoms: C_4  and  C_16
REMARK    3  A    between atoms: C_13  and  C_22
REMARK    4  A    between atoms: N_21  and  C_24
REMARK    5  A    between atoms: C_27  and  C_28
REMARK    6  A    between atoms: C_28  and  N_30
REMARK                            x       y       z     vdW  Elec       q    Type
REMARK                         _______ _______ _______ _____ _____    ______ ____
ROOT
ATOM      1  N   UNL     1      33.649 -15.671 -26.173  0.00  0.00    -0.270 N 
ATOM      2  N   UNL     1      33.054 -14.393 -24.325  0.00  0.00    -0.338 NA
ATOM      3  N   UNL     1      33.787 -13.365 -26.379  0.00  0.00    -0.170 NA
ATOM      4  C   UNL     1      32.563 -10.645 -22.567  0.00  0.00    -0.000 C 
ATOM      5  C   UNL     1      33.010 -10.740 -23.882  0.00  0.00    +0.004 C 
ATOM      6  C   UNL     1      33.177 -12.002 -24.478  0.00  0.00    +0.050 C 
ATOM      7  C   UNL     1      33.491 -14.419 -25.602  0.00  0.00    +0.145 C 
ATOM      8  C   UNL     1      32.283 -11.805 -21.852  0.00  0.00    +0.003 C 
ATOM      9  C   UNL     1      32.898 -13.181 -23.766  0.00  0.00    +0.146 C 
ATOM     10  C   UNL     1      32.452 -13.056 -22.452  0.00  0.00    +0.033 C 
ATOM     11  C   UNL     1      33.620 -12.167 -25.787  0.00  0.00    +0.114 C 
ATOM     12  H   UNL     1      33.966 -15.720 -27.104  0.00  0.00    +0.159 HD
ENDROOT
BRANCH   4  16
ATOM     13  C   UNL     1      32.369  -6.942 -22.158  0.00  0.00    +0.053 C 
ATOM     14  C   UNL     1      32.531  -8.203 -22.732  0.00  0.00    +0.004 C 
ATOM     15  C   UNL     1      32.065  -6.828 -20.802  0.00  0.00    +0.004 C 
ATOM     16  C   UNL     1      32.391  -9.349 -21.950  0.00  0.00    -0.004 C 
ATOM     17  C   UNL     1      32.087  -9.234 -20.593  0.00  0.00    -0.022 C 
ATOM     18  C   UNL     1      31.924  -7.973 -20.019  0.00  0.00    -0.004 C 
ATOM     19  C   UNL     1      31.927 -10.440 -19.722  0.00  0.00    +0.031 C 
BRANCH  13  22
ATOM     20  O   UNL     1      31.945  -4.688 -22.655  0.00  0.00    -0.270 OA
ATOM     21  N   UNL     1      33.303  -5.854 -24.126  0.00  0.00    -0.302 N 
ATOM     22  C   UNL     1      32.516  -5.747 -22.973  0.00  0.00    +0.246 C 
ATOM     23  H   UNL     1      33.728  -6.721 -24.323  0.00  0.00    +0.150 HD
BRANCH  21  24
ATOM     24  C   UNL     1      33.522  -4.765 -25.037  0.00  0.00    +0.072 C 
ATOM     25  C   UNL     1      34.534  -4.866 -26.140  0.00  0.00    +0.021 C 
ATOM     26  C   UNL     1      33.069  -4.845 -26.465  0.00  0.00    +0.021 C 
ENDBRANCH  21  24
ENDBRANCH  13  22
ENDBRANCH   4  16
BRANCH   1  27
ATOM     27  C   UNL     1      33.376 -16.909 -25.481  0.00  0.00    +0.075 C 
BRANCH  27  28
ATOM     28  C   UNL     1      34.680 -17.513 -24.976  0.00  0.00    -0.055 C 
BRANCH  28  30
ATOM     29  O   UNL     1      35.752 -18.418 -21.020  0.00  0.00    -0.358 OA
ATOM     30  N   UNL     1      34.596 -17.778 -23.541  0.00  0.00    +0.391 N 
ATOM     31  C   UNL     1      35.377 -16.791 -22.782  0.00  0.00    -0.045 C 
ATOM     32  C   UNL     1      35.062 -19.136 -23.233  0.00  0.00    -0.045 C 
ATOM     33  C   UNL     1      35.284 -17.095 -21.290  0.00  0.00    +0.119 C 
ATOM     34  C   UNL     1      34.975 -19.385 -21.730  0.00  0.00    +0.119 C 
ATOM     35  H   UNL     1      33.616 -17.698 -23.266  0.00  0.00    -0.079 HD
ENDBRANCH  28  30
ENDBRANCH  27  28
ENDBRANCH   1  27
TORSDOF 6
ENDMDL
MODEL 8
REMARK VINA RESULT:     -10.6      3.386     11.006
REMARK  Name = 24963046
REMARK  6 active torsions:
REMARK  status: ('A' for Active; 'I' for Inactive)
REMARK    1  A    between atoms: N_1  and  C_27
REMARK    2  A    between atoms: C_4  and  C_16
REMARK    3  A    between atoms: C_13  and  C_22
REMARK    4  A    between atoms: N_21  and  C_24
REMARK    5  A    between atoms: C_27  and  C_28
REMARK    6  A    between atoms: C_28  and  N_30
REMARK                            x       y       z     vdW  Elec       q    Type
REMARK                         _______ _______ _______ _____ _____    ______ ____
ROOT
ATOM      1  N   UNL     1      35.383 -18.051 -24.160  0.00  0.00    -0.270 N 
ATOM      2  N   UNL     1      34.210 -19.299 -22.589  0.00  0.00    -0.338 NA
ATOM      3  N   UNL     1      36.594 -18.988 -22.418  0.00  0.00    -0.170 NA
ATOM      4  C   UNL     1      34.211 -21.600 -19.113  0.00  0.00    -0.000 C 
ATOM      5  C   UNL     1      35.405 -21.069 -19.592  0.00  0.00    +0.004 C 
ATOM      6  C   UNL     1      35.408 -20.293 -20.765  0.00  0.00    +0.050 C 
ATOM      7  C   UNL     1      35.398 -18.814 -23.004  0.00  0.00    +0.145 C 
ATOM      8  C   UNL     1      33.026 -21.355 -19.800  0.00  0.00    +0.003 C 
ATOM      9  C   UNL     1      34.218 -20.040 -21.467  0.00  0.00    +0.146 C 
ATOM     10  C   UNL     1      33.039 -20.582 -20.964  0.00  0.00    +0.033 C 
ATOM     11  C   UNL     1      36.566 -19.735 -21.297  0.00  0.00    +0.114 C 
ATOM     12  H   UNL     1      36.237 -17.683 -24.485  0.00  0.00    +0.159 HD
ENDROOT
BRANCH   4  16
ATOM     13  C   UNL     1      32.952 -23.638 -16.252  0.00  0.00    +0.053 C 
ATOM     14  C   UNL     1      32.985 -22.864 -17.413  0.00  0.00    +0.004 C 
ATOM     15  C   UNL     1      34.138 -23.947 -15.588  0.00  0.00    +0.004 C 
ATOM     16  C   UNL     1      34.202 -22.400 -17.908  0.00  0.00    -0.004 C 
ATOM     17  C   UNL     1      35.389 -22.709 -17.242  0.00  0.00    -0.022 C 
ATOM     18  C   UNL     1      35.357 -23.484 -16.082  0.00  0.00    -0.004 C 
ATOM     19  C   UNL     1      36.714 -22.230 -17.743  0.00  0.00    +0.031 C 
BRANCH  13  22
ATOM     20  O   UNL     1      31.650 -24.954 -14.811  0.00  0.00    -0.270 OA
ATOM     21  N   UNL     1      30.519 -23.627 -16.337  0.00  0.00    -0.302 N 
ATOM     22  C   UNL     1      31.682 -24.122 -15.736  0.00  0.00    +0.246 C 
ATOM     23  H   UNL     1      30.612 -22.970 -17.065  0.00  0.00    +0.150 HD
BRANCH  21  24
ATOM     24  C   UNL     1      29.195 -24.030 -15.947  0.00  0.00    +0.072 C 
ATOM     25  C   UNL     1      28.110 -23.019 -15.723  0.00  0.00    +0.021 C 
ATOM     26  C   UNL     1      28.044 -23.942 -16.904  0.00  0.00    +0.021 C 
ENDBRANCH  21  24
ENDBRANCH  13  22
ENDBRANCH   4  16
BRANCH   1  27
ATOM     27  C   UNL     1      34.186 -17.764 -24.915  0.00  0.00    +0.075 C 
BRANCH  27  28
ATOM     28  C   UNL     1      34.206 -16.311 -25.372  0.00  0.00    -0.055 C 
BRANCH  28  30
ATOM     29  O   UNL     1      33.733 -13.054 -22.768  0.00  0.00    -0.358 OA
ATOM     30  N   UNL     1      33.688 -15.440 -24.320  0.00  0.00    +0.391 N 
ATOM     31  C   UNL     1      33.249 -14.152 -24.878  0.00  0.00    -0.045 C 
ATOM     32  C   UNL     1      34.701 -15.219 -23.279  0.00  0.00    -0.045 C 
ATOM     33  C   UNL     1      32.724 -13.256 -23.760  0.00  0.00    +0.119 C 
ATOM     34  C   UNL     1      34.141 -14.298 -22.198  0.00  0.00    +0.119 C 
ATOM     35  H   UNL     1      32.882 -15.903 -23.899  0.00  0.00    -0.079 HD
ENDBRANCH  28  30
ENDBRANCH  27  28
ENDBRANCH   1  27
TORSDOF 6
ENDMDL
MODEL 9
REMARK VINA RESULT:     -10.5      1.420      1.704
REMARK  Name = 24963046
REMARK  6 active torsions:
REMARK  status: ('A' for Active; 'I' for Inactive)
REMARK    1  A    between atoms: N_1  and  C_27
REMARK    2  A    between atoms: C_4  and  C_16
REMARK    3  A    between atoms: C_13  and  C_22
REMARK    4  A    between atoms: N_21  and  C_24
REMARK    5  A    between atoms: C_27  and  C_28
REMARK    6  A    between atoms: C_28  and  N_30
REMARK                            x       y       z     vdW  Elec       q    Type
REMARK                         _______ _______ _______ _____ _____    ______ ____
ROOT
ATOM      1  N   UNL     1      35.468 -23.156 -16.981  0.00  0.00    -0.270 N 
ATOM      2  N   UNL     1      36.120 -21.628 -18.607  0.00  0.00    -0.338 NA
ATOM      3  N   UNL     1      33.862 -22.465 -18.505  0.00  0.00    -0.170 NA
ATOM      4  C   UNL     1      35.156 -19.285 -21.917  0.00  0.00    -0.000 C 
ATOM      5  C   UNL     1      34.182 -20.085 -21.327  0.00  0.00    +0.004 C 
ATOM      6  C   UNL     1      34.503 -20.877 -20.211  0.00  0.00    +0.050 C 
ATOM      7  C   UNL     1      35.133 -22.383 -18.080  0.00  0.00    +0.145 C 
ATOM      8  C   UNL     1      36.445 -19.275 -21.393  0.00  0.00    +0.003 C 
ATOM      9  C   UNL     1      35.801 -20.875 -19.674  0.00  0.00    +0.146 C 
ATOM     10  C   UNL     1      36.756 -20.065 -20.283  0.00  0.00    +0.033 C 
ATOM     11  C   UNL     1      33.577 -21.698 -19.576  0.00  0.00    +0.114 C 
ATOM     12  H   UNL     1      34.766 -23.716 -16.576  0.00  0.00    +0.159 HD
ENDROOT
BRANCH   4  16
ATOM     13  C   UNL     1      34.231 -16.312 -23.971  0.00  0.00    +0.053 C 
ATOM     14  C   UNL     1      34.548 -17.118 -22.878  0.00  0.00    +0.004 C 
ATOM     15  C   UNL     1      34.198 -16.859 -25.253  0.00  0.00    +0.004 C 
ATOM     16  C   UNL     1      34.830 -18.470 -23.066  0.00  0.00    -0.004 C 
ATOM     17  C   UNL     1      34.797 -19.017 -24.349  0.00  0.00    -0.022 C 
ATOM     18  C   UNL     1      34.481 -18.211 -25.443  0.00  0.00    -0.004 C 
ATOM     19  C   UNL     1      35.094 -20.463 -24.591  0.00  0.00    +0.031 C 
BRANCH  13  22
ATOM     20  O   UNL     1      33.964 -14.109 -24.734  0.00  0.00    -0.270 OA
ATOM     21  N   UNL     1      33.647 -14.486 -22.470  0.00  0.00    -0.302 N 
ATOM     22  C   UNL     1      33.937 -14.901 -23.775  0.00  0.00    +0.246 C 
ATOM     23  H   UNL     1      33.642 -15.163 -21.754  0.00  0.00    +0.150 HD
BRANCH  21  24
ATOM     24  C   UNL     1      33.358 -13.122 -22.121  0.00  0.00    +0.072 C 
ATOM     25  C   UNL     1      32.013 -12.517 -22.399  0.00  0.00    +0.021 C 
ATOM     26  C   UNL     1      32.435 -12.791 -20.985  0.00  0.00    +0.021 C 
ENDBRANCH  21  24
ENDBRANCH  13  22
ENDBRANCH   4  16
BRANCH   1  27
ATOM     27  C   UNL     1      36.786 -23.187 -16.394  0.00  0.00    +0.075 C 
BRANCH  27  28
ATOM     28  C   UNL     1      36.676 -23.056 -14.880  0.00  0.00    -0.055 C 
BRANCH  28  30
ATOM     29  O   UNL     1      38.323 -26.815 -14.001  0.00  0.00    -0.358 OA
ATOM     30  N   UNL     1      37.429 -24.122 -14.222  0.00  0.00    +0.391 N 
ATOM     31  C   UNL     1      38.457 -24.666 -15.121  0.00  0.00    -0.045 C 
ATOM     32  C   UNL     1      36.531 -25.196 -13.774  0.00  0.00    -0.045 C 
ATOM     33  C   UNL     1      39.220 -25.784 -14.417  0.00  0.00    +0.119 C 
ATOM     34  C   UNL     1      37.340 -26.300 -13.101  0.00  0.00    +0.119 C 
ATOM     35  H   UNL     1      37.890 -23.720 -13.405  0.00  0.00    -0.079 HD
ENDBRANCH  28  30
ENDBRANCH  27  28
ENDBRANCH   1  27
TORSDOF 6
ENDMDL
