MODEL 1
REMARK VINA RESULT:     -11.0      0.000      0.000
REMARK  Name = 9820008
REMARK  6 active torsions:
REMARK  status: ('A' for Active; 'I' for Inactive)
REMARK    1  A    between atoms: C_2  and  N_17
REMARK    2  A    between atoms: C_3  and  C_8
REMARK    3  A    between atoms: C_11  and  O_14
REMARK    4  A    between atoms: C_18  and  C_23
REMARK    5  A    between atoms: C_24  and  C_26
REMARK    6  A    between atoms: C_26  and  O_27
REMARK                            x       y       z     vdW  Elec       q    Type
REMARK                         _______ _______ _______ _____ _____    ______ ____
ROOT
ATOM      1  F   UNL     1      33.411 -21.961 -18.979  0.00  0.00    -0.203 F 
ATOM      2  C   UNL     1      35.749 -21.577 -19.146  0.00  0.00    +0.078 C 
ATOM      3  C   UNL     1      35.301 -19.903 -21.306  0.00  0.00    +0.002 C 
ATOM      4  C   UNL     1      34.451 -21.369 -19.583  0.00  0.00    +0.153 C 
ATOM      5  C   UNL     1      36.827 -20.967 -19.765  0.00  0.00    +0.017 C 
ATOM      6  C   UNL     1      34.226 -20.525 -20.671  0.00  0.00    +0.031 C 
ATOM      7  C   UNL     1      36.602 -20.125 -20.853  0.00  0.00    +0.001 C 
ENDROOT
BRANCH   3   8
ATOM      8  C   UNL     1      35.068 -19.028 -22.434  0.00  0.00    +0.003 C 
ATOM      9  C   UNL     1      35.302 -17.658 -22.314  0.00  0.00    +0.037 C 
ATOM     10  C   UNL     1      34.608 -19.554 -23.641  0.00  0.00    +0.000 C 
ATOM     11  C   UNL     1      35.076 -16.814 -23.401  0.00  0.00    +0.139 C 
ATOM     12  C   UNL     1      34.383 -18.710 -24.729  0.00  0.00    +0.003 C 
ATOM     13  C   UNL     1      34.616 -17.341 -24.609  0.00  0.00    +0.037 C 
BRANCH  11  14
ATOM     14  O   UNL     1      35.304 -15.478 -23.286  0.00  0.00    -0.471 OA
ATOM     15  C   UNL     1      34.162 -14.623 -23.264  0.00  0.00    +0.252 C 
ENDBRANCH  11  14
ENDBRANCH   3   8
BRANCH   2  17
ATOM     16  O   UNL     1      37.267 -21.105 -16.585  0.00  0.00    -0.270 OA
ATOM     17  N   UNL     1      35.981 -22.434 -18.044  0.00  0.00    -0.279 N 
ATOM     18  C   UNL     1      36.695 -22.159 -16.880  0.00  0.00    +0.245 C 
ATOM     19  H   UNL     1      35.588 -23.334 -18.106  0.00  0.00    +0.155 HD
BRANCH  18  23
ATOM     20  C   UNL     1      37.586 -24.759 -14.333  0.00  0.00    +0.010 C 
ATOM     21  C   UNL     1      38.013 -23.905 -15.528  0.00  0.00    +0.031 C 
ATOM     22  C   UNL     1      36.090 -25.022 -14.514  0.00  0.00    +0.033 C 
ATOM     23  C   UNL     1      36.722 -23.289 -15.960  0.00  0.00    +0.034 C 
ATOM     24  C   UNL     1      35.671 -23.900 -15.406  0.00  0.00    +0.054 C 
BRANCH  24  26
ATOM     25  O   UNL     1      33.631 -23.791 -16.622  0.00  0.00    -0.245 OA
ATOM     26  C   UNL     1      34.264 -23.573 -15.599  0.00  0.00    +0.334 C 
BRANCH  26  27
ATOM     27  O   UNL     1      33.768 -22.997 -14.481  0.00  0.00    -0.477 OA
ATOM     28  H   UNL     1      32.907 -23.216 -14.183  0.00  0.00    +0.295 HD
ENDBRANCH  26  27
ENDBRANCH  24  26
ENDBRANCH  18  23
ENDBRANCH   2  17
TORSDOF 6
ENDMDL
MODEL 2
REMARK VINA RESULT:     -10.8      6.670     12.734
REMARK  Name = 9820008
REMARK  6 active torsions:
REMARK  status: ('A' for Active; 'I' for Inactive)
REMARK    1  A    between atoms: C_2  and  N_17
REMARK    2  A    between atoms: C_3  and  C_8
REMARK    3  A    between atoms: C_11  and  O_14
REMARK    4  A    between atoms: C_18  and  C_23
REMARK    5  A    between atoms: C_24  and  C_26
REMARK    6  A    between atoms: C_26  and  O_27
REMARK                            x       y       z     vdW  Elec       q    Type
REMARK                         _______ _______ _______ _____ _____    ______ ____
ROOT
ATOM      1  F   UNL     1      32.104 -11.553 -21.449  0.00  0.00    -0.203 F 
ATOM      2  C   UNL     1      33.111 -10.929 -23.507  0.00  0.00    +0.078 C 
ATOM      3  C   UNL     1      33.615 -13.598 -24.048  0.00  0.00    +0.002 C 
ATOM      4  C   UNL     1      32.721 -11.891 -22.590  0.00  0.00    +0.153 C 
ATOM      5  C   UNL     1      33.747 -11.273 -24.688  0.00  0.00    +0.017 C 
ATOM      6  C   UNL     1      32.975 -13.235 -22.862  0.00  0.00    +0.031 C 
ATOM      7  C   UNL     1      34.002 -12.617 -24.961  0.00  0.00    +0.001 C 
ENDROOT
BRANCH   3   8
ATOM      8  C   UNL     1      33.879 -14.992 -24.331  0.00  0.00    +0.003 C 
ATOM      9  C   UNL     1      34.679 -15.740 -23.467  0.00  0.00    +0.037 C 
ATOM     10  C   UNL     1      33.333 -15.589 -25.467  0.00  0.00    +0.000 C 
ATOM     11  C   UNL     1      34.934 -17.084 -23.740  0.00  0.00    +0.139 C 
ATOM     12  C   UNL     1      33.586 -16.932 -25.740  0.00  0.00    +0.003 C 
ATOM     13  C   UNL     1      34.388 -17.680 -24.877  0.00  0.00    +0.037 C 
BRANCH  11  14
ATOM     14  O   UNL     1      35.716 -17.814 -22.899  0.00  0.00    -0.471 OA
ATOM     15  C   UNL     1      35.226 -19.093 -22.503  0.00  0.00    +0.252 C 
ENDBRANCH  11  14
ENDBRANCH   3   8
BRANCH   2  17
ATOM     16  O   UNL     1      34.988  -8.574 -23.379  0.00  0.00    -0.270 OA
ATOM     17  N   UNL     1      32.856  -9.564 -23.233  0.00  0.00    -0.279 N 
ATOM     18  C   UNL     1      33.769  -8.514 -23.187  0.00  0.00    +0.245 C 
ATOM     19  H   UNL     1      31.917  -9.328 -23.054  0.00  0.00    +0.155 HD
BRANCH  18  23
ATOM     20  C   UNL     1      31.994  -5.215 -23.261  0.00  0.00    +0.010 C 
ATOM     21  C   UNL     1      33.002  -6.167 -23.906  0.00  0.00    +0.031 C 
ATOM     22  C   UNL     1      32.065  -5.480 -21.756  0.00  0.00    +0.033 C 
ATOM     23  C   UNL     1      33.139  -7.238 -22.874  0.00  0.00    +0.034 C 
ATOM     24  C   UNL     1      32.626  -6.862 -21.698  0.00  0.00    +0.054 C 
BRANCH  24  26
ATOM     25  O   UNL     1      31.901  -8.643 -20.301  0.00  0.00    -0.245 OA
ATOM     26  C   UNL     1      32.584  -7.643 -20.469  0.00  0.00    +0.334 C 
BRANCH  26  27
ATOM     27  O   UNL     1      33.411  -7.098 -19.548  0.00  0.00    -0.477 OA
ATOM     28  H   UNL     1      33.461  -7.466 -18.688  0.00  0.00    +0.295 HD
ENDBRANCH  26  27
ENDBRANCH  24  26
ENDBRANCH  18  23
ENDBRANCH   2  17
TORSDOF 6
ENDMDL
MODEL 3
REMARK VINA RESULT:     -10.5      6.109     10.120
REMARK  Name = 9820008
REMARK  6 active torsions:
REMARK  status: ('A' for Active; 'I' for Inactive)
REMARK    1  A    between atoms: C_2  and  N_17
REMARK    2  A    between atoms: C_3  and  C_8
REMARK    3  A    between atoms: C_11  and  O_14
REMARK    4  A    between atoms: C_18  and  C_23
REMARK    5  A    between atoms: C_24  and  C_26
REMARK    6  A    between atoms: C_26  and  O_27
REMARK                            x       y       z     vdW  Elec       q    Type
REMARK                         _______ _______ _______ _____ _____    ______ ____
ROOT
ATOM      1  F   UNL     1      32.558 -13.837 -21.998  0.00  0.00    -0.203 F 
ATOM      2  C   UNL     1      33.584 -13.488 -24.112  0.00  0.00    +0.078 C 
ATOM      3  C   UNL     1      33.390 -10.752 -23.732  0.00  0.00    +0.002 C 
ATOM      4  C   UNL     1      33.015 -13.005 -22.945  0.00  0.00    +0.153 C 
ATOM      5  C   UNL     1      34.058 -12.633 -25.092  0.00  0.00    +0.017 C 
ATOM      6  C   UNL     1      32.917 -11.627 -22.754  0.00  0.00    +0.031 C 
ATOM      7  C   UNL     1      33.960 -11.255 -24.901  0.00  0.00    +0.001 C 
ENDROOT
BRANCH   3   8
ATOM      8  C   UNL     1      33.290  -9.322 -23.534  0.00  0.00    +0.003 C 
ATOM      9  C   UNL     1      32.054  -8.744 -23.244  0.00  0.00    +0.037 C 
ATOM     10  C   UNL     1      34.428  -8.523 -23.634  0.00  0.00    +0.000 C 
ATOM     11  C   UNL     1      31.957  -7.365 -23.053  0.00  0.00    +0.139 C 
ATOM     12  C   UNL     1      34.331  -7.144 -23.443  0.00  0.00    +0.003 C 
ATOM     13  C   UNL     1      33.096  -6.566 -23.153  0.00  0.00    +0.037 C 
BRANCH  11  14
ATOM     14  O   UNL     1      30.752  -6.800 -22.771  0.00  0.00    -0.471 OA
ATOM     15  C   UNL     1      30.766  -5.539 -22.104  0.00  0.00    +0.252 C 
ENDBRANCH  11  14
ENDBRANCH   3   8
BRANCH   2  17
ATOM     16  O   UNL     1      35.464 -15.509 -22.901  0.00  0.00    -0.270 OA
ATOM     17  N   UNL     1      33.683 -14.886 -24.309  0.00  0.00    -0.279 N 
ATOM     18  C   UNL     1      34.578 -15.774 -23.718  0.00  0.00    +0.245 C 
ATOM     19  H   UNL     1      33.038 -15.279 -24.942  0.00  0.00    +0.155 HD
BRANCH  18  23
ATOM     20  C   UNL     1      33.990 -18.919 -25.669  0.00  0.00    +0.010 C 
ATOM     21  C   UNL     1      33.630 -17.454 -25.420  0.00  0.00    +0.031 C 
ATOM     22  C   UNL     1      34.416 -19.487 -24.314  0.00  0.00    +0.033 C 
ATOM     23  C   UNL     1      34.380 -17.147 -24.165  0.00  0.00    +0.034 C 
ATOM     24  C   UNL     1      34.810 -18.259 -23.560  0.00  0.00    +0.054 C 
BRANCH  24  26
ATOM     25  O   UNL     1      35.078 -18.466 -21.207  0.00  0.00    -0.245 OA
ATOM     26  C   UNL     1      35.569 -18.346 -22.320  0.00  0.00    +0.334 C 
BRANCH  26  27
ATOM     27  O   UNL     1      36.893 -18.273 -22.585  0.00  0.00    -0.477 OA
ATOM     28  H   UNL     1      37.190 -18.165 -23.467  0.00  0.00    +0.295 HD
ENDBRANCH  26  27
ENDBRANCH  24  26
ENDBRANCH  18  23
ENDBRANCH   2  17
TORSDOF 6
ENDMDL
MODEL 4
REMARK VINA RESULT:     -10.5      7.849     12.793
REMARK  Name = 9820008
REMARK  6 active torsions:
REMARK  status: ('A' for Active; 'I' for Inactive)
REMARK    1  A    between atoms: C_2  and  N_17
REMARK    2  A    between atoms: C_3  and  C_8
REMARK    3  A    between atoms: C_11  and  O_14
REMARK    4  A    between atoms: C_18  and  C_23
REMARK    5  A    between atoms: C_24  and  C_26
REMARK    6  A    between atoms: C_26  and  O_27
REMARK                            x       y       z     vdW  Elec       q    Type
REMARK                         _______ _______ _______ _____ _____    ______ ____
ROOT
ATOM      1  F   UNL     1      31.508 -11.693 -21.127  0.00  0.00    -0.203 F 
ATOM      2  C   UNL     1      32.800 -10.994 -22.993  0.00  0.00    +0.078 C 
ATOM      3  C   UNL     1      33.685 -13.597 -23.329  0.00  0.00    +0.002 C 
ATOM      4  C   UNL     1      32.357 -11.978 -22.124  0.00  0.00    +0.153 C 
ATOM      5  C   UNL     1      33.676 -11.284 -24.025  0.00  0.00    +0.017 C 
ATOM      6  C   UNL     1      32.802 -13.289 -22.293  0.00  0.00    +0.031 C 
ATOM      7  C   UNL     1      34.123 -12.594 -24.195  0.00  0.00    +0.001 C 
ENDROOT
BRANCH   3   8
ATOM      8  C   UNL     1      34.148 -14.956 -23.505  0.00  0.00    +0.003 C 
ATOM      9  C   UNL     1      33.816 -15.661 -24.662  0.00  0.00    +0.037 C 
ATOM     10  C   UNL     1      34.925 -15.562 -22.518  0.00  0.00    +0.000 C 
ATOM     11  C   UNL     1      34.260 -16.972 -24.832  0.00  0.00    +0.139 C 
ATOM     12  C   UNL     1      35.371 -16.873 -22.688  0.00  0.00    +0.003 C 
ATOM     13  C   UNL     1      35.038 -17.578 -23.845  0.00  0.00    +0.037 C 
BRANCH  11  14
ATOM     14  O   UNL     1      33.936 -17.661 -25.960  0.00  0.00    -0.471 OA
ATOM     15  C   UNL     1      33.715 -19.063 -25.824  0.00  0.00    +0.252 C 
ENDBRANCH  11  14
ENDBRANCH   3   8
BRANCH   2  17
ATOM     16  O   UNL     1      34.293  -8.383 -23.193  0.00  0.00    -0.270 OA
ATOM     17  N   UNL     1      32.351  -9.663 -22.823  0.00  0.00    -0.279 N 
ATOM     18  C   UNL     1      33.092  -8.488 -22.928  0.00  0.00    +0.245 C 
ATOM     19  H   UNL     1      31.397  -9.554 -22.604  0.00  0.00    +0.155 HD
BRANCH  18  23
ATOM     20  C   UNL     1      30.690  -5.618 -23.113  0.00  0.00    +0.010 C 
ATOM     21  C   UNL     1      31.719  -6.503 -23.817  0.00  0.00    +0.031 C 
ATOM     22  C   UNL     1      31.126  -5.546 -21.648  0.00  0.00    +0.033 C 
ATOM     23  C   UNL     1      32.288  -7.297 -22.686  0.00  0.00    +0.034 C 
ATOM     24  C   UNL     1      31.963  -6.773 -21.500  0.00  0.00    +0.054 C 
BRANCH  24  26
ATOM     25  O   UNL     1      33.076  -6.693 -19.401  0.00  0.00    -0.245 OA
ATOM     26  C   UNL     1      32.342  -7.275 -20.186  0.00  0.00    +0.334 C 
BRANCH  26  27
ATOM     27  O   UNL     1      31.761  -8.477 -19.968  0.00  0.00    -0.477 OA
ATOM     28  H   UNL     1      31.530  -9.024 -20.692  0.00  0.00    +0.295 HD
ENDBRANCH  26  27
ENDBRANCH  24  26
ENDBRANCH  18  23
ENDBRANCH   2  17
TORSDOF 6
ENDMDL
MODEL 5
REMARK VINA RESULT:     -10.4      3.189      4.447
REMARK  Name = 9820008
REMARK  6 active torsions:
REMARK  status: ('A' for Active; 'I' for Inactive)
REMARK    1  A    between atoms: C_2  and  N_17
REMARK    2  A    between atoms: C_3  and  C_8
REMARK    3  A    between atoms: C_11  and  O_14
REMARK    4  A    between atoms: C_18  and  C_23
REMARK    5  A    between atoms: C_24  and  C_26
REMARK    6  A    between atoms: C_26  and  O_27
REMARK                            x       y       z     vdW  Elec       q    Type
REMARK                         _______ _______ _______ _____ _____    ______ ____
ROOT
ATOM      1  F   UNL     1      35.276 -23.130 -17.558  0.00  0.00    -0.203 F 
ATOM      2  C   UNL     1      33.152 -22.419 -18.349  0.00  0.00    +0.078 C 
ATOM      3  C   UNL     1      34.409 -20.826 -20.233  0.00  0.00    +0.002 C 
ATOM      4  C   UNL     1      34.536 -22.396 -18.401  0.00  0.00    +0.153 C 
ATOM      5  C   UNL     1      32.383 -21.664 -19.218  0.00  0.00    +0.017 C 
ATOM      6  C   UNL     1      35.169 -21.593 -19.350  0.00  0.00    +0.031 C 
ATOM      7  C   UNL     1      33.016 -20.861 -20.167  0.00  0.00    +0.001 C 
ENDROOT
BRANCH   3   8
ATOM      8  C   UNL     1      35.065 -19.993 -21.218  0.00  0.00    +0.003 C 
ATOM      9  C   UNL     1      34.406 -19.663 -22.402  0.00  0.00    +0.037 C 
ATOM     10  C   UNL     1      36.356 -19.522 -20.984  0.00  0.00    +0.000 C 
ATOM     11  C   UNL     1      35.038 -18.862 -23.352  0.00  0.00    +0.139 C 
ATOM     12  C   UNL     1      36.988 -18.719 -21.933  0.00  0.00    +0.003 C 
ATOM     13  C   UNL     1      36.330 -18.390 -23.117  0.00  0.00    +0.037 C 
BRANCH  11  14
ATOM     14  O   UNL     1      34.396 -18.539 -24.508  0.00  0.00    -0.471 OA
ATOM     15  C   UNL     1      34.630 -17.237 -25.040  0.00  0.00    +0.252 C 
ENDBRANCH  11  14
ENDBRANCH   3   8
BRANCH   2  17
ATOM     16  O   UNL     1      30.360 -22.278 -17.222  0.00  0.00    -0.270 OA
ATOM     17  N   UNL     1      32.507 -23.232 -17.386  0.00  0.00    -0.279 N 
ATOM     18  C   UNL     1      31.207 -23.118 -16.900  0.00  0.00    +0.245 C 
ATOM     19  H   UNL     1      33.043 -23.969 -17.014  0.00  0.00    +0.155 HD
BRANCH  18  23
ATOM     20  C   UNL     1      31.119 -25.427 -13.951  0.00  0.00    +0.010 C 
ATOM     21  C   UNL     1      31.943 -24.716 -15.025  0.00  0.00    +0.031 C 
ATOM     22  C   UNL     1      29.748 -25.693 -14.576  0.00  0.00    +0.033 C 
ATOM     23  C   UNL     1      30.887 -24.138 -15.911  0.00  0.00    +0.034 C 
ATOM     24  C   UNL     1      29.687 -24.673 -15.665  0.00  0.00    +0.054 C 
BRANCH  24  26
ATOM     25  O   UNL     1      28.023 -24.902 -17.346  0.00  0.00    -0.245 OA
ATOM     26  C   UNL     1      28.432 -24.355 -16.333  0.00  0.00    +0.334 C 
BRANCH  26  27
ATOM     27  O   UNL     1      27.792 -23.369 -15.665  0.00  0.00    -0.477 OA
ATOM     28  H   UNL     1      27.499 -22.606 -16.123  0.00  0.00    +0.295 HD
ENDBRANCH  26  27
ENDBRANCH  24  26
ENDBRANCH  18  23
ENDBRANCH   2  17
TORSDOF 6
ENDMDL
MODEL 6
REMARK VINA RESULT:     -10.3      6.986     10.759
REMARK  Name = 9820008
REMARK  6 active torsions:
REMARK  status: ('A' for Active; 'I' for Inactive)
REMARK    1  A    between atoms: C_2  and  N_17
REMARK    2  A    between atoms: C_3  and  C_8
REMARK    3  A    between atoms: C_11  and  O_14
REMARK    4  A    between atoms: C_18  and  C_23
REMARK    5  A    between atoms: C_24  and  C_26
REMARK    6  A    between atoms: C_26  and  O_27
REMARK                            x       y       z     vdW  Elec       q    Type
REMARK                         _______ _______ _______ _____ _____    ______ ____
ROOT
ATOM      1  F   UNL     1      32.024 -13.883 -21.541  0.00  0.00    -0.203 F 
ATOM      2  C   UNL     1      33.321 -13.131 -23.384  0.00  0.00    +0.078 C 
ATOM      3  C   UNL     1      32.661 -10.516 -22.756  0.00  0.00    +0.002 C 
ATOM      4  C   UNL     1      32.501 -12.882 -22.295  0.00  0.00    +0.153 C 
ATOM      5  C   UNL     1      33.817 -12.102 -24.164  0.00  0.00    +0.017 C 
ATOM      6  C   UNL     1      32.169 -11.565 -21.979  0.00  0.00    +0.031 C 
ATOM      7  C   UNL     1      33.485 -10.785 -23.849  0.00  0.00    +0.001 C 
ENDROOT
BRANCH   3   8
ATOM      8  C   UNL     1      32.316  -9.150 -22.429  0.00  0.00    +0.003 C 
ATOM      9  C   UNL     1      31.839  -8.294 -23.421  0.00  0.00    +0.037 C 
ATOM     10  C   UNL     1      32.463  -8.688 -21.121  0.00  0.00    +0.000 C 
ATOM     11  C   UNL     1      31.508  -6.976 -23.106  0.00  0.00    +0.139 C 
ATOM     12  C   UNL     1      32.131  -7.371 -20.805  0.00  0.00    +0.003 C 
ATOM     13  C   UNL     1      31.654  -6.515 -21.798  0.00  0.00    +0.037 C 
BRANCH  11  14
ATOM     14  O   UNL     1      31.043  -6.140 -24.074  0.00  0.00    -0.471 OA
ATOM     15  C   UNL     1      31.053  -4.743 -23.786  0.00  0.00    +0.252 C 
ENDBRANCH  11  14
ENDBRANCH   3   8
BRANCH   2  17
ATOM     16  O   UNL     1      35.304 -15.013 -22.114  0.00  0.00    -0.270 OA
ATOM     17  N   UNL     1      33.658 -14.467 -23.708  0.00  0.00    -0.279 N 
ATOM     18  C   UNL     1      34.589 -15.292 -23.081  0.00  0.00    +0.245 C 
ATOM     19  H   UNL     1      33.175 -14.862 -24.469  0.00  0.00    +0.155 HD
BRANCH  18  23
ATOM     20  C   UNL     1      34.771 -18.964 -23.803  0.00  0.00    +0.010 C 
ATOM     21  C   UNL     1      35.221 -17.782 -22.945  0.00  0.00    +0.031 C 
ATOM     22  C   UNL     1      34.518 -18.400 -25.202  0.00  0.00    +0.033 C 
ATOM     23  C   UNL     1      34.667 -16.612 -23.693  0.00  0.00    +0.034 C 
ATOM     24  C   UNL     1      34.283 -16.951 -24.927  0.00  0.00    +0.054 C 
BRANCH  24  26
ATOM     25  O   UNL     1      34.342 -15.334 -26.669  0.00  0.00    -0.245 OA
ATOM     26  C   UNL     1      33.702 -16.075 -25.936  0.00  0.00    +0.334 C 
BRANCH  26  27
ATOM     27  O   UNL     1      32.356 -16.206 -25.940  0.00  0.00    -0.477 OA
ATOM     28  H   UNL     1      31.828 -15.630 -25.423  0.00  0.00    +0.295 HD
ENDBRANCH  26  27
ENDBRANCH  24  26
ENDBRANCH  18  23
ENDBRANCH   2  17
TORSDOF 6
ENDMDL
MODEL 7
REMARK VINA RESULT:     -10.2      2.121      9.071
REMARK  Name = 9820008
REMARK  6 active torsions:
REMARK  status: ('A' for Active; 'I' for Inactive)
REMARK    1  A    between atoms: C_2  and  N_17
REMARK    2  A    between atoms: C_3  and  C_8
REMARK    3  A    between atoms: C_11  and  O_14
REMARK    4  A    between atoms: C_18  and  C_23
REMARK    5  A    between atoms: C_24  and  C_26
REMARK    6  A    between atoms: C_26  and  O_27
REMARK                            x       y       z     vdW  Elec       q    Type
REMARK                         _______ _______ _______ _____ _____    ______ ____
ROOT
ATOM      1  F   UNL     1      37.239 -20.555 -20.559  0.00  0.00    -0.203 F 
ATOM      2  C   UNL     1      34.911 -21.026 -20.514  0.00  0.00    +0.078 C 
ATOM      3  C   UNL     1      35.233 -22.286 -18.069  0.00  0.00    +0.002 C 
ATOM      4  C   UNL     1      36.173 -21.091 -19.947  0.00  0.00    +0.153 C 
ATOM      5  C   UNL     1      33.807 -21.576 -19.886  0.00  0.00    +0.017 C 
ATOM      6  C   UNL     1      36.335 -21.725 -18.715  0.00  0.00    +0.031 C 
ATOM      7  C   UNL     1      33.969 -22.211 -18.655  0.00  0.00    +0.001 C 
ENDROOT
BRANCH   3   8
ATOM      8  C   UNL     1      35.400 -22.944 -16.792  0.00  0.00    +0.003 C 
ATOM      9  C   UNL     1      36.672 -23.067 -16.232  0.00  0.00    +0.037 C 
ATOM     10  C   UNL     1      34.291 -23.456 -16.120  0.00  0.00    +0.000 C 
ATOM     11  C   UNL     1      36.834 -23.702 -15.001  0.00  0.00    +0.139 C 
ATOM     12  C   UNL     1      34.452 -24.090 -14.889  0.00  0.00    +0.003 C 
ATOM     13  C   UNL     1      35.723 -24.214 -14.329  0.00  0.00    +0.037 C 
BRANCH  11  14
ATOM     14  O   UNL     1      38.074 -23.823 -14.454  0.00  0.00    -0.471 OA
ATOM     15  C   UNL     1      38.632 -25.134 -14.391  0.00  0.00    +0.252 C 
ENDBRANCH  11  14
ENDBRANCH   3   8
BRANCH   2  17
ATOM     16  O   UNL     1      35.242 -18.131 -21.289  0.00  0.00    -0.270 OA
ATOM     17  N   UNL     1      34.744 -20.384 -21.764  0.00  0.00    -0.279 N 
ATOM     18  C   UNL     1      34.912 -19.034 -22.064  0.00  0.00    +0.245 C 
ATOM     19  H   UNL     1      34.478 -20.963 -22.515  0.00  0.00    +0.155 HD
BRANCH  18  23
ATOM     20  C   UNL     1      33.793 -19.041 -25.640  0.00  0.00    +0.010 C 
ATOM     21  C   UNL     1      34.339 -19.822 -24.445  0.00  0.00    +0.031 C 
ATOM     22  C   UNL     1      34.346 -17.620 -25.505  0.00  0.00    +0.033 C 
ATOM     23  C   UNL     1      34.652 -18.736 -23.466  0.00  0.00    +0.034 C 
ATOM     24  C   UNL     1      34.656 -17.532 -24.048  0.00  0.00    +0.054 C 
BRANCH  24  26
ATOM     25  O   UNL     1      34.114 -15.338 -23.311  0.00  0.00    -0.245 OA
ATOM     26  C   UNL     1      34.922 -16.251 -23.408  0.00  0.00    +0.334 C 
BRANCH  26  27
ATOM     27  O   UNL     1      36.190 -16.224 -22.940  0.00  0.00    -0.477 OA
ATOM     28  H   UNL     1      36.852 -16.744 -23.350  0.00  0.00    +0.295 HD
ENDBRANCH  26  27
ENDBRANCH  24  26
ENDBRANCH  18  23
ENDBRANCH   2  17
TORSDOF 6
ENDMDL
MODEL 8
REMARK VINA RESULT:     -10.0      3.860     10.378
REMARK  Name = 9820008
REMARK  6 active torsions:
REMARK  status: ('A' for Active; 'I' for Inactive)
REMARK    1  A    between atoms: C_2  and  N_17
REMARK    2  A    between atoms: C_3  and  C_8
REMARK    3  A    between atoms: C_11  and  O_14
REMARK    4  A    between atoms: C_18  and  C_23
REMARK    5  A    between atoms: C_24  and  C_26
REMARK    6  A    between atoms: C_26  and  O_27
REMARK                            x       y       z     vdW  Elec       q    Type
REMARK                         _______ _______ _______ _____ _____    ______ ____
ROOT
ATOM      1  F   UNL     1      34.884 -16.927 -24.896  0.00  0.00    -0.203 F 
ATOM      2  C   UNL     1      34.895 -15.845 -22.782  0.00  0.00    +0.078 C 
ATOM      3  C   UNL     1      35.171 -18.307 -21.545  0.00  0.00    +0.002 C 
ATOM      4  C   UNL     1      34.955 -16.990 -23.559  0.00  0.00    +0.153 C 
ATOM      5  C   UNL     1      34.971 -15.904 -21.401  0.00  0.00    +0.017 C 
ATOM      6  C   UNL     1      35.094 -18.230 -22.936  0.00  0.00    +0.031 C 
ATOM      7  C   UNL     1      35.109 -17.144 -20.777  0.00  0.00    +0.001 C 
ENDROOT
BRANCH   3   8
ATOM      8  C   UNL     1      35.315 -19.593 -20.898  0.00  0.00    +0.003 C 
ATOM      9  C   UNL     1      34.184 -20.342 -20.576  0.00  0.00    +0.037 C 
ATOM     10  C   UNL     1      36.585 -20.083 -20.595  0.00  0.00    +0.000 C 
ATOM     11  C   UNL     1      34.323 -21.582 -19.952  0.00  0.00    +0.139 C 
ATOM     12  C   UNL     1      36.725 -21.322 -19.972  0.00  0.00    +0.003 C 
ATOM     13  C   UNL     1      35.594 -22.072 -19.649  0.00  0.00    +0.037 C 
BRANCH  11  14
ATOM     14  O   UNL     1      33.220 -22.314 -19.637  0.00  0.00    -0.471 OA
ATOM     15  C   UNL     1      33.078 -22.724 -18.278  0.00  0.00    +0.252 C 
ENDBRANCH  11  14
ENDBRANCH   3   8
BRANCH   2  17
ATOM     16  O   UNL     1      32.634 -13.853 -22.687  0.00  0.00    -0.270 OA
ATOM     17  N   UNL     1      34.753 -14.585 -23.411  0.00  0.00    -0.279 N 
ATOM     18  C   UNL     1      33.678 -13.703 -23.331  0.00  0.00    +0.245 C 
ATOM     19  H   UNL     1      35.507 -14.296 -23.975  0.00  0.00    +0.155 HD
BRANCH  18  23
ATOM     20  C   UNL     1      34.717 -10.356 -24.656  0.00  0.00    +0.010 C 
ATOM     21  C   UNL     1      34.253 -11.200 -23.468  0.00  0.00    +0.031 C 
ATOM     22  C   UNL     1      34.069 -10.977 -25.895  0.00  0.00    +0.033 C 
ATOM     23  C   UNL     1      33.886 -12.495 -24.118  0.00  0.00    +0.034 C 
ATOM     24  C   UNL     1      33.785 -12.372 -25.445  0.00  0.00    +0.054 C 
BRANCH  24  26
ATOM     25  O   UNL     1      33.839 -13.465 -27.555  0.00  0.00    -0.245 OA
ATOM     26  C   UNL     1      33.444 -13.419 -26.399  0.00  0.00    +0.334 C 
BRANCH  26  27
ATOM     27  O   UNL     1      32.630 -14.327 -25.815  0.00  0.00    -0.477 OA
ATOM     28  H   UNL     1      32.689 -14.485 -24.894  0.00  0.00    +0.295 HD
ENDBRANCH  26  27
ENDBRANCH  24  26
ENDBRANCH  18  23
ENDBRANCH   2  17
TORSDOF 6
ENDMDL
MODEL 9
REMARK VINA RESULT:     -10.0      6.715     13.289
REMARK  Name = 9820008
REMARK  6 active torsions:
REMARK  status: ('A' for Active; 'I' for Inactive)
REMARK    1  A    between atoms: C_2  and  N_17
REMARK    2  A    between atoms: C_3  and  C_8
REMARK    3  A    between atoms: C_11  and  O_14
REMARK    4  A    between atoms: C_18  and  C_23
REMARK    5  A    between atoms: C_24  and  C_26
REMARK    6  A    between atoms: C_26  and  O_27
REMARK                            x       y       z     vdW  Elec       q    Type
REMARK                         _______ _______ _______ _____ _____    ______ ____
ROOT
ATOM      1  F   UNL     1      31.780 -11.613 -21.291  0.00  0.00    -0.203 F 
ATOM      2  C   UNL     1      32.903 -10.857 -23.243  0.00  0.00    +0.078 C 
ATOM      3  C   UNL     1      33.540 -13.478 -23.868  0.00  0.00    +0.002 C 
ATOM      4  C   UNL     1      32.486 -11.874 -22.401  0.00  0.00    +0.153 C 
ATOM      5  C   UNL     1      33.631 -11.122 -24.390  0.00  0.00    +0.017 C 
ATOM      6  C   UNL     1      32.806 -13.195 -22.716  0.00  0.00    +0.031 C 
ATOM      7  C   UNL     1      33.952 -12.442 -24.706  0.00  0.00    +0.001 C 
ENDROOT
BRANCH   3   8
ATOM      8  C   UNL     1      33.872 -14.848 -24.195  0.00  0.00    +0.003 C 
ATOM      9  C   UNL     1      34.664 -15.600 -23.328  0.00  0.00    +0.037 C 
ATOM     10  C   UNL     1      33.402 -15.416 -25.379  0.00  0.00    +0.000 C 
ATOM     11  C   UNL     1      34.986 -16.920 -23.643  0.00  0.00    +0.139 C 
ATOM     12  C   UNL     1      33.722 -16.736 -25.695  0.00  0.00    +0.003 C 
ATOM     13  C   UNL     1      34.515 -17.488 -24.827  0.00  0.00    +0.037 C 
BRANCH  11  14
ATOM     14  O   UNL     1      35.758 -17.654 -22.798  0.00  0.00    -0.471 OA
ATOM     15  C   UNL     1      35.397 -19.020 -22.608  0.00  0.00    +0.252 C 
ENDBRANCH  11  14
ENDBRANCH   3   8
BRANCH   2  17
ATOM     16  O   UNL     1      34.660  -8.416 -23.041  0.00  0.00    -0.270 OA
ATOM     17  N   UNL     1      32.581  -9.516 -22.925  0.00  0.00    -0.279 N 
ATOM     18  C   UNL     1      33.440  -8.423 -22.846  0.00  0.00    +0.245 C 
ATOM     19  H   UNL     1      31.632  -9.333 -22.738  0.00  0.00    +0.155 HD
BRANCH  18  23
ATOM     20  C   UNL     1      31.792  -5.547 -21.098  0.00  0.00    +0.010 C 
ATOM     21  C   UNL     1      32.024  -7.056 -21.191  0.00  0.00    +0.031 C 
ATOM     22  C   UNL     1      31.868  -5.019 -22.532  0.00  0.00    +0.033 C 
ATOM     23  C   UNL     1      32.748  -7.191 -22.491  0.00  0.00    +0.034 C 
ATOM     24  C   UNL     1      32.662  -6.077 -23.224  0.00  0.00    +0.054 C 
BRANCH  24  26
ATOM     25  O   UNL     1      32.598  -5.627 -25.557  0.00  0.00    -0.245 OA
ATOM     26  C   UNL     1      33.241  -5.847 -24.541  0.00  0.00    +0.334 C 
BRANCH  26  27
ATOM     27  O   UNL     1      34.590  -5.913 -24.469  0.00  0.00    -0.477 OA
ATOM     28  H   UNL     1      35.000  -6.604 -23.988  0.00  0.00    +0.295 HD
ENDBRANCH  26  27
ENDBRANCH  24  26
ENDBRANCH  18  23
ENDBRANCH   2  17
TORSDOF 6
ENDMDL
