MODEL 1
REMARK VINA RESULT:     -11.4      0.000      0.000
REMARK  Name = 4413
REMARK  6 active torsions:
REMARK  status: ('A' for Active; 'I' for Inactive)
REMARK    1  A    between atoms: O_1  and  C_9
REMARK    2  A    between atoms: O_1  and  C_19
REMARK    3  A    between atoms: C_6  and  C_14
REMARK    4  A    between atoms: C_19  and  C_20
REMARK    5  A    between atoms: C_23  and  N_26
REMARK    6  A    between atoms: N_26  and  C_29
REMARK                            x       y       z     vdW  Elec       q    Type
REMARK                         _______ _______ _______ _____ _____    ______ ____
ROOT
ATOM      1  O   UNL     1      32.770 -22.898 -18.262  0.00  0.00    -0.421 OA
ENDROOT
BRANCH   1   9
ATOM      2  C   UNL     1      33.919 -23.883 -14.377  0.00  0.00    +0.000 C 
ATOM      3  C   UNL     1      34.881 -23.405 -15.300  0.00  0.00    +0.003 C 
ATOM      4  C   UNL     1      34.323 -24.210 -13.072  0.00  0.00    +0.003 C 
ATOM      5  C   UNL     1      34.477 -23.078 -16.604  0.00  0.00    +0.038 C 
ATOM      6  C   UNL     1      35.655 -24.067 -12.683  0.00  0.00    +0.031 C 
ATOM      7  C   UNL     1      36.216 -23.268 -14.890  0.00  0.00    +0.000 C 
ATOM      8  C   UNL     1      32.583 -24.021 -14.787  0.00  0.00    +0.003 C 
ATOM      9  C   UNL     1      33.145 -23.221 -16.995  0.00  0.00    +0.149 C 
ATOM     10  C   UNL     1      36.600 -23.597 -13.590  0.00  0.00    +0.003 C 
ATOM     11  C   UNL     1      32.200 -23.691 -16.087  0.00  0.00    +0.038 C 
BRANCH   6  14
ATOM     12  N   UNL     1      37.123 -23.766 -10.702  0.00  0.00    -0.343 N 
ATOM     13  N   UNL     1      35.407 -25.353 -10.668  0.00  0.00    -0.285 NA
ATOM     14  C   UNL     1      36.057 -24.410 -11.328  0.00  0.00    +0.117 C 
ATOM     15  H   UNL     1      37.377 -24.014  -9.784  0.00  0.00    +0.144 HD
ATOM     16  H   UNL     1      37.621 -23.063 -11.178  0.00  0.00    +0.144 HD
ATOM     17  H   UNL     1      35.678 -25.587  -9.750  0.00  0.00    +0.188 HD
ENDBRANCH   6  14
ENDBRANCH   1   9
BRANCH   1  19
ATOM     18  O   UNL     1      34.046 -24.330 -19.584  0.00  0.00    -0.244 OA
ATOM     19  C   UNL     1      33.720 -23.205 -19.239  0.00  0.00    +0.346 C 
BRANCH  19  20
ATOM     20  C   UNL     1      34.296 -21.973 -19.835  0.00  0.00    +0.076 C 
ATOM     21  C   UNL     1      35.667 -21.816 -19.849  0.00  0.00    +0.008 C 
ATOM     22  C   UNL     1      33.442 -21.024 -20.359  0.00  0.00    +0.008 C 
ATOM     23  C   UNL     1      35.367 -19.686 -20.948  0.00  0.00    +0.084 C 
ATOM     24  C   UNL     1      36.207 -20.660 -20.411  0.00  0.00    +0.019 C 
ATOM     25  C   UNL     1      33.983 -19.867 -20.922  0.00  0.00    +0.019 C 
BRANCH  23  26
ATOM     26  N   UNL     1      35.908 -18.526 -21.510  0.00  0.00    -0.214 NA
BRANCH  26  29
ATOM     27  N   UNL     1      35.658 -16.903 -23.171  0.00  0.00    -0.370 N 
ATOM     28  N   UNL     1      35.138 -19.052 -23.733  0.00  0.00    -0.370 N 
ATOM     29  C   UNL     1      35.581 -18.207 -22.740  0.00  0.00    +0.193 C 
ATOM     30  H   UNL     1      35.963 -16.198 -22.556  0.00  0.00    +0.159 HD
ATOM     31  H   UNL     1      35.410 -16.675 -24.097  0.00  0.00    +0.159 HD
ATOM     32  H   UNL     1      35.039 -20.014 -23.552  0.00  0.00    +0.159 HD
ATOM     33  H   UNL     1      34.921 -18.694 -24.625  0.00  0.00    +0.159 HD
ENDBRANCH  26  29
ENDBRANCH  23  26
ENDBRANCH  19  20
ENDBRANCH   1  19
TORSDOF 6
ENDMDL
MODEL 2
REMARK VINA RESULT:     -11.4      2.123      8.674
REMARK  Name = 4413
REMARK  6 active torsions:
REMARK  status: ('A' for Active; 'I' for Inactive)
REMARK    1  A    between atoms: O_1  and  C_9
REMARK    2  A    between atoms: O_1  and  C_19
REMARK    3  A    between atoms: C_6  and  C_14
REMARK    4  A    between atoms: C_19  and  C_20
REMARK    5  A    between atoms: C_23  and  N_26
REMARK    6  A    between atoms: N_26  and  C_29
REMARK                            x       y       z     vdW  Elec       q    Type
REMARK                         _______ _______ _______ _____ _____    ______ ____
ROOT
ATOM      1  O   UNL     1      34.257 -23.694 -18.276  0.00  0.00    -0.421 OA
ENDROOT
BRANCH   1   9
ATOM      2  C   UNL     1      34.213 -20.304 -20.703  0.00  0.00    +0.000 C 
ATOM      3  C   UNL     1      35.443 -20.814 -20.222  0.00  0.00    +0.003 C 
ATOM      4  C   UNL     1      34.215 -19.161 -21.519  0.00  0.00    +0.003 C 
ATOM      5  C   UNL     1      35.440 -21.956 -19.406  0.00  0.00    +0.038 C 
ATOM      6  C   UNL     1      35.413 -18.531 -21.857  0.00  0.00    +0.031 C 
ATOM      7  C   UNL     1      36.638 -20.167 -20.573  0.00  0.00    +0.000 C 
ATOM      8  C   UNL     1      33.017 -20.951 -20.351  0.00  0.00    +0.003 C 
ATOM      9  C   UNL     1      34.242 -22.587 -19.067  0.00  0.00    +0.149 C 
ATOM     10  C   UNL     1      36.623 -19.032 -21.385  0.00  0.00    +0.003 C 
ATOM     11  C   UNL     1      33.033 -22.085 -19.539  0.00  0.00    +0.038 C 
BRANCH   6  14
ATOM     12  N   UNL     1      35.449 -17.450 -24.093  0.00  0.00    -0.343 N 
ATOM     13  N   UNL     1      35.340 -16.148 -22.155  0.00  0.00    -0.285 NA
ATOM     14  C   UNL     1      35.399 -17.348 -22.704  0.00  0.00    +0.117 C 
ATOM     15  H   UNL     1      35.438 -16.636 -24.646  0.00  0.00    +0.144 HD
ATOM     16  H   UNL     1      35.496 -18.335 -24.520  0.00  0.00    +0.144 HD
ATOM     17  H   UNL     1      35.330 -15.346 -22.727  0.00  0.00    +0.188 HD
ENDBRANCH   6  14
ENDBRANCH   1   9
BRANCH   1  19
ATOM     18  O   UNL     1      33.026 -23.025 -16.415  0.00  0.00    -0.244 OA
ATOM     19  C   UNL     1      34.062 -23.435 -16.918  0.00  0.00    +0.346 C 
BRANCH  19  20
ATOM     20  C   UNL     1      35.285 -23.731 -16.131  0.00  0.00    +0.076 C 
ATOM     21  C   UNL     1      36.337 -22.840 -16.171  0.00  0.00    +0.008 C 
ATOM     22  C   UNL     1      35.331 -24.889 -15.382  0.00  0.00    +0.008 C 
ATOM     23  C   UNL     1      37.557 -24.281 -14.664  0.00  0.00    +0.084 C 
ATOM     24  C   UNL     1      37.485 -23.118 -15.430  0.00  0.00    +0.019 C 
ATOM     25  C   UNL     1      36.480 -25.168 -14.640  0.00  0.00    +0.019 C 
BRANCH  23  26
ATOM     26  N   UNL     1      38.708 -24.561 -13.922  0.00  0.00    -0.214 NA
BRANCH  26  29
ATOM     27  N   UNL     1      39.853 -26.568 -13.581  0.00  0.00    -0.370 N 
ATOM     28  N   UNL     1      40.182 -25.511 -15.576  0.00  0.00    -0.370 N 
ATOM     29  C   UNL     1      39.536 -25.480 -14.360  0.00  0.00    +0.193 C 
ATOM     30  H   UNL     1      39.456 -26.666 -12.685  0.00  0.00    +0.159 HD
ATOM     31  H   UNL     1      40.476 -27.252 -13.920  0.00  0.00    +0.159 HD
ATOM     32  H   UNL     1      40.039 -24.787 -16.227  0.00  0.00    +0.159 HD
ATOM     33  H   UNL     1      40.785 -26.259 -15.795  0.00  0.00    +0.159 HD
ENDBRANCH  26  29
ENDBRANCH  23  26
ENDBRANCH  19  20
ENDBRANCH   1  19
TORSDOF 6
ENDMDL
MODEL 3
REMARK VINA RESULT:     -11.2      2.797      4.791
REMARK  Name = 4413
REMARK  6 active torsions:
REMARK  status: ('A' for Active; 'I' for Inactive)
REMARK    1  A    between atoms: O_1  and  C_9
REMARK    2  A    between atoms: O_1  and  C_19
REMARK    3  A    between atoms: C_6  and  C_14
REMARK    4  A    between atoms: C_19  and  C_20
REMARK    5  A    between atoms: C_23  and  N_26
REMARK    6  A    between atoms: N_26  and  C_29
REMARK                            x       y       z     vdW  Elec       q    Type
REMARK                         _______ _______ _______ _____ _____    ______ ____
ROOT
ATOM      1  O   UNL     1      35.231 -20.474 -21.553  0.00  0.00    -0.421 OA
ENDROOT
BRANCH   1   9
ATOM      2  C   UNL     1      35.394 -22.417 -17.867  0.00  0.00    +0.000 C 
ATOM      3  C   UNL     1      34.156 -22.279 -18.540  0.00  0.00    +0.003 C 
ATOM      4  C   UNL     1      35.432 -23.074 -16.626  0.00  0.00    +0.003 C 
ATOM      5  C   UNL     1      34.120 -21.622 -19.781  0.00  0.00    +0.038 C 
ATOM      6  C   UNL     1      34.266 -23.588 -16.058  0.00  0.00    +0.031 C 
ATOM      7  C   UNL     1      32.994 -22.803 -17.954  0.00  0.00    +0.000 C 
ATOM      8  C   UNL     1      36.558 -21.892 -18.454  0.00  0.00    +0.003 C 
ATOM      9  C   UNL     1      35.285 -21.107 -20.350  0.00  0.00    +0.149 C 
ATOM     10  C   UNL     1      33.049 -23.453 -16.720  0.00  0.00    +0.003 C 
ATOM     11  C   UNL     1      36.501 -21.243 -19.687  0.00  0.00    +0.038 C 
BRANCH   6  14
ATOM     12  N   UNL     1      33.578 -23.816 -13.683  0.00  0.00    -0.343 N 
ATOM     13  N   UNL     1      35.092 -25.329 -14.622  0.00  0.00    -0.285 NA
ATOM     14  C   UNL     1      34.322 -24.266 -14.772  0.00  0.00    +0.117 C 
ATOM     15  H   UNL     1      33.631 -24.291 -12.822  0.00  0.00    +0.144 HD
ATOM     16  H   UNL     1      33.000 -23.024 -13.774  0.00  0.00    +0.144 HD
ATOM     17  H   UNL     1      35.131 -25.789 -13.752  0.00  0.00    +0.188 HD
ENDBRANCH   6  14
ENDBRANCH   1   9
BRANCH   1  19
ATOM     18  O   UNL     1      36.210 -18.584 -20.606  0.00  0.00    -0.244 OA
ATOM     19  C   UNL     1      35.597 -19.127 -21.512  0.00  0.00    +0.346 C 
BRANCH  19  20
ATOM     20  C   UNL     1      35.153 -18.412 -22.735  0.00  0.00    +0.076 C 
ATOM     21  C   UNL     1      34.534 -19.127 -23.740  0.00  0.00    +0.008 C 
ATOM     22  C   UNL     1      35.371 -17.052 -22.828  0.00  0.00    +0.008 C 
ATOM     23  C   UNL     1      34.323 -17.080 -25.005  0.00  0.00    +0.084 C 
ATOM     24  C   UNL     1      34.115 -18.453 -24.887  0.00  0.00    +0.019 C 
ATOM     25  C   UNL     1      34.952 -16.378 -23.976  0.00  0.00    +0.019 C 
BRANCH  23  26
ATOM     26  N   UNL     1      33.905 -16.405 -26.155  0.00  0.00    -0.214 NA
BRANCH  26  29
ATOM     27  N   UNL     1      33.842 -14.230 -27.006  0.00  0.00    -0.370 N 
ATOM     28  N   UNL     1      32.746 -14.608 -25.041  0.00  0.00    -0.370 N 
ATOM     29  C   UNL     1      33.506 -15.159 -26.049  0.00  0.00    +0.193 C 
ATOM     30  H   UNL     1      34.386 -14.497 -27.782  0.00  0.00    +0.159 HD
ATOM     31  H   UNL     1      33.537 -13.297 -26.915  0.00  0.00    +0.159 HD
ATOM     32  H   UNL     1      32.440 -15.170 -24.293  0.00  0.00    +0.159 HD
ATOM     33  H   UNL     1      32.507 -13.653 -25.069  0.00  0.00    +0.159 HD
ENDBRANCH  26  29
ENDBRANCH  23  26
ENDBRANCH  19  20
ENDBRANCH   1  19
TORSDOF 6
ENDMDL
MODEL 4
REMARK VINA RESULT:     -11.1      2.875      4.649
REMARK  Name = 4413
REMARK  6 active torsions:
REMARK  status: ('A' for Active; 'I' for Inactive)
REMARK    1  A    between atoms: O_1  and  C_9
REMARK    2  A    between atoms: O_1  and  C_19
REMARK    3  A    between atoms: C_6  and  C_14
REMARK    4  A    between atoms: C_19  and  C_20
REMARK    5  A    between atoms: C_23  and  N_26
REMARK    6  A    between atoms: N_26  and  C_29
REMARK                            x       y       z     vdW  Elec       q    Type
REMARK                         _______ _______ _______ _____ _____    ______ ____
ROOT
ATOM      1  O   UNL     1      35.730 -20.332 -21.589  0.00  0.00    -0.421 OA
ENDROOT
BRANCH   1   9
ATOM      2  C   UNL     1      34.550 -22.399 -18.165  0.00  0.00    +0.000 C 
ATOM      3  C   UNL     1      35.906 -22.030 -18.337  0.00  0.00    +0.003 C 
ATOM      4  C   UNL     1      34.169 -23.095 -17.007  0.00  0.00    +0.003 C 
ATOM      5  C   UNL     1      36.286 -21.335 -19.496  0.00  0.00    +0.038 C 
ATOM      6  C   UNL     1      35.111 -23.422 -16.031  0.00  0.00    +0.031 C 
ATOM      7  C   UNL     1      36.840 -22.367 -17.345  0.00  0.00    +0.000 C 
ATOM      8  C   UNL     1      33.615 -22.062 -19.159  0.00  0.00    +0.003 C 
ATOM      9  C   UNL     1      35.344 -21.007 -20.473  0.00  0.00    +0.149 C 
ATOM     10  C   UNL     1      36.444 -23.059 -16.199  0.00  0.00    +0.003 C 
ATOM     11  C   UNL     1      34.012 -21.370 -20.303  0.00  0.00    +0.038 C 
BRANCH   6  14
ATOM     12  N   UNL     1      35.202 -25.411 -14.546  0.00  0.00    -0.343 N 
ATOM     13  N   UNL     1      33.832 -23.596 -14.004  0.00  0.00    -0.285 NA
ATOM     14  C   UNL     1      34.700 -24.143 -14.837  0.00  0.00    +0.117 C 
ATOM     15  H   UNL     1      34.911 -25.880 -13.732  0.00  0.00    +0.144 HD
ATOM     16  H   UNL     1      35.848 -25.835 -15.156  0.00  0.00    +0.144 HD
ATOM     17  H   UNL     1      33.553 -24.083 -13.194  0.00  0.00    +0.188 HD
ENDBRANCH   6  14
ENDBRANCH   1   9
BRANCH   1  19
ATOM     18  O   UNL     1      36.084 -18.323 -20.463  0.00  0.00    -0.244 OA
ATOM     19  C   UNL     1      35.722 -18.942 -21.452  0.00  0.00    +0.346 C 
BRANCH  19  20
ATOM     20  C   UNL     1      35.221 -18.283 -22.685  0.00  0.00    +0.076 C 
ATOM     21  C   UNL     1      34.625 -19.055 -23.660  0.00  0.00    +0.008 C 
ATOM     22  C   UNL     1      35.365 -16.916 -22.815  0.00  0.00    +0.008 C 
ATOM     23  C   UNL     1      34.285 -17.055 -24.972  0.00  0.00    +0.084 C 
ATOM     24  C   UNL     1      34.152 -18.434 -24.816  0.00  0.00    +0.019 C 
ATOM     25  C   UNL     1      34.892 -16.295 -23.971  0.00  0.00    +0.019 C 
BRANCH  23  26
ATOM     26  N   UNL     1      33.812 -16.433 -26.131  0.00  0.00    -0.214 NA
BRANCH  26  29
ATOM     27  N   UNL     1      33.865 -14.286 -27.051  0.00  0.00    -0.370 N 
ATOM     28  N   UNL     1      32.704 -14.554 -25.105  0.00  0.00    -0.370 N 
ATOM     29  C   UNL     1      33.465 -15.169 -26.075  0.00  0.00    +0.193 C 
ATOM     30  H   UNL     1      34.416 -14.601 -27.804  0.00  0.00    +0.159 HD
ATOM     31  H   UNL     1      33.598 -13.340 -26.998  0.00  0.00    +0.159 HD
ATOM     32  H   UNL     1      32.355 -15.078 -24.348  0.00  0.00    +0.159 HD
ATOM     33  H   UNL     1      32.507 -13.591 -25.170  0.00  0.00    +0.159 HD
ENDBRANCH  26  29
ENDBRANCH  23  26
ENDBRANCH  19  20
ENDBRANCH   1  19
TORSDOF 6
ENDMDL
MODEL 5
REMARK VINA RESULT:     -11.0      4.268      6.860
REMARK  Name = 4413
REMARK  6 active torsions:
REMARK  status: ('A' for Active; 'I' for Inactive)
REMARK    1  A    between atoms: O_1  and  C_9
REMARK    2  A    between atoms: O_1  and  C_19
REMARK    3  A    between atoms: C_6  and  C_14
REMARK    4  A    between atoms: C_19  and  C_20
REMARK    5  A    between atoms: C_23  and  N_26
REMARK    6  A    between atoms: N_26  and  C_29
REMARK                            x       y       z     vdW  Elec       q    Type
REMARK                         _______ _______ _______ _____ _____    ______ ____
ROOT
ATOM      1  O   UNL     1      36.169 -18.282 -22.947  0.00  0.00    -0.421 OA
ENDROOT
BRANCH   1   9
ATOM      2  C   UNL     1      35.471 -21.023 -19.883  0.00  0.00    +0.000 C 
ATOM      3  C   UNL     1      34.383 -20.484 -20.612  0.00  0.00    +0.003 C 
ATOM      4  C   UNL     1      35.219 -21.945 -18.854  0.00  0.00    +0.003 C 
ATOM      5  C   UNL     1      34.637 -19.562 -21.641  0.00  0.00    +0.038 C 
ATOM      6  C   UNL     1      33.914 -22.331 -18.549  0.00  0.00    +0.031 C 
ATOM      7  C   UNL     1      33.077 -20.884 -20.292  0.00  0.00    +0.000 C 
ATOM      8  C   UNL     1      36.779 -20.622 -20.204  0.00  0.00    +0.003 C 
ATOM      9  C   UNL     1      35.942 -19.175 -21.947  0.00  0.00    +0.149 C 
ATOM     10  C   UNL     1      32.844 -21.802 -19.266  0.00  0.00    +0.003 C 
ATOM     11  C   UNL     1      37.010 -19.705 -21.229  0.00  0.00    +0.038 C 
BRANCH   6  14
ATOM     12  N   UNL     1      32.375 -23.582 -17.054  0.00  0.00    -0.343 N 
ATOM     13  N   UNL     1      34.687 -23.891 -16.893  0.00  0.00    -0.285 NA
ATOM     14  C   UNL     1      33.669 -23.287 -17.481  0.00  0.00    +0.117 C 
ATOM     15  H   UNL     1      32.234 -24.233 -16.330  0.00  0.00    +0.144 HD
ATOM     16  H   UNL     1      31.604 -23.141 -17.478  0.00  0.00    +0.144 HD
ATOM     17  H   UNL     1      34.523 -24.538 -16.169  0.00  0.00    +0.188 HD
ENDBRANCH   6  14
ENDBRANCH   1   9
BRANCH   1  19
ATOM     18  O   UNL     1      34.538 -18.942 -24.475  0.00  0.00    -0.244 OA
ATOM     19  C   UNL     1      35.080 -18.081 -23.798  0.00  0.00    +0.346 C 
BRANCH  19  20
ATOM     20  C   UNL     1      34.635 -16.664 -23.777  0.00  0.00    +0.076 C 
ATOM     21  C   UNL     1      34.947 -15.882 -22.685  0.00  0.00    +0.008 C 
ATOM     22  C   UNL     1      33.924 -16.174 -24.854  0.00  0.00    +0.008 C 
ATOM     23  C   UNL     1      33.812 -14.031 -23.743  0.00  0.00    +0.084 C 
ATOM     24  C   UNL     1      34.531 -14.551 -22.668  0.00  0.00    +0.019 C 
ATOM     25  C   UNL     1      33.507 -14.842 -24.836  0.00  0.00    +0.019 C 
BRANCH  23  26
ATOM     26  N   UNL     1      33.393 -12.697 -23.725  0.00  0.00    -0.214 NA
BRANCH  26  29
ATOM     27  N   UNL     1      33.806 -11.835 -25.857  0.00  0.00    -0.370 N 
ATOM     28  N   UNL     1      34.889 -10.846 -24.108  0.00  0.00    -0.370 N 
ATOM     29  C   UNL     1      34.006 -11.830 -24.496  0.00  0.00    +0.193 C 
ATOM     30  H   UNL     1      33.196 -12.492 -26.262  0.00  0.00    +0.159 HD
ATOM     31  H   UNL     1      34.272 -11.179 -26.425  0.00  0.00    +0.159 HD
ATOM     32  H   UNL     1      35.117 -10.737 -23.158  0.00  0.00    +0.159 HD
ATOM     33  H   UNL     1      35.289 -10.250 -24.783  0.00  0.00    +0.159 HD
ENDBRANCH  26  29
ENDBRANCH  23  26
ENDBRANCH  19  20
ENDBRANCH   1  19
TORSDOF 6
ENDMDL
MODEL 6
REMARK VINA RESULT:     -10.8      2.460      8.727
REMARK  Name = 4413
REMARK  6 active torsions:
REMARK  status: ('A' for Active; 'I' for Inactive)
REMARK    1  A    between atoms: O_1  and  C_9
REMARK    2  A    between atoms: O_1  and  C_19
REMARK    3  A    between atoms: C_6  and  C_14
REMARK    4  A    between atoms: C_19  and  C_20
REMARK    5  A    between atoms: C_23  and  N_26
REMARK    6  A    between atoms: N_26  and  C_29
REMARK                            x       y       z     vdW  Elec       q    Type
REMARK                         _______ _______ _______ _____ _____    ______ ____
ROOT
ATOM      1  O   UNL     1      33.828 -23.909 -16.747  0.00  0.00    -0.421 OA
ENDROOT
BRANCH   1   9
ATOM      2  C   UNL     1      35.249 -21.283 -19.658  0.00  0.00    +0.000 C 
ATOM      3  C   UNL     1      33.862 -21.555 -19.566  0.00  0.00    +0.003 C 
ATOM      4  C   UNL     1      35.711 -20.396 -20.644  0.00  0.00    +0.003 C 
ATOM      5  C   UNL     1      33.401 -22.441 -18.579  0.00  0.00    +0.038 C 
ATOM      6  C   UNL     1      34.819 -19.785 -21.526  0.00  0.00    +0.031 C 
ATOM      7  C   UNL     1      32.979 -20.931 -20.461  0.00  0.00    +0.000 C 
ATOM      8  C   UNL     1      36.132 -21.908 -18.762  0.00  0.00    +0.003 C 
ATOM      9  C   UNL     1      34.292 -23.053 -17.697  0.00  0.00    +0.149 C 
ATOM     10  C   UNL     1      33.456 -20.052 -21.435  0.00  0.00    +0.003 C 
ATOM     11  C   UNL     1      35.655 -22.786 -17.789  0.00  0.00    +0.038 C 
BRANCH   6  14
ATOM     12  N   UNL     1      34.554 -18.558 -23.668  0.00  0.00    -0.343 N 
ATOM     13  N   UNL     1      36.506 -18.318 -22.405  0.00  0.00    -0.285 NA
ATOM     14  C   UNL     1      35.313 -18.870 -22.541  0.00  0.00    +0.117 C 
ATOM     15  H   UNL     1      34.908 -17.935 -24.343  0.00  0.00    +0.144 HD
ATOM     16  H   UNL     1      33.664 -18.961 -23.789  0.00  0.00    +0.144 HD
ATOM     17  H   UNL     1      36.842 -17.697 -23.092  0.00  0.00    +0.188 HD
ENDBRANCH   6  14
ENDBRANCH   1   9
BRANCH   1  19
ATOM     18  O   UNL     1      33.520 -22.761 -14.742  0.00  0.00    -0.244 OA
ATOM     19  C   UNL     1      34.149 -23.545 -15.437  0.00  0.00    +0.346 C 
BRANCH  19  20
ATOM     20  C   UNL     1      35.372 -24.245 -14.968  0.00  0.00    +0.076 C 
ATOM     21  C   UNL     1      35.530 -25.583 -15.265  0.00  0.00    +0.008 C 
ATOM     22  C   UNL     1      36.313 -23.535 -14.251  0.00  0.00    +0.008 C 
ATOM     23  C   UNL     1      37.646 -25.545 -14.100  0.00  0.00    +0.084 C 
ATOM     24  C   UNL     1      36.679 -26.239 -14.826  0.00  0.00    +0.019 C 
ATOM     25  C   UNL     1      37.463 -24.192 -13.811  0.00  0.00    +0.019 C 
BRANCH  23  26
ATOM     26  N   UNL     1      38.797 -26.203 -13.658  0.00  0.00    -0.214 NA
BRANCH  26  29
ATOM     27  N   UNL     1      40.983 -26.908 -14.083  0.00  0.00    -0.370 N 
ATOM     28  N   UNL     1      40.089 -25.375 -15.518  0.00  0.00    -0.370 N 
ATOM     29  C   UNL     1      39.881 -26.146 -14.395  0.00  0.00    +0.193 C 
ATOM     30  H   UNL     1      40.964 -27.505 -13.301  0.00  0.00    +0.159 HD
ATOM     31  H   UNL     1      41.792 -26.857 -14.644  0.00  0.00    +0.159 HD
ATOM     32  H   UNL     1      39.375 -24.783 -15.847  0.00  0.00    +0.159 HD
ATOM     33  H   UNL     1      40.951 -25.417 -15.992  0.00  0.00    +0.159 HD
ENDBRANCH  26  29
ENDBRANCH  23  26
ENDBRANCH  19  20
ENDBRANCH   1  19
TORSDOF 6
ENDMDL
MODEL 7
REMARK VINA RESULT:     -10.7      7.625     11.851
REMARK  Name = 4413
REMARK  6 active torsions:
REMARK  status: ('A' for Active; 'I' for Inactive)
REMARK    1  A    between atoms: O_1  and  C_9
REMARK    2  A    between atoms: O_1  and  C_19
REMARK    3  A    between atoms: C_6  and  C_14
REMARK    4  A    between atoms: C_19  and  C_20
REMARK    5  A    between atoms: C_23  and  N_26
REMARK    6  A    between atoms: N_26  and  C_29
REMARK                            x       y       z     vdW  Elec       q    Type
REMARK                         _______ _______ _______ _____ _____    ______ ____
ROOT
ATOM      1  O   UNL     1      32.999 -12.676 -24.177  0.00  0.00    -0.421 OA
ENDROOT
BRANCH   1   9
ATOM      2  C   UNL     1      34.781 -15.764 -22.014  0.00  0.00    +0.000 C 
ATOM      3  C   UNL     1      34.547 -15.915 -23.403  0.00  0.00    +0.003 C 
ATOM      4  C   UNL     1      35.383 -16.813 -21.301  0.00  0.00    +0.003 C 
ATOM      5  C   UNL     1      33.946 -14.866 -24.115  0.00  0.00    +0.038 C 
ATOM      6  C   UNL     1      35.749 -17.994 -21.946  0.00  0.00    +0.031 C 
ATOM      7  C   UNL     1      34.922 -17.110 -24.035  0.00  0.00    +0.000 C 
ATOM      8  C   UNL     1      34.406 -14.567 -21.381  0.00  0.00    +0.003 C 
ATOM      9  C   UNL     1      33.579 -13.684 -23.470  0.00  0.00    +0.149 C 
ATOM     10  C   UNL     1      35.519 -18.143 -23.311  0.00  0.00    +0.003 C 
ATOM     11  C   UNL     1      33.809 -13.536 -22.106  0.00  0.00    +0.038 C 
BRANCH   6  14
ATOM     12  N   UNL     1      35.607 -20.071 -20.592  0.00  0.00    -0.343 N 
ATOM     13  N   UNL     1      37.685 -19.113 -21.066  0.00  0.00    -0.285 NA
ATOM     14  C   UNL     1      36.370 -19.072 -21.193  0.00  0.00    +0.117 C 
ATOM     15  H   UNL     1      36.049 -20.792 -20.088  0.00  0.00    +0.144 HD
ATOM     16  H   UNL     1      34.626 -20.057 -20.673  0.00  0.00    +0.144 HD
ATOM     17  H   UNL     1      38.108 -19.842 -20.557  0.00  0.00    +0.188 HD
ENDBRANCH   6  14
ENDBRANCH   1   9
BRANCH   1  19
ATOM     18  O   UNL     1      34.735 -11.915 -25.531  0.00  0.00    -0.244 OA
ATOM     19  C   UNL     1      33.895 -11.723 -24.664  0.00  0.00    +0.346 C 
BRANCH  19  20
ATOM     20  C   UNL     1      33.701 -10.411 -23.997  0.00  0.00    +0.076 C 
ATOM     21  C   UNL     1      32.520 -10.171 -23.326  0.00  0.00    +0.008 C 
ATOM     22  C   UNL     1      34.710  -9.472 -24.069  0.00  0.00    +0.008 C 
ATOM     23  C   UNL     1      33.343  -7.973 -22.755  0.00  0.00    +0.084 C 
ATOM     24  C   UNL     1      32.340  -8.939 -22.699  0.00  0.00    +0.019 C 
ATOM     25  C   UNL     1      34.529  -8.239 -23.441  0.00  0.00    +0.019 C 
BRANCH  23  26
ATOM     26  N   UNL     1      33.162  -6.737 -22.127  0.00  0.00    -0.214 NA
BRANCH  26  29
ATOM     27  N   UNL     1      31.578  -5.889 -20.634  0.00  0.00    -0.370 N 
ATOM     28  N   UNL     1      33.047  -7.434 -19.822  0.00  0.00    -0.370 N 
ATOM     29  C   UNL     1      32.644  -6.709 -20.922  0.00  0.00    +0.193 C 
ATOM     30  H   UNL     1      31.194  -5.316 -21.337  0.00  0.00    +0.159 HD
ATOM     31  H   UNL     1      31.198  -5.876 -19.726  0.00  0.00    +0.159 HD
ATOM     32  H   UNL     1      33.803  -8.060 -19.897  0.00  0.00    +0.159 HD
ATOM     33  H   UNL     1      32.578  -7.328 -18.963  0.00  0.00    +0.159 HD
ENDBRANCH  26  29
ENDBRANCH  23  26
ENDBRANCH  19  20
ENDBRANCH   1  19
TORSDOF 6
ENDMDL
MODEL 8
REMARK VINA RESULT:     -10.7      3.891      7.911
REMARK  Name = 4413
REMARK  6 active torsions:
REMARK  status: ('A' for Active; 'I' for Inactive)
REMARK    1  A    between atoms: O_1  and  C_9
REMARK    2  A    between atoms: O_1  and  C_19
REMARK    3  A    between atoms: C_6  and  C_14
REMARK    4  A    between atoms: C_19  and  C_20
REMARK    5  A    between atoms: C_23  and  N_26
REMARK    6  A    between atoms: N_26  and  C_29
REMARK                            x       y       z     vdW  Elec       q    Type
REMARK                         _______ _______ _______ _____ _____    ______ ____
ROOT
ATOM      1  O   UNL     1      34.562 -24.975 -14.602  0.00  0.00    -0.421 OA
ENDROOT
BRANCH   1   9
ATOM      2  C   UNL     1      35.887 -22.374 -17.579  0.00  0.00    +0.000 C 
ATOM      3  C   UNL     1      34.580 -22.915 -17.643  0.00  0.00    +0.003 C 
ATOM      4  C   UNL     1      36.318 -21.499 -18.590  0.00  0.00    +0.003 C 
ATOM      5  C   UNL     1      34.150 -23.789 -16.631  0.00  0.00    +0.038 C 
ATOM      6  C   UNL     1      35.472 -21.162 -19.647  0.00  0.00    +0.031 C 
ATOM      7  C   UNL     1      33.743 -22.564 -18.713  0.00  0.00    +0.000 C 
ATOM      8  C   UNL     1      36.725 -22.725 -16.508  0.00  0.00    +0.003 C 
ATOM      9  C   UNL     1      34.995 -24.128 -15.574  0.00  0.00    +0.149 C 
ATOM     10  C   UNL     1      34.187 -21.693 -19.709  0.00  0.00    +0.003 C 
ATOM     11  C   UNL     1      36.280 -23.596 -15.513  0.00  0.00    +0.038 C 
BRANCH   6  14
ATOM     12  N   UNL     1      35.211 -20.076 -21.865  0.00  0.00    -0.343 N 
ATOM     13  N   UNL     1      37.060 -19.584 -20.521  0.00  0.00    -0.285 NA
ATOM     14  C   UNL     1      35.933 -20.255 -20.686  0.00  0.00    +0.117 C 
ATOM     15  H   UNL     1      35.542 -19.456 -22.554  0.00  0.00    +0.144 HD
ATOM     16  H   UNL     1      34.371 -20.568 -22.008  0.00  0.00    +0.144 HD
ATOM     17  H   UNL     1      37.373 -18.969 -21.223  0.00  0.00    +0.188 HD
ENDBRANCH   6  14
ENDBRANCH   1   9
BRANCH   1  19
ATOM     18  O   UNL     1      34.170 -23.934 -12.555  0.00  0.00    -0.244 OA
ATOM     19  C   UNL     1      33.769 -24.373 -13.623  0.00  0.00    +0.346 C 
BRANCH  19  20
ATOM     20  C   UNL     1      32.346 -24.314 -14.043  0.00  0.00    +0.076 C 
ATOM     21  C   UNL     1      31.729 -23.084 -14.141  0.00  0.00    +0.008 C 
ATOM     22  C   UNL     1      31.685 -25.492 -14.324  0.00  0.00    +0.008 C 
ATOM     23  C   UNL     1      29.703 -24.205 -14.828  0.00  0.00    +0.084 C 
ATOM     24  C   UNL     1      30.394 -23.029 -14.538  0.00  0.00    +0.019 C 
ATOM     25  C   UNL     1      30.348 -25.437 -14.721  0.00  0.00    +0.019 C 
BRANCH  23  26
ATOM     26  N   UNL     1      28.364 -24.150 -15.224  0.00  0.00    -0.214 NA
BRANCH  26  29
ATOM     27  N   UNL     1      27.006 -22.437 -16.047  0.00  0.00    -0.370 N 
ATOM     28  N   UNL     1      28.584 -23.281 -17.462  0.00  0.00    -0.370 N 
ATOM     29  C   UNL     1      28.025 -23.347 -16.205  0.00  0.00    +0.193 C 
ATOM     30  H   UNL     1      26.523 -22.382 -15.191  0.00  0.00    +0.159 HD
ATOM     31  H   UNL     1      26.760 -21.838 -16.790  0.00  0.00    +0.159 HD
ATOM     32  H   UNL     1      29.325 -23.882 -17.703  0.00  0.00    +0.159 HD
ATOM     33  H   UNL     1      28.243 -22.632 -18.120  0.00  0.00    +0.159 HD
ENDBRANCH  26  29
ENDBRANCH  23  26
ENDBRANCH  19  20
ENDBRANCH   1  19
TORSDOF 6
ENDMDL
MODEL 9
REMARK VINA RESULT:     -10.7      3.283      5.311
REMARK  Name = 4413
REMARK  6 active torsions:
REMARK  status: ('A' for Active; 'I' for Inactive)
REMARK    1  A    between atoms: O_1  and  C_9
REMARK    2  A    between atoms: O_1  and  C_19
REMARK    3  A    between atoms: C_6  and  C_14
REMARK    4  A    between atoms: C_19  and  C_20
REMARK    5  A    between atoms: C_23  and  N_26
REMARK    6  A    between atoms: N_26  and  C_29
REMARK                            x       y       z     vdW  Elec       q    Type
REMARK                         _______ _______ _______ _____ _____    ______ ____
ROOT
ATOM      1  O   UNL     1      35.639 -20.082 -21.826  0.00  0.00    -0.421 OA
ENDROOT
BRANCH   1   9
ATOM      2  C   UNL     1      33.245 -21.878 -18.922  0.00  0.00    +0.000 C 
ATOM      3  C   UNL     1      34.653 -22.025 -18.869  0.00  0.00    +0.003 C 
ATOM      4  C   UNL     1      32.454 -22.490 -17.937  0.00  0.00    +0.003 C 
ATOM      5  C   UNL     1      35.444 -21.413 -19.855  0.00  0.00    +0.038 C 
ATOM      6  C   UNL     1      33.040 -23.234 -16.913  0.00  0.00    +0.031 C 
ATOM      7  C   UNL     1      35.226 -22.777 -17.832  0.00  0.00    +0.000 C 
ATOM      8  C   UNL     1      32.672 -21.126 -19.961  0.00  0.00    +0.003 C 
ATOM      9  C   UNL     1      34.857 -20.669 -20.880  0.00  0.00    +0.149 C 
ATOM     10  C   UNL     1      34.424 -23.378 -16.861  0.00  0.00    +0.003 C 
ATOM     11  C   UNL     1      33.474 -20.525 -20.931  0.00  0.00    +0.038 C 
BRANCH   6  14
ATOM     12  N   UNL     1      32.751 -24.352 -14.714  0.00  0.00    -0.343 N 
ATOM     13  N   UNL     1      30.905 -23.977 -16.098  0.00  0.00    -0.285 NA
ATOM     14  C   UNL     1      32.207 -23.861 -15.900  0.00  0.00    +0.117 C 
ATOM     15  H   UNL     1      32.168 -24.772 -14.042  0.00  0.00    +0.144 HD
ATOM     16  H   UNL     1      33.719 -24.277 -14.549  0.00  0.00    +0.144 HD
ATOM     17  H   UNL     1      30.339 -24.401 -15.413  0.00  0.00    +0.188 HD
ENDBRANCH   6  14
ENDBRANCH   1   9
BRANCH   1  19
ATOM     18  O   UNL     1      37.072 -18.708 -20.607  0.00  0.00    -0.244 OA
ATOM     19  C   UNL     1      36.191 -18.859 -21.440  0.00  0.00    +0.346 C 
BRANCH  19  20
ATOM     20  C   UNL     1      35.575 -17.731 -22.184  0.00  0.00    +0.076 C 
ATOM     21  C   UNL     1      35.255 -17.905 -23.515  0.00  0.00    +0.008 C 
ATOM     22  C   UNL     1      35.341 -16.544 -21.521  0.00  0.00    +0.008 C 
ATOM     23  C   UNL     1      34.427 -15.636 -23.566  0.00  0.00    +0.084 C 
ATOM     24  C   UNL     1      34.676 -16.846 -24.213  0.00  0.00    +0.019 C 
ATOM     25  C   UNL     1      34.760 -15.484 -22.219  0.00  0.00    +0.019 C 
BRANCH  23  26
ATOM     26  N   UNL     1      33.848 -14.574 -24.265  0.00  0.00    -0.214 NA
BRANCH  26  29
ATOM     27  N   UNL     1      32.593 -13.375 -22.701  0.00  0.00    -0.370 N 
ATOM     28  N   UNL     1      34.270 -12.253 -23.768  0.00  0.00    -0.370 N 
ATOM     29  C   UNL     1      33.606 -13.453 -23.628  0.00  0.00    +0.193 C 
ATOM     30  H   UNL     1      32.041 -14.167 -22.508  0.00  0.00    +0.159 HD
ATOM     31  H   UNL     1      32.421 -12.528 -22.230  0.00  0.00    +0.159 HD
ATOM     32  H   UNL     1      35.018 -12.177 -24.402  0.00  0.00    +0.159 HD
ATOM     33  H   UNL     1      33.997 -11.474 -23.231  0.00  0.00    +0.159 HD
ENDBRANCH  26  29
ENDBRANCH  23  26
ENDBRANCH  19  20
ENDBRANCH   1  19
TORSDOF 6
ENDMDL
