MODEL 1
REMARK VINA RESULT:     -12.1      0.000      0.000
REMARK  Name = 46207733
REMARK  4 active torsions:
REMARK  status: ('A' for Active; 'I' for Inactive)
REMARK    1  A    between atoms: N_2  and  C_16
REMARK    2  A    between atoms: C_10  and  C_24
REMARK    3  A    between atoms: C_17  and  O_22
REMARK    4  A    between atoms: C_24  and  C_26
REMARK                            x       y       z     vdW  Elec       q    Type
REMARK                         _______ _______ _______ _____ _____    ______ ____
ROOT
ATOM      1  O   UNL     1      35.091 -14.137 -21.289  0.00  0.00    -0.274 OA
ATOM      2  N   UNL     1      33.813 -13.648 -23.172  0.00  0.00    -0.257 N 
ATOM      3  N   UNL     1      33.367 -15.318 -24.799  0.00  0.00    -0.252 NA
ATOM      4  C   UNL     1      34.569 -14.481 -22.345  0.00  0.00    +0.236 C 
ATOM      5  C   UNL     1      33.258 -14.114 -24.347  0.00  0.00    +0.222 C 
ATOM      6  C   UNL     1      34.717 -15.873 -22.831  0.00  0.00    +0.138 C 
ATOM      7  C   UNL     1      34.111 -16.246 -24.042  0.00  0.00    +0.068 C 
ATOM      8  C   UNL     1      34.252 -17.580 -24.509  0.00  0.00    +0.014 C 
ATOM      9  C   UNL     1      35.453 -16.792 -22.083  0.00  0.00    -0.015 C 
ATOM     10  C   UNL     1      35.593 -18.099 -22.539  0.00  0.00    -0.021 C 
ATOM     11  C   UNL     1      35.002 -18.508 -23.744  0.00  0.00    -0.003 C 
ATOM     12  C   UNL     1      33.674 -18.033 -25.716  0.00  0.00    +0.001 C 
ATOM     13  C   UNL     1      35.150 -19.830 -24.194  0.00  0.00    -0.000 C 
ATOM     14  C   UNL     1      33.831 -19.351 -26.149  0.00  0.00    +0.000 C 
ATOM     15  C   UNL     1      34.569 -20.248 -25.389  0.00  0.00    -0.000 C 
ENDROOT
BRANCH   2  16
ATOM     16  C   UNL     1      33.608 -12.269 -22.791  0.00  0.00    +0.104 C 
ATOM     17  C   UNL     1      32.215 -12.080 -22.175  0.00  0.00    +0.129 C 
ATOM     18  C   UNL     1      33.819 -11.353 -24.001  0.00  0.00    +0.022 C 
ATOM     19  C   UNL     1      31.926 -10.610 -21.867  0.00  0.00    +0.031 C 
ATOM     20  C   UNL     1      33.532  -9.892 -23.668  0.00  0.00    +0.002 C 
ATOM     21  C   UNL     1      32.134  -9.719 -23.084  0.00  0.00    +0.003 C 
BRANCH  17  22
ATOM     22  O   UNL     1      32.143 -12.823 -20.959  0.00  0.00    -0.383 OA
ATOM     23  H   UNL     1      32.871 -13.464 -20.928  0.00  0.00    +0.210 HD
ENDBRANCH  17  22
ENDBRANCH   2  16
BRANCH  10  24
ATOM     24  C   UNL     1      36.397 -19.034 -21.688  0.00  0.00    +0.054 C 
BRANCH  24  26
ATOM     25  N   UNL     1      35.448 -21.828 -19.305  0.00  0.00    -0.248 NA
ATOM     26  C   UNL     1      35.555 -20.008 -20.893  0.00  0.00    +0.001 C 
ATOM     27  C   UNL     1      34.168 -20.003 -20.994  0.00  0.00    -0.001 C 
ATOM     28  C   UNL     1      36.141 -20.930 -20.042  0.00  0.00    +0.094 C 
ATOM     29  C   UNL     1      33.420 -20.911 -20.251  0.00  0.00    +0.014 C 
ATOM     30  C   UNL     1      34.102 -21.794 -19.428  0.00  0.00    +0.059 C 
ATOM     31  C   UNL     1      33.332 -22.782 -18.616  0.00  0.00    +0.052 C 
ENDBRANCH  24  26
ENDBRANCH  10  24
TORSDOF 4
ENDMDL
MODEL 2
REMARK VINA RESULT:     -10.7      5.280      9.303
REMARK  Name = 46207733
REMARK  4 active torsions:
REMARK  status: ('A' for Active; 'I' for Inactive)
REMARK    1  A    between atoms: N_2  and  C_16
REMARK    2  A    between atoms: C_10  and  C_24
REMARK    3  A    between atoms: C_17  and  O_22
REMARK    4  A    between atoms: C_24  and  C_26
REMARK                            x       y       z     vdW  Elec       q    Type
REMARK                         _______ _______ _______ _____ _____    ______ ____
ROOT
ATOM      1  O   UNL     1      36.451 -22.290 -18.385  0.00  0.00    -0.274 OA
ATOM      2  N   UNL     1      34.587 -21.551 -19.568  0.00  0.00    -0.257 N 
ATOM      3  N   UNL     1      32.396 -21.978 -18.763  0.00  0.00    -0.252 NA
ATOM      4  C   UNL     1      35.234 -22.191 -18.509  0.00  0.00    +0.236 C 
ATOM      5  C   UNL     1      33.211 -21.483 -19.633  0.00  0.00    +0.222 C 
ATOM      6  C   UNL     1      34.331 -22.774 -17.489  0.00  0.00    +0.138 C 
ATOM      7  C   UNL     1      32.942 -22.649 -17.649  0.00  0.00    +0.068 C 
ATOM      8  C   UNL     1      32.075 -23.207 -16.673  0.00  0.00    +0.014 C 
ATOM      9  C   UNL     1      34.870 -23.438 -16.387  0.00  0.00    -0.015 C 
ATOM     10  C   UNL     1      34.023 -23.986 -15.429  0.00  0.00    -0.021 C 
ATOM     11  C   UNL     1      32.630 -23.881 -15.556  0.00  0.00    -0.003 C 
ATOM     12  C   UNL     1      30.667 -23.124 -16.762  0.00  0.00    +0.001 C 
ATOM     13  C   UNL     1      31.784 -24.438 -14.582  0.00  0.00    -0.000 C 
ATOM     14  C   UNL     1      29.841 -23.684 -15.786  0.00  0.00    +0.000 C 
ATOM     15  C   UNL     1      30.399 -24.341 -14.697  0.00  0.00    -0.000 C 
ENDROOT
BRANCH   2  16
ATOM     16  C   UNL     1      35.376 -20.948 -20.619  0.00  0.00    +0.104 C 
ATOM     17  C   UNL     1      36.276 -19.843 -20.052  0.00  0.00    +0.129 C 
ATOM     18  C   UNL     1      34.459 -20.417 -21.725  0.00  0.00    +0.022 C 
ATOM     19  C   UNL     1      37.038 -19.110 -21.157  0.00  0.00    +0.031 C 
ATOM     20  C   UNL     1      35.241 -19.697 -22.819  0.00  0.00    +0.002 C 
ATOM     21  C   UNL     1      36.108 -18.583 -22.241  0.00  0.00    +0.003 C 
BRANCH  17  22
ATOM     22  O   UNL     1      37.222 -20.430 -19.158  0.00  0.00    -0.383 OA
ATOM     23  H   UNL     1      36.829 -21.211 -18.739  0.00  0.00    +0.210 HD
ENDBRANCH  17  22
ENDBRANCH   2  16
BRANCH  10  24
ATOM     24  C   UNL     1      34.667 -24.686 -14.272  0.00  0.00    +0.054 C 
BRANCH  24  26
ATOM     25  N   UNL     1      38.430 -24.219 -14.349  0.00  0.00    -0.248 NA
ATOM     26  C   UNL     1      36.137 -24.976 -14.478  0.00  0.00    +0.001 C 
ATOM     27  C   UNL     1      36.562 -26.207 -14.966  0.00  0.00    -0.001 C 
ATOM     28  C   UNL     1      37.101 -24.025 -14.187  0.00  0.00    +0.094 C 
ATOM     29  C   UNL     1      37.921 -26.445 -15.146  0.00  0.00    +0.014 C 
ATOM     30  C   UNL     1      38.806 -25.428 -14.825  0.00  0.00    +0.059 C 
ATOM     31  C   UNL     1      40.271 -25.648 -15.006  0.00  0.00    +0.052 C 
ENDBRANCH  24  26
ENDBRANCH  10  24
TORSDOF 4
ENDMDL
MODEL 3
REMARK VINA RESULT:     -10.7      6.149     11.853
REMARK  Name = 46207733
REMARK  4 active torsions:
REMARK  status: ('A' for Active; 'I' for Inactive)
REMARK    1  A    between atoms: N_2  and  C_16
REMARK    2  A    between atoms: C_10  and  C_24
REMARK    3  A    between atoms: C_17  and  O_22
REMARK    4  A    between atoms: C_24  and  C_26
REMARK                            x       y       z     vdW  Elec       q    Type
REMARK                         _______ _______ _______ _____ _____    ______ ____
ROOT
ATOM      1  O   UNL     1      36.596 -23.403 -16.484  0.00  0.00    -0.274 OA
ATOM      2  N   UNL     1      35.834 -24.094 -14.396  0.00  0.00    -0.257 N 
ATOM      3  N   UNL     1      33.511 -24.147 -13.912  0.00  0.00    -0.252 NA
ATOM      4  C   UNL     1      35.677 -23.629 -15.702  0.00  0.00    +0.236 C 
ATOM      5  C   UNL     1      34.745 -24.324 -13.579  0.00  0.00    +0.222 C 
ATOM      6  C   UNL     1      34.272 -23.412 -16.122  0.00  0.00    +0.138 C 
ATOM      7  C   UNL     1      33.235 -23.677 -15.212  0.00  0.00    +0.068 C 
ATOM      8  C   UNL     1      31.888 -23.470 -15.612  0.00  0.00    +0.014 C 
ATOM      9  C   UNL     1      33.997 -22.948 -17.408  0.00  0.00    -0.015 C 
ATOM     10  C   UNL     1      32.679 -22.743 -17.802  0.00  0.00    -0.021 C 
ATOM     11  C   UNL     1      31.618 -22.997 -16.921  0.00  0.00    -0.003 C 
ATOM     12  C   UNL     1      30.790 -23.713 -14.757  0.00  0.00    +0.001 C 
ATOM     13  C   UNL     1      30.290 -22.787 -17.330  0.00  0.00    -0.000 C 
ATOM     14  C   UNL     1      29.477 -23.498 -15.179  0.00  0.00    +0.000 C 
ATOM     15  C   UNL     1      29.227 -23.035 -16.464  0.00  0.00    -0.000 C 
ENDROOT
BRANCH   2  16
ATOM     16  C   UNL     1      37.165 -24.338 -13.887  0.00  0.00    +0.104 C 
ATOM     17  C   UNL     1      37.568 -25.801 -14.111  0.00  0.00    +0.129 C 
ATOM     18  C   UNL     1      37.239 -23.953 -12.406  0.00  0.00    +0.022 C 
ATOM     19  C   UNL     1      38.926 -26.117 -13.480  0.00  0.00    +0.031 C 
ATOM     20  C   UNL     1      38.602 -24.270 -11.801  0.00  0.00    +0.002 C 
ATOM     21  C   UNL     1      38.976 -25.735 -12.007  0.00  0.00    +0.003 C 
BRANCH  17  22
ATOM     22  O   UNL     1      37.649 -26.048 -15.514  0.00  0.00    -0.383 OA
ATOM     23  H   UNL     1      38.131 -26.876 -15.669  0.00  0.00    +0.210 HD
ENDBRANCH  17  22
ENDBRANCH   2  16
BRANCH  10  24
ATOM     24  C   UNL     1      32.455 -22.243 -19.196  0.00  0.00    +0.054 C 
BRANCH  24  26
ATOM     25  N   UNL     1      36.001 -21.049 -19.819  0.00  0.00    -0.248 NA
ATOM     26  C   UNL     1      33.618 -21.450 -19.752  0.00  0.00    +0.001 C 
ATOM     27  C   UNL     1      33.411 -20.427 -20.671  0.00  0.00    -0.001 C 
ATOM     28  C   UNL     1      34.919 -21.720 -19.362  0.00  0.00    +0.094 C 
ATOM     29  C   UNL     1      34.499 -19.714 -21.165  0.00  0.00    +0.014 C 
ATOM     30  C   UNL     1      35.762 -20.062 -20.712  0.00  0.00    +0.059 C 
ATOM     31  C   UNL     1      36.953 -19.318 -21.220  0.00  0.00    +0.052 C 
ENDBRANCH  24  26
ENDBRANCH  10  24
TORSDOF 4
ENDMDL
MODEL 4
REMARK VINA RESULT:     -10.4      5.605     10.143
REMARK  Name = 46207733
REMARK  4 active torsions:
REMARK  status: ('A' for Active; 'I' for Inactive)
REMARK    1  A    between atoms: N_2  and  C_16
REMARK    2  A    between atoms: C_10  and  C_24
REMARK    3  A    between atoms: C_17  and  O_22
REMARK    4  A    between atoms: C_24  and  C_26
REMARK                            x       y       z     vdW  Elec       q    Type
REMARK                         _______ _______ _______ _____ _____    ______ ____
ROOT
ATOM      1  O   UNL     1      32.796 -22.588 -18.843  0.00  0.00    -0.274 OA
ATOM      2  N   UNL     1      35.058 -22.041 -18.770  0.00  0.00    -0.257 N 
ATOM      3  N   UNL     1      36.360 -22.530 -16.846  0.00  0.00    -0.252 NA
ATOM      4  C   UNL     1      33.872 -22.564 -18.252  0.00  0.00    +0.236 C 
ATOM      5  C   UNL     1      36.229 -22.054 -18.039  0.00  0.00    +0.222 C 
ATOM      6  C   UNL     1      33.983 -23.121 -16.883  0.00  0.00    +0.138 C 
ATOM      7  C   UNL     1      35.223 -23.085 -16.224  0.00  0.00    +0.068 C 
ATOM      8  C   UNL     1      35.331 -23.617 -14.912  0.00  0.00    +0.014 C 
ATOM      9  C   UNL     1      32.858 -23.670 -16.266  0.00  0.00    -0.015 C 
ATOM     10  C   UNL     1      32.961 -24.191 -14.980  0.00  0.00    -0.021 C 
ATOM     11  C   UNL     1      34.183 -24.173 -14.293  0.00  0.00    -0.003 C 
ATOM     12  C   UNL     1      36.541 -23.619 -14.184  0.00  0.00    +0.001 C 
ATOM     13  C   UNL     1      34.275 -24.703 -12.995  0.00  0.00    -0.000 C 
ATOM     14  C   UNL     1      36.615 -24.149 -12.895  0.00  0.00    +0.000 C 
ATOM     15  C   UNL     1      35.483 -24.690 -12.301  0.00  0.00    -0.000 C 
ENDROOT
BRANCH   2  16
ATOM     16  C   UNL     1      35.060 -21.472 -20.099  0.00  0.00    +0.104 C 
ATOM     17  C   UNL     1      36.303 -20.600 -20.311  0.00  0.00    +0.129 C 
ATOM     18  C   UNL     1      33.769 -20.681 -20.333  0.00  0.00    +0.022 C 
ATOM     19  C   UNL     1      36.275 -19.893 -21.668  0.00  0.00    +0.031 C 
ATOM     20  C   UNL     1      33.760 -19.992 -21.693  0.00  0.00    +0.002 C 
ATOM     21  C   UNL     1      34.988 -19.106 -21.876  0.00  0.00    +0.003 C 
BRANCH  17  22
ATOM     22  O   UNL     1      37.464 -21.428 -20.253  0.00  0.00    -0.383 OA
ATOM     23  H   UNL     1      37.584 -21.878 -21.104  0.00  0.00    +0.210 HD
ENDBRANCH  17  22
ENDBRANCH   2  16
BRANCH  10  24
ATOM     24  C   UNL     1      31.716 -24.765 -14.377  0.00  0.00    +0.054 C 
BRANCH  24  26
ATOM     25  N   UNL     1      28.921 -22.340 -15.208  0.00  0.00    -0.248 NA
ATOM     26  C   UNL     1      30.440 -24.205 -14.967  0.00  0.00    +0.001 C 
ATOM     27  C   UNL     1      29.625 -24.985 -15.780  0.00  0.00    -0.001 C 
ATOM     28  C   UNL     1      30.048 -22.901 -14.714  0.00  0.00    +0.094 C 
ATOM     29  C   UNL     1      28.458 -24.443 -16.308  0.00  0.00    +0.014 C 
ATOM     30  C   UNL     1      28.153 -23.128 -15.995  0.00  0.00    +0.059 C 
ATOM     31  C   UNL     1      26.908 -22.513 -16.544  0.00  0.00    +0.052 C 
ENDBRANCH  24  26
ENDBRANCH  10  24
TORSDOF 4
ENDMDL
MODEL 5
REMARK VINA RESULT:     -10.4      4.500      8.531
REMARK  Name = 46207733
REMARK  4 active torsions:
REMARK  status: ('A' for Active; 'I' for Inactive)
REMARK    1  A    between atoms: N_2  and  C_16
REMARK    2  A    between atoms: C_10  and  C_24
REMARK    3  A    between atoms: C_17  and  O_22
REMARK    4  A    between atoms: C_24  and  C_26
REMARK                            x       y       z     vdW  Elec       q    Type
REMARK                         _______ _______ _______ _____ _____    ______ ____
ROOT
ATOM      1  O   UNL     1      36.286 -22.069 -19.841  0.00  0.00    -0.274 OA
ATOM      2  N   UNL     1      34.374 -20.887 -20.446  0.00  0.00    -0.257 N 
ATOM      3  N   UNL     1      32.332 -21.210 -19.280  0.00  0.00    -0.252 NA
ATOM      4  C   UNL     1      35.098 -21.804 -19.682  0.00  0.00    +0.236 C 
ATOM      5  C   UNL     1      33.038 -20.645 -20.202  0.00  0.00    +0.222 C 
ATOM      6  C   UNL     1      34.322 -22.475 -18.613  0.00  0.00    +0.138 C 
ATOM      7  C   UNL     1      32.964 -22.156 -18.447  0.00  0.00    +0.068 C 
ATOM      8  C   UNL     1      32.217 -22.798 -17.424  0.00  0.00    +0.014 C 
ATOM      9  C   UNL     1      34.945 -23.411 -17.788  0.00  0.00    -0.015 C 
ATOM     10  C   UNL     1      34.216 -24.042 -16.785  0.00  0.00    -0.021 C 
ATOM     11  C   UNL     1      32.858 -23.749 -16.590  0.00  0.00    -0.003 C 
ATOM     12  C   UNL     1      30.849 -22.533 -17.193  0.00  0.00    +0.001 C 
ATOM     13  C   UNL     1      32.132 -24.392 -15.574  0.00  0.00    -0.000 C 
ATOM     14  C   UNL     1      30.142 -23.181 -16.179  0.00  0.00    +0.000 C 
ATOM     15  C   UNL     1      30.783 -24.110 -15.370  0.00  0.00    -0.000 C 
ENDROOT
BRANCH   2  16
ATOM     16  C   UNL     1      35.038 -20.177 -21.517  0.00  0.00    +0.104 C 
ATOM     17  C   UNL     1      35.810 -18.971 -20.967  0.00  0.00    +0.129 C 
ATOM     18  C   UNL     1      34.018 -19.758 -22.580  0.00  0.00    +0.022 C 
ATOM     19  C   UNL     1      36.428 -18.135 -22.089  0.00  0.00    +0.031 C 
ATOM     20  C   UNL     1      34.658 -18.933 -23.691  0.00  0.00    +0.002 C 
ATOM     21  C   UNL     1      35.397 -17.722 -23.130  0.00  0.00    +0.003 C 
BRANCH  17  22
ATOM     22  O   UNL     1      36.856 -19.439 -20.118  0.00  0.00    -0.383 OA
ATOM     23  H   UNL     1      37.479 -18.716 -19.942  0.00  0.00    +0.210 HD
ENDBRANCH  17  22
ENDBRANCH   2  16
BRANCH  10  24
ATOM     24  C   UNL     1      34.946 -25.036 -15.936  0.00  0.00    +0.054 C 
BRANCH  24  26
ATOM     25  N   UNL     1      37.605 -23.298 -13.864  0.00  0.00    -0.248 NA
ATOM     26  C   UNL     1      35.655 -24.419 -14.750  0.00  0.00    +0.001 C 
ATOM     27  C   UNL     1      35.059 -24.394 -13.494  0.00  0.00    -0.001 C 
ATOM     28  C   UNL     1      36.917 -23.863 -14.882  0.00  0.00    +0.094 C 
ATOM     29  C   UNL     1      35.735 -23.821 -12.422  0.00  0.00    +0.014 C 
ATOM     30  C   UNL     1      36.994 -23.291 -12.657  0.00  0.00    +0.059 C 
ATOM     31  C   UNL     1      37.749 -22.668 -11.530  0.00  0.00    +0.052 C 
ENDBRANCH  24  26
ENDBRANCH  10  24
TORSDOF 4
ENDMDL
MODEL 6
REMARK VINA RESULT:      -9.9      6.317     11.609
REMARK  Name = 46207733
REMARK  4 active torsions:
REMARK  status: ('A' for Active; 'I' for Inactive)
REMARK    1  A    between atoms: N_2  and  C_16
REMARK    2  A    between atoms: C_10  and  C_24
REMARK    3  A    between atoms: C_17  and  O_22
REMARK    4  A    between atoms: C_24  and  C_26
REMARK                            x       y       z     vdW  Elec       q    Type
REMARK                         _______ _______ _______ _____ _____    ______ ____
ROOT
ATOM      1  O   UNL     1      31.849 -23.097 -16.796  0.00  0.00    -0.274 OA
ATOM      2  N   UNL     1      31.209 -24.007 -14.751  0.00  0.00    -0.257 N 
ATOM      3  N   UNL     1      32.834 -24.565 -13.113  0.00  0.00    -0.252 NA
ATOM      4  C   UNL     1      32.133 -23.541 -15.687  0.00  0.00    +0.236 C 
ATOM      5  C   UNL     1      31.612 -24.491 -13.523  0.00  0.00    +0.222 C 
ATOM      6  C   UNL     1      33.549 -23.610 -15.253  0.00  0.00    +0.138 C 
ATOM      7  C   UNL     1      33.853 -24.120 -13.981  0.00  0.00    +0.068 C 
ATOM      8  C   UNL     1      35.208 -24.188 -13.563  0.00  0.00    +0.014 C 
ATOM      9  C   UNL     1      34.558 -23.171 -16.111  0.00  0.00    -0.015 C 
ATOM     10  C   UNL     1      35.887 -23.236 -15.704  0.00  0.00    -0.021 C 
ATOM     11  C   UNL     1      36.228 -23.740 -14.440  0.00  0.00    -0.003 C 
ATOM     12  C   UNL     1      35.596 -24.687 -12.300  0.00  0.00    +0.001 C 
ATOM     13  C   UNL     1      37.573 -23.801 -14.040  0.00  0.00    -0.000 C 
ATOM     14  C   UNL     1      36.937 -24.742 -11.918  0.00  0.00    +0.000 C 
ATOM     15  C   UNL     1      37.925 -24.299 -12.788  0.00  0.00    -0.000 C 
ENDROOT
BRANCH   2  16
ATOM     16  C   UNL     1      29.800 -23.984 -15.075  0.00  0.00    +0.104 C 
ATOM     17  C   UNL     1      29.529 -24.782 -16.358  0.00  0.00    +0.129 C 
ATOM     18  C   UNL     1      29.313 -22.537 -15.197  0.00  0.00    +0.022 C 
ATOM     19  C   UNL     1      28.065 -24.680 -16.789  0.00  0.00    +0.031 C 
ATOM     20  C   UNL     1      27.850 -22.461 -15.620  0.00  0.00    +0.002 C 
ATOM     21  C   UNL     1      27.603 -23.234 -16.911  0.00  0.00    +0.003 C 
BRANCH  17  22
ATOM     22  O   UNL     1      29.841 -26.154 -16.123  0.00  0.00    -0.383 OA
ATOM     23  H   UNL     1      30.804 -26.272 -16.121  0.00  0.00    +0.210 HD
ENDBRANCH  17  22
ENDBRANCH   2  16
BRANCH  10  24
ATOM     24  C   UNL     1      36.919 -22.748 -16.673  0.00  0.00    +0.054 C 
BRANCH  24  26
ATOM     25  N   UNL     1      36.585 -20.584 -19.770  0.00  0.00    -0.248 NA
ATOM     26  C   UNL     1      36.335 -22.120 -17.919  0.00  0.00    +0.001 C 
ATOM     27  C   UNL     1      35.065 -22.466 -18.367  0.00  0.00    -0.001 C 
ATOM     28  C   UNL     1      37.049 -21.183 -18.649  0.00  0.00    +0.094 C 
ATOM     29  C   UNL     1      34.554 -21.872 -19.516  0.00  0.00    +0.014 C 
ATOM     30  C   UNL     1      35.347 -20.946 -20.175  0.00  0.00    +0.059 C 
ATOM     31  C   UNL     1      34.830 -20.287 -21.412  0.00  0.00    +0.052 C 
ENDBRANCH  24  26
ENDBRANCH  10  24
TORSDOF 4
ENDMDL
MODEL 7
REMARK VINA RESULT:      -9.5      4.345     11.331
REMARK  Name = 46207733
REMARK  4 active torsions:
REMARK  status: ('A' for Active; 'I' for Inactive)
REMARK    1  A    between atoms: N_2  and  C_16
REMARK    2  A    between atoms: C_10  and  C_24
REMARK    3  A    between atoms: C_17  and  O_22
REMARK    4  A    between atoms: C_24  and  C_26
REMARK                            x       y       z     vdW  Elec       q    Type
REMARK                         _______ _______ _______ _____ _____    ______ ____
ROOT
ATOM      1  O   UNL     1      35.285 -11.151 -25.420  0.00  0.00    -0.274 OA
ATOM      2  N   UNL     1      33.769 -12.338 -24.112  0.00  0.00    -0.257 N 
ATOM      3  N   UNL     1      32.488 -11.238 -22.444  0.00  0.00    -0.252 NA
ATOM      4  C   UNL     1      34.444 -11.189 -24.526  0.00  0.00    +0.236 C 
ATOM      5  C   UNL     1      32.834 -12.296 -23.098  0.00  0.00    +0.222 C 
ATOM      6  C   UNL     1      34.074  -9.953 -23.798  0.00  0.00    +0.138 C 
ATOM      7  C   UNL     1      33.108 -10.018 -22.780  0.00  0.00    +0.068 C 
ATOM      8  C   UNL     1      32.752  -8.834 -22.081  0.00  0.00    +0.014 C 
ATOM      9  C   UNL     1      34.687  -8.744 -24.130  0.00  0.00    -0.015 C 
ATOM     10  C   UNL     1      34.341  -7.584 -23.446  0.00  0.00    -0.021 C 
ATOM     11  C   UNL     1      33.381  -7.610 -22.424  0.00  0.00    -0.003 C 
ATOM     12  C   UNL     1      31.791  -8.816 -21.046  0.00  0.00    +0.001 C 
ATOM     13  C   UNL     1      33.038  -6.431 -21.740  0.00  0.00    -0.000 C 
ATOM     14  C   UNL     1      31.464  -7.636 -20.376  0.00  0.00    +0.000 C 
ATOM     15  C   UNL     1      32.087  -6.445 -20.723  0.00  0.00    -0.000 C 
ENDROOT
BRANCH   2  16
ATOM     16  C   UNL     1      34.057 -13.600 -24.757  0.00  0.00    +0.104 C 
ATOM     17  C   UNL     1      33.038 -13.882 -25.869  0.00  0.00    +0.129 C 
ATOM     18  C   UNL     1      34.085 -14.726 -23.719  0.00  0.00    +0.022 C 
ATOM     19  C   UNL     1      33.248 -15.263 -26.493  0.00  0.00    +0.031 C 
ATOM     20  C   UNL     1      34.303 -16.091 -24.363  0.00  0.00    +0.002 C 
ATOM     21  C   UNL     1      33.265 -16.368 -25.446  0.00  0.00    +0.003 C 
BRANCH  17  22
ATOM     22  O   UNL     1      33.181 -12.894 -26.889  0.00  0.00    -0.383 OA
ATOM     23  H   UNL     1      33.852 -12.247 -26.620  0.00  0.00    +0.210 HD
ENDBRANCH  17  22
ENDBRANCH   2  16
BRANCH  10  24
ATOM     24  C   UNL     1      35.037  -6.321 -23.852  0.00  0.00    +0.054 C 
BRANCH  24  26
ATOM     25  N   UNL     1      34.384  -4.631 -27.185  0.00  0.00    -0.248 NA
ATOM     26  C   UNL     1      34.329  -5.564 -24.955  0.00  0.00    +0.001 C 
ATOM     27  C   UNL     1      33.026  -5.107 -24.786  0.00  0.00    -0.001 C 
ATOM     28  C   UNL     1      34.958  -5.303 -26.161  0.00  0.00    +0.094 C 
ATOM     29  C   UNL     1      32.401  -4.413 -25.817  0.00  0.00    +0.014 C 
ATOM     30  C   UNL     1      33.116  -4.203 -26.985  0.00  0.00    +0.059 C 
ATOM     31  C   UNL     1      32.477  -3.461 -28.112  0.00  0.00    +0.052 C 
ENDBRANCH  24  26
ENDBRANCH  10  24
TORSDOF 4
ENDMDL
MODEL 8
REMARK VINA RESULT:      -9.1      4.694     10.508
REMARK  Name = 46207733
REMARK  4 active torsions:
REMARK  status: ('A' for Active; 'I' for Inactive)
REMARK    1  A    between atoms: N_2  and  C_16
REMARK    2  A    between atoms: C_10  and  C_24
REMARK    3  A    between atoms: C_17  and  O_22
REMARK    4  A    between atoms: C_24  and  C_26
REMARK                            x       y       z     vdW  Elec       q    Type
REMARK                         _______ _______ _______ _____ _____    ______ ____
ROOT
ATOM      1  O   UNL     1      38.352 -22.636 -16.575  0.00  0.00    -0.274 OA
ATOM      2  N   UNL     1      36.347 -23.483 -15.749  0.00  0.00    -0.257 N 
ATOM      3  N   UNL     1      34.303 -23.083 -16.889  0.00  0.00    -0.252 NA
ATOM      4  C   UNL     1      37.135 -22.776 -16.658  0.00  0.00    +0.236 C 
ATOM      5  C   UNL     1      34.981 -23.594 -15.916  0.00  0.00    +0.222 C 
ATOM      6  C   UNL     1      36.392 -22.174 -17.790  0.00  0.00    +0.138 C 
ATOM      7  C   UNL     1      35.001 -22.346 -17.868  0.00  0.00    +0.068 C 
ATOM      8  C   UNL     1      34.287 -21.769 -18.952  0.00  0.00    +0.014 C 
ATOM      9  C   UNL     1      37.081 -21.444 -18.760  0.00  0.00    -0.015 C 
ATOM     10  C   UNL     1      36.383 -20.877 -19.822  0.00  0.00    -0.021 C 
ATOM     11  C   UNL     1      34.994 -21.029 -19.933  0.00  0.00    -0.003 C 
ATOM     12  C   UNL     1      32.888 -21.898 -19.101  0.00  0.00    +0.001 C 
ATOM     13  C   UNL     1      34.300 -20.453 -21.010  0.00  0.00    -0.000 C 
ATOM     14  C   UNL     1      32.214 -21.318 -20.178  0.00  0.00    +0.000 C 
ATOM     15  C   UNL     1      32.920 -20.596 -21.131  0.00  0.00    -0.000 C 
ENDROOT
BRANCH   2  16
ATOM     16  C   UNL     1      36.973 -24.110 -14.607  0.00  0.00    +0.104 C 
ATOM     17  C   UNL     1      36.623 -25.602 -14.551  0.00  0.00    +0.129 C 
ATOM     18  C   UNL     1      36.564 -23.385 -13.320  0.00  0.00    +0.022 C 
ATOM     19  C   UNL     1      37.177 -26.267 -13.290  0.00  0.00    +0.031 C 
ATOM     20  C   UNL     1      37.134 -24.062 -12.078  0.00  0.00    +0.002 C 
ATOM     21  C   UNL     1      36.752 -25.537 -12.023  0.00  0.00    +0.003 C 
BRANCH  17  22
ATOM     22  O   UNL     1      37.182 -26.251 -15.692  0.00  0.00    -0.383 OA
ATOM     23  H   UNL     1      36.469 -26.521 -16.292  0.00  0.00    +0.210 HD
ENDBRANCH  17  22
ENDBRANCH   2  16
BRANCH  10  24
ATOM     24  C   UNL     1      37.183 -20.107 -20.827  0.00  0.00    +0.054 C 
BRANCH  24  26
ATOM     25  N   UNL     1      35.734 -17.583 -23.258  0.00  0.00    -0.248 NA
ATOM     26  C   UNL     1      36.475 -18.880 -21.358  0.00  0.00    +0.001 C 
ATOM     27  C   UNL     1      35.927 -17.940 -20.492  0.00  0.00    -0.001 C 
ATOM     28  C   UNL     1      36.353 -18.658 -22.719  0.00  0.00    +0.094 C 
ATOM     29  C   UNL     1      35.282 -16.821 -21.008  0.00  0.00    +0.014 C 
ATOM     30  C   UNL     1      35.213 -16.690 -22.386  0.00  0.00    +0.059 C 
ATOM     31  C   UNL     1      34.529 -15.502 -22.976  0.00  0.00    +0.052 C 
ENDBRANCH  24  26
ENDBRANCH  10  24
TORSDOF 4
ENDMDL
