MODEL 1
REMARK VINA RESULT:     -12.1      0.000      0.000
REMARK  Name = 3815
REMARK  0 active torsions:
REMARK  status: ('A' for Active; 'I' for Inactive)
REMARK                            x       y       z     vdW  Elec       q    Type
REMARK                         _______ _______ _______ _____ _____    ______ ____
ROOT
ATOM      1  O   UNL     1      37.516 -23.042 -16.257  0.00  0.00    -0.270 OA
ATOM      2  N   UNL     1      31.037 -23.304 -17.236  0.00  0.00    -0.352 N 
ATOM      3  N   UNL     1      32.845 -22.063 -18.958  0.00  0.00    -0.352 N 
ATOM      4  N   UNL     1      36.363 -24.182 -14.560  0.00  0.00    -0.297 N 
ATOM      5  C   UNL     1      34.259 -23.954 -15.415  0.00  0.00    +0.003 A 
ATOM      6  C   UNL     1      32.918 -23.905 -15.797  0.00  0.00    +0.016 A 
ATOM      7  C   UNL     1      34.649 -22.719 -17.441  0.00  0.00    +0.022 A 
ATOM      8  C   UNL     1      32.363 -23.292 -16.965  0.00  0.00    +0.072 A 
ATOM      9  C   UNL     1      35.151 -23.328 -16.290  0.00  0.00    +0.053 A 
ATOM     10  C   UNL     1      33.269 -22.670 -17.828  0.00  0.00    +0.073 A 
ATOM     11  C   UNL     1      34.990 -24.538 -14.254  0.00  0.00    +0.117 C 
ATOM     12  C   UNL     1      31.633 -24.377 -15.271  0.00  0.00    +0.017 A 
ATOM     13  C   UNL     1      35.135 -21.970 -18.610  0.00  0.00    +0.017 A 
ATOM     14  C   UNL     1      30.554 -24.007 -16.140  0.00  0.00    +0.057 A 
ATOM     15  C   UNL     1      34.047 -21.604 -19.474  0.00  0.00    +0.057 A 
ATOM     16  C   UNL     1      36.498 -23.469 -15.750  0.00  0.00    +0.246 C 
ATOM     17  C   UNL     1      31.313 -25.103 -14.099  0.00  0.00    +0.001 C 
ATOM     18  C   UNL     1      36.434 -21.570 -19.007  0.00  0.00    +0.001 C 
ATOM     19  C   UNL     1      29.226 -24.350 -15.848  0.00  0.00    +0.017 C 
ATOM     20  C   UNL     1      34.255 -20.882 -20.659  0.00  0.00    +0.017 C 
ATOM     21  C   UNL     1      29.985 -25.440 -13.818  0.00  0.00    +0.000 C 
ATOM     22  C   UNL     1      36.630 -20.850 -20.190  0.00  0.00    +0.000 C 
ATOM     23  C   UNL     1      28.961 -25.067 -14.680  0.00  0.00    +0.001 C 
ATOM     24  C   UNL     1      35.555 -20.512 -21.003  0.00  0.00    +0.001 C 
ATOM     25  H   UNL     1      30.548 -22.920 -18.000  0.00  0.00    +0.166 HD
ATOM     26  H   UNL     1      31.933 -21.971 -19.317  0.00  0.00    +0.166 HD
ATOM     27  H   UNL     1      37.125 -24.421 -13.985  0.00  0.00    +0.150 HD
ENDROOT
TORSDOF 0
ENDMDL
MODEL 2
REMARK VINA RESULT:     -12.0      2.203      4.773
REMARK  Name = 3815
REMARK  0 active torsions:
REMARK  status: ('A' for Active; 'I' for Inactive)
REMARK                            x       y       z     vdW  Elec       q    Type
REMARK                         _______ _______ _______ _____ _____    ______ ____
ROOT
ATOM      1  O   UNL     1      31.180 -22.923 -17.228  0.00  0.00    -0.270 OA
ATOM      2  N   UNL     1      37.540 -23.603 -15.783  0.00  0.00    -0.352 N 
ATOM      3  N   UNL     1      36.566 -22.292 -18.042  0.00  0.00    -0.352 N 
ATOM      4  N   UNL     1      31.561 -24.097 -15.232  0.00  0.00    -0.297 N 
ATOM      5  C   UNL     1      33.842 -24.016 -15.261  0.00  0.00    +0.003 A 
ATOM      6  C   UNL     1      35.230 -24.055 -15.127  0.00  0.00    +0.016 A 
ATOM      7  C   UNL     1      34.295 -22.803 -17.286  0.00  0.00    +0.022 A 
ATOM      8  C   UNL     1      36.210 -23.504 -16.013  0.00  0.00    +0.072 A 
ATOM      9  C   UNL     1      33.371 -23.354 -16.399  0.00  0.00    +0.053 A 
ATOM     10  C   UNL     1      35.721 -22.847 -17.145  0.00  0.00    +0.073 A 
ATOM     11  C   UNL     1      32.703 -24.530 -14.448  0.00  0.00    +0.117 C 
ATOM     12  C   UNL     1      36.203 -24.595 -14.172  0.00  0.00    +0.017 A 
ATOM     13  C   UNL     1      34.317 -22.053 -18.553  0.00  0.00    +0.017 A 
ATOM     14  C   UNL     1      37.546 -24.312 -14.589  0.00  0.00    +0.057 A 
ATOM     15  C   UNL     1      35.665 -21.774 -18.961  0.00  0.00    +0.057 A 
ATOM     16  C   UNL     1      31.914 -23.403 -16.386  0.00  0.00    +0.246 C 
ATOM     17  C   UNL     1      36.027 -25.315 -12.967  0.00  0.00    +0.001 C 
ATOM     18  C   UNL     1      33.279 -21.584 -19.394  0.00  0.00    +0.001 C 
ATOM     19  C   UNL     1      38.651 -24.728 -13.834  0.00  0.00    +0.017 C 
ATOM     20  C   UNL     1      35.950 -21.069 -20.140  0.00  0.00    +0.017 C 
ATOM     21  C   UNL     1      37.138 -25.726 -12.222  0.00  0.00    +0.000 C 
ATOM     22  C   UNL     1      33.574 -20.882 -20.568  0.00  0.00    +0.000 C 
ATOM     23  C   UNL     1      38.427 -25.436 -12.651  0.00  0.00    +0.001 C 
ATOM     24  C   UNL     1      34.890 -20.630 -20.934  0.00  0.00    +0.001 C 
ATOM     25  H   UNL     1      38.297 -23.267 -16.316  0.00  0.00    +0.166 HD
ATOM     26  H   UNL     1      37.550 -22.263 -18.044  0.00  0.00    +0.166 HD
ATOM     27  H   UNL     1      30.628 -24.276 -14.973  0.00  0.00    +0.150 HD
ENDROOT
TORSDOF 0
ENDMDL
MODEL 3
REMARK VINA RESULT:     -11.9      0.958      5.952
REMARK  Name = 3815
REMARK  0 active torsions:
REMARK  status: ('A' for Active; 'I' for Inactive)
REMARK                            x       y       z     vdW  Elec       q    Type
REMARK                         _______ _______ _______ _____ _____    ______ ____
ROOT
ATOM      1  O   UNL     1      35.010 -24.871 -13.868  0.00  0.00    -0.270 OA
ATOM      2  N   UNL     1      32.694 -21.813 -19.187  0.00  0.00    -0.352 N 
ATOM      3  N   UNL     1      31.111 -23.135 -17.312  0.00  0.00    -0.352 N 
ATOM      4  N   UNL     1      36.688 -23.889 -15.183  0.00  0.00    -0.297 N 
ATOM      5  C   UNL     1      35.336 -23.021 -16.805  0.00  0.00    +0.003 A 
ATOM      6  C   UNL     1      34.658 -22.430 -17.870  0.00  0.00    +0.016 A 
ATOM      7  C   UNL     1      33.147 -23.694 -16.075  0.00  0.00    +0.022 A 
ATOM      8  C   UNL     1      33.247 -22.422 -18.113  0.00  0.00    +0.072 A 
ATOM      9  C   UNL     1      34.527 -23.679 -15.873  0.00  0.00    +0.053 A 
ATOM     10  C   UNL     1      32.454 -23.085 -17.172  0.00  0.00    +0.073 A 
ATOM     11  C   UNL     1      36.771 -23.121 -16.411  0.00  0.00    +0.117 C 
ATOM     12  C   UNL     1      35.002 -21.655 -19.067  0.00  0.00    +0.017 A 
ATOM     13  C   UNL     1      31.931 -24.217 -15.432  0.00  0.00    +0.017 A 
ATOM     14  C   UNL     1      33.827 -21.311 -19.814  0.00  0.00    +0.057 A 
ATOM     15  C   UNL     1      30.760 -23.868 -16.188  0.00  0.00    +0.057 A 
ATOM     16  C   UNL     1      35.385 -24.236 -14.834  0.00  0.00    +0.246 C 
ATOM     17  C   UNL     1      36.251 -21.218 -19.569  0.00  0.00    +0.001 C 
ATOM     18  C   UNL     1      31.732 -24.970 -14.249  0.00  0.00    +0.001 C 
ATOM     19  C   UNL     1      33.904 -20.569 -21.000  0.00  0.00    +0.017 C 
ATOM     20  C   UNL     1      29.474 -24.253 -15.778  0.00  0.00    +0.017 C 
ATOM     21  C   UNL     1      36.315 -20.478 -20.753  0.00  0.00    +0.000 C 
ATOM     22  C   UNL     1      30.446 -25.349 -13.851  0.00  0.00    +0.000 C 
ATOM     23  C   UNL     1      35.159 -20.160 -21.456  0.00  0.00    +0.001 C 
ATOM     24  C   UNL     1      29.335 -24.995 -14.605  0.00  0.00    +0.001 C 
ATOM     25  H   UNL     1      31.749 -21.745 -19.453  0.00  0.00    +0.166 HD
ATOM     26  H   UNL     1      30.538 -22.756 -18.016  0.00  0.00    +0.166 HD
ATOM     27  H   UNL     1      37.475 -24.141 -14.647  0.00  0.00    +0.150 HD
ENDROOT
TORSDOF 0
ENDMDL
MODEL 4
REMARK VINA RESULT:     -11.2      2.075      6.062
REMARK  Name = 3815
REMARK  0 active torsions:
REMARK  status: ('A' for Active; 'I' for Inactive)
REMARK                            x       y       z     vdW  Elec       q    Type
REMARK                         _______ _______ _______ _____ _____    ______ ____
ROOT
ATOM      1  O   UNL     1      32.556 -22.006 -18.970  0.00  0.00    -0.270 OA
ATOM      2  N   UNL     1      34.599 -25.040 -13.527  0.00  0.00    -0.352 N 
ATOM      3  N   UNL     1      31.924 -24.666 -14.216  0.00  0.00    -0.352 N 
ATOM      4  N   UNL     1      34.894 -22.101 -18.778  0.00  0.00    -0.297 N 
ATOM      5  C   UNL     1      34.991 -23.215 -16.787  0.00  0.00    +0.003 A 
ATOM      6  C   UNL     1      35.225 -23.886 -15.587  0.00  0.00    +0.016 A 
ATOM      7  C   UNL     1      32.668 -23.526 -16.249  0.00  0.00    +0.022 A 
ATOM      8  C   UNL     1      34.255 -24.403 -14.670  0.00  0.00    +0.072 A 
ATOM      9  C   UNL     1      33.644 -23.037 -17.118  0.00  0.00    +0.053 A 
ATOM     10  C   UNL     1      32.915 -24.215 -15.016  0.00  0.00    +0.073 A 
ATOM     11  C   UNL     1      35.868 -22.623 -17.838  0.00  0.00    +0.117 C 
ATOM     12  C   UNL     1      36.389 -24.316 -14.806  0.00  0.00    +0.017 A 
ATOM     13  C   UNL     1      31.202 -23.592 -16.141  0.00  0.00    +0.017 A 
ATOM     14  C   UNL     1      35.984 -24.989 -13.606  0.00  0.00    +0.057 A 
ATOM     15  C   UNL     1      30.807 -24.268 -14.936  0.00  0.00    +0.057 A 
ATOM     16  C   UNL     1      33.575 -22.326 -18.389  0.00  0.00    +0.246 C 
ATOM     17  C   UNL     1      37.777 -24.176 -15.044  0.00  0.00    +0.001 C 
ATOM     18  C   UNL     1      30.167 -23.125 -16.986  0.00  0.00    +0.001 C 
ATOM     19  C   UNL     1      36.923 -25.494 -12.695  0.00  0.00    +0.017 C 
ATOM     20  C   UNL     1      29.457 -24.458 -14.604  0.00  0.00    +0.017 C 
ATOM     21  C   UNL     1      38.705 -24.684 -14.129  0.00  0.00    +0.000 C 
ATOM     22  C   UNL     1      28.824 -23.318 -16.645  0.00  0.00    +0.000 C 
ATOM     23  C   UNL     1      38.282 -25.331 -12.974  0.00  0.00    +0.001 C 
ATOM     24  C   UNL     1      28.477 -23.976 -15.472  0.00  0.00    +0.001 C 
ATOM     25  H   UNL     1      34.025 -25.433 -12.830  0.00  0.00    +0.166 HD
ATOM     26  H   UNL     1      31.978 -25.146 -13.359  0.00  0.00    +0.166 HD
ATOM     27  H   UNL     1      35.139 -21.635 -19.610  0.00  0.00    +0.150 HD
ENDROOT
TORSDOF 0
ENDMDL
MODEL 5
REMARK VINA RESULT:     -10.8      1.690      4.527
REMARK  Name = 3815
REMARK  0 active torsions:
REMARK  status: ('A' for Active; 'I' for Inactive)
REMARK                            x       y       z     vdW  Elec       q    Type
REMARK                         _______ _______ _______ _____ _____    ______ ____
ROOT
ATOM      1  O   UNL     1      36.749 -22.471 -18.049  0.00  0.00    -0.270 OA
ATOM      2  N   UNL     1      31.775 -24.614 -14.351  0.00  0.00    -0.352 N 
ATOM      3  N   UNL     1      34.470 -24.934 -13.711  0.00  0.00    -0.352 N 
ATOM      4  N   UNL     1      34.639 -21.994 -18.959  0.00  0.00    -0.297 N 
ATOM      5  C   UNL     1      33.375 -22.936 -17.307  0.00  0.00    +0.003 A 
ATOM      6  C   UNL     1      32.462 -23.461 -16.393  0.00  0.00    +0.016 A 
ATOM      7  C   UNL     1      35.039 -23.765 -15.784  0.00  0.00    +0.022 A 
ATOM      8  C   UNL     1      32.747 -24.143 -15.167  0.00  0.00    +0.072 A 
ATOM      9  C   UNL     1      34.721 -23.104 -16.971  0.00  0.00    +0.053 A 
ATOM     10  C   UNL     1      34.097 -24.303 -14.847  0.00  0.00    +0.073 A 
ATOM     11  C   UNL     1      33.249 -22.212 -18.605  0.00  0.00    +0.117 C 
ATOM     12  C   UNL     1      31.004 -23.556 -16.262  0.00  0.00    +0.017 A 
ATOM     13  C   UNL     1      36.228 -24.177 -15.020  0.00  0.00    +0.017 A 
ATOM     14  C   UNL     1      30.639 -24.237 -15.055  0.00  0.00    +0.057 A 
ATOM     15  C   UNL     1      35.851 -24.858 -13.813  0.00  0.00    +0.057 A 
ATOM     16  C   UNL     1      35.534 -22.505 -18.022  0.00  0.00    +0.246 C 
ATOM     17  C   UNL     1      29.960 -23.101 -17.102  0.00  0.00    +0.001 C 
ATOM     18  C   UNL     1      37.613 -24.020 -15.265  0.00  0.00    +0.001 C 
ATOM     19  C   UNL     1      29.296 -24.450 -14.710  0.00  0.00    +0.017 C 
ATOM     20  C   UNL     1      36.808 -25.350 -12.913  0.00  0.00    +0.017 C 
ATOM     21  C   UNL     1      28.625 -23.319 -16.748  0.00  0.00    +0.000 C 
ATOM     22  C   UNL     1      38.559 -24.515 -14.361  0.00  0.00    +0.000 C 
ATOM     23  C   UNL     1      28.301 -23.983 -15.571  0.00  0.00    +0.001 C 
ATOM     24  C   UNL     1      38.160 -25.170 -13.202  0.00  0.00    +0.001 C 
ATOM     25  H   UNL     1      31.852 -25.093 -13.494  0.00  0.00    +0.166 HD
ATOM     26  H   UNL     1      33.914 -25.336 -13.005  0.00  0.00    +0.166 HD
ATOM     27  H   UNL     1      34.922 -21.530 -19.780  0.00  0.00    +0.150 HD
ENDROOT
TORSDOF 0
ENDMDL
