MODEL 1
REMARK VINA RESULT:     -12.6      0.000      0.000
REMARK  Name = 11634458
REMARK  5 active torsions:
REMARK  status: ('A' for Active; 'I' for Inactive)
REMARK    1  A    between atoms: N_3  and  C_11
REMARK    2  A    between atoms: C_4  and  C_19
REMARK    3  A    between atoms: C_5  and  O_35
REMARK    4  A    between atoms: N_18  and  C_22
REMARK    5  A    between atoms: C_25  and  N_29
REMARK                            x       y       z     vdW  Elec       q    Type
REMARK                         _______ _______ _______ _____ _____    ______ ____
ROOT
ATOM      1  O   UNL     1      32.156 -23.697 -13.072  0.00  0.00    -0.252 OA
ATOM      2  N   UNL     1      34.017 -24.176 -14.330  0.00  0.00    -0.255 N 
ATOM      3  N   UNL     1      31.978 -23.715 -15.396  0.00  0.00    -0.268 N 
ATOM      4  C   UNL     1      34.726 -24.543 -15.554  0.00  0.00    +0.156 C 
ATOM      5  C   UNL     1      36.267 -24.589 -13.704  0.00  0.00    +0.137 C 
ATOM      6  C   UNL     1      36.016 -25.211 -15.076  0.00  0.00    +0.061 C 
ATOM      7  C   UNL     1      34.870 -24.345 -13.155  0.00  0.00    +0.125 C 
ATOM      8  C   UNL     1      32.660 -23.849 -14.186  0.00  0.00    +0.308 C 
ATOM      9  H   UNL     1      32.510 -23.865 -16.211  0.00  0.00    +0.156 HD
ENDROOT
BRANCH   3  11
ATOM     10 CL   UNL     1      26.275 -22.347 -16.225  0.00  0.00    -0.082 Cl
ATOM     11  C   UNL     1      30.614 -23.388 -15.595  0.00  0.00    +0.052 C 
ATOM     12  C   UNL     1      29.925 -22.671 -14.620  0.00  0.00    +0.016 C 
ATOM     13  C   UNL     1      29.970 -23.785 -16.763  0.00  0.00    +0.016 C 
ATOM     14  C   UNL     1      28.581 -22.349 -14.815  0.00  0.00    +0.013 C 
ATOM     15  C   UNL     1      28.627 -23.463 -16.958  0.00  0.00    +0.013 C 
ATOM     16  C   UNL     1      27.933 -22.745 -15.984  0.00  0.00    +0.058 C 
ENDBRANCH   3  11
BRANCH   4  19
ATOM     17  O   UNL     1      35.611 -22.354 -15.803  0.00  0.00    -0.273 OA
ATOM     18  N   UNL     1      34.543 -23.385 -17.629  0.00  0.00    -0.281 N 
ATOM     19  C   UNL     1      35.021 -23.293 -16.328  0.00  0.00    +0.244 C 
ATOM     20  H   UNL     1      34.090 -24.226 -17.868  0.00  0.00    +0.155 HD
BRANCH  18  22
ATOM     21  F   UNL     1      32.271 -22.159 -18.649  0.00  0.00    -0.203 F 
ATOM     22  C   UNL     1      34.632 -22.411 -18.651  0.00  0.00    +0.078 C 
ATOM     23  C   UNL     1      33.476 -21.822 -19.132  0.00  0.00    +0.155 C 
ATOM     24  C   UNL     1      35.879 -22.067 -19.148  0.00  0.00    +0.018 C 
ATOM     25  C   UNL     1      34.814 -20.506 -20.653  0.00  0.00    +0.061 C 
ATOM     26  C   UNL     1      33.567 -20.863 -20.141  0.00  0.00    +0.046 C 
ATOM     27  C   UNL     1      35.970 -21.108 -20.157  0.00  0.00    +0.017 C 
BRANCH  25  29
ATOM     28  O   UNL     1      36.033 -17.898 -20.375  0.00  0.00    -0.269 OA
ATOM     29  N   UNL     1      34.908 -19.508 -21.702  0.00  0.00    -0.233 N 
ATOM     30  C   UNL     1      35.569 -18.278 -21.450  0.00  0.00    +0.257 C 
ATOM     31  C   UNL     1      34.334 -19.739 -22.954  0.00  0.00    +0.072 C 
ATOM     32  C   UNL     1      35.663 -17.326 -22.599  0.00  0.00    +0.059 C 
ATOM     33  C   UNL     1      34.403 -18.857 -23.955  0.00  0.00    +0.017 C 
ATOM     34  C   UNL     1      35.095 -17.617 -23.771  0.00  0.00    +0.006 C 
ENDBRANCH  25  29
ENDBRANCH  18  22
ENDBRANCH   4  19
BRANCH   5  35
ATOM     35  O   UNL     1      36.961 -23.356 -13.856  0.00  0.00    -0.352 OA
ATOM     36  C   UNL     1      37.545 -22.933 -12.632  0.00  0.00    +0.174 C 
ENDBRANCH   5  35
TORSDOF 5
ENDMDL
MODEL 2
REMARK VINA RESULT:     -10.7      2.047      2.838
REMARK  Name = 11634458
REMARK  5 active torsions:
REMARK  status: ('A' for Active; 'I' for Inactive)
REMARK    1  A    between atoms: N_3  and  C_11
REMARK    2  A    between atoms: C_4  and  C_19
REMARK    3  A    between atoms: C_5  and  O_35
REMARK    4  A    between atoms: N_18  and  C_22
REMARK    5  A    between atoms: C_25  and  N_29
REMARK                            x       y       z     vdW  Elec       q    Type
REMARK                         _______ _______ _______ _____ _____    ______ ____
ROOT
ATOM      1  O   UNL     1      33.365 -23.601 -12.271  0.00  0.00    -0.252 OA
ATOM      2  N   UNL     1      35.232 -24.766 -12.928  0.00  0.00    -0.255 N 
ATOM      3  N   UNL     1      33.298 -24.822 -14.256  0.00  0.00    -0.268 N 
ATOM      4  C   UNL     1      35.963 -25.757 -13.717  0.00  0.00    +0.156 C 
ATOM      5  C   UNL     1      37.402 -24.912 -11.982  0.00  0.00    +0.137 C 
ATOM      6  C   UNL     1      37.161 -26.145 -12.850  0.00  0.00    +0.061 C 
ATOM      7  C   UNL     1      36.009 -24.342 -11.765  0.00  0.00    +0.125 C 
ATOM      8  C   UNL     1      33.906 -24.341 -13.095  0.00  0.00    +0.308 C 
ATOM      9  H   UNL     1      33.853 -25.404 -14.824  0.00  0.00    +0.156 HD
ENDROOT
BRANCH   3  11
ATOM     10 CL   UNL     1      27.792 -23.784 -16.176  0.00  0.00    -0.082 Cl
ATOM     11  C   UNL     1      31.981 -24.574 -14.715  0.00  0.00    +0.052 C 
ATOM     12  C   UNL     1      31.740 -23.518 -15.590  0.00  0.00    +0.016 C 
ATOM     13  C   UNL     1      30.934 -25.387 -14.289  0.00  0.00    +0.016 C 
ATOM     14  C   UNL     1      30.443 -23.273 -16.043  0.00  0.00    +0.013 C 
ATOM     15  C   UNL     1      29.638 -25.143 -14.741  0.00  0.00    +0.013 C 
ATOM     16  C   UNL     1      29.393 -24.086 -15.618  0.00  0.00    +0.058 C 
ENDBRANCH   3  11
BRANCH   4  19
ATOM     17  O   UNL     1      37.411 -25.511 -15.582  0.00  0.00    -0.273 OA
ATOM     18  N   UNL     1      35.556 -24.081 -15.361  0.00  0.00    -0.281 N 
ATOM     19  C   UNL     1      36.408 -25.114 -14.997  0.00  0.00    +0.244 C 
ATOM     20  H   UNL     1      34.798 -23.908 -14.757  0.00  0.00    +0.155 HD
BRANCH  18  22
ATOM     21  F   UNL     1      37.763 -22.445 -15.767  0.00  0.00    -0.203 F 
ATOM     22  C   UNL     1      35.651 -23.246 -16.500  0.00  0.00    +0.078 C 
ATOM     23  C   UNL     1      36.768 -22.446 -16.665  0.00  0.00    +0.155 C 
ATOM     24  C   UNL     1      34.620 -23.248 -17.425  0.00  0.00    +0.018 C 
ATOM     25  C   UNL     1      35.828 -21.613 -18.730  0.00  0.00    +0.061 C 
ATOM     26  C   UNL     1      36.858 -21.623 -17.788  0.00  0.00    +0.046 C 
ATOM     27  C   UNL     1      34.709 -22.426 -18.548  0.00  0.00    +0.017 C 
BRANCH  25  29
ATOM     28  O   UNL     1      33.639 -20.961 -20.504  0.00  0.00    -0.269 OA
ATOM     29  N   UNL     1      35.922 -20.758 -19.898  0.00  0.00    -0.233 N 
ATOM     30  C   UNL     1      34.762 -20.482 -20.667  0.00  0.00    +0.257 C 
ATOM     31  C   UNL     1      37.151 -20.220 -20.285  0.00  0.00    +0.072 C 
ATOM     32  C   UNL     1      34.937 -19.553 -21.825  0.00  0.00    +0.059 C 
ATOM     33  C   UNL     1      37.287 -19.418 -21.346  0.00  0.00    +0.017 C 
ATOM     34  C   UNL     1      36.142 -19.070 -22.133  0.00  0.00    +0.006 C 
ENDBRANCH  25  29
ENDBRANCH  18  22
ENDBRANCH   4  19
BRANCH   5  35
ATOM     35  O   UNL     1      38.214 -23.980 -12.687  0.00  0.00    -0.352 OA
ATOM     36  C   UNL     1      38.256 -22.722 -12.028  0.00  0.00    +0.174 C 
ENDBRANCH   5  35
TORSDOF 5
ENDMDL
