MODEL 1
REMARK VINA RESULT:     -11.6      0.000      0.000
REMARK  Name = 10401956
REMARK  3 active torsions:
REMARK  status: ('A' for Active; 'I' for Inactive)
REMARK    1  A    between atoms: N_1  and  C_13
REMARK    2  A    between atoms: C_8  and  N_20
REMARK    3  A    between atoms: C_21  and  C_23
REMARK                            x       y       z     vdW  Elec       q    Type
REMARK                         _______ _______ _______ _____ _____    ______ ____
ROOT
ATOM      1  N   UNL     1      32.895 -22.508 -18.432  0.00  0.00    -0.301 N 
ATOM      2  N   UNL     1      33.850 -24.443 -14.901  0.00  0.00    -0.248 NA
ATOM      3  N   UNL     1      34.481 -23.566 -17.055  0.00  0.00    -0.233 NA
ATOM      4  C   UNL     1      32.201 -23.371 -16.274  0.00  0.00    +0.117 C 
ATOM      5  C   UNL     1      32.584 -24.033 -15.096  0.00  0.00    +0.067 C 
ATOM      6  C   UNL     1      33.205 -23.169 -17.218  0.00  0.00    +0.115 C 
ATOM      7  C   UNL     1      30.876 -22.947 -16.468  0.00  0.00    +0.001 C 
ATOM      8  C   UNL     1      29.920 -23.181 -15.484  0.00  0.00    +0.047 C 
ATOM      9  C   UNL     1      31.607 -24.254 -14.128  0.00  0.00    +0.016 C 
ATOM     10  C   UNL     1      30.286 -23.835 -14.313  0.00  0.00    +0.016 C 
ATOM     11  C   UNL     1      34.730 -24.187 -15.891  0.00  0.00    +0.251 C 
ATOM     12  H   UNL     1      31.949 -22.534 -18.707  0.00  0.00    +0.153 HD
ENDROOT
BRANCH   1  13
ATOM     13  C   UNL     1      33.752 -21.830 -19.280  0.00  0.00    +0.049 C 
ATOM     14  C   UNL     1      35.143 -22.040 -19.226  0.00  0.00    +0.015 C 
ATOM     15  C   UNL     1      33.257 -20.908 -20.224  0.00  0.00    +0.015 C 
ATOM     16  C   UNL     1      36.007 -21.355 -20.080  0.00  0.00    +0.001 C 
ATOM     17  C   UNL     1      34.122 -20.223 -21.079  0.00  0.00    +0.001 C 
ATOM     18  C   UNL     1      35.496 -20.448 -21.006  0.00  0.00    +0.000 C 
ENDBRANCH   1  13
BRANCH   8  20
ATOM     19  O   UNL     1      28.081 -23.534 -17.832  0.00  0.00    -0.270 OA
ATOM     20  N   UNL     1      28.603 -22.762 -15.670  0.00  0.00    -0.281 N 
ATOM     21  C   UNL     1      27.785 -22.955 -16.794  0.00  0.00    +0.250 C 
ATOM     22  H   UNL     1      28.196 -22.270 -14.920  0.00  0.00    +0.155 HD
BRANCH  21  23
ATOM     23  C   UNL     1      26.434 -22.352 -16.601  0.00  0.00    +0.058 C 
ATOM     24  C   UNL     1      25.950 -21.473 -17.484  0.00  0.00    +0.005 C 
ENDBRANCH  21  23
ENDBRANCH   8  20
TORSDOF 3
ENDMDL
MODEL 2
REMARK VINA RESULT:     -10.3      3.272      7.492
REMARK  Name = 10401956
REMARK  3 active torsions:
REMARK  status: ('A' for Active; 'I' for Inactive)
REMARK    1  A    between atoms: N_1  and  C_13
REMARK    2  A    between atoms: C_8  and  N_20
REMARK    3  A    between atoms: C_21  and  C_23
REMARK                            x       y       z     vdW  Elec       q    Type
REMARK                         _______ _______ _______ _____ _____    ______ ____
ROOT
ATOM      1  N   UNL     1      32.579 -23.951 -16.238  0.00  0.00    -0.301 N 
ATOM      2  N   UNL     1      34.816 -21.918 -19.064  0.00  0.00    -0.248 NA
ATOM      3  N   UNL     1      32.729 -22.866 -18.319  0.00  0.00    -0.233 NA
ATOM      4  C   UNL     1      34.705 -23.017 -16.935  0.00  0.00    +0.117 C 
ATOM      5  C   UNL     1      35.414 -22.324 -17.930  0.00  0.00    +0.067 C 
ATOM      6  C   UNL     1      33.359 -23.257 -17.195  0.00  0.00    +0.115 C 
ATOM      7  C   UNL     1      35.340 -23.435 -15.753  0.00  0.00    +0.001 C 
ATOM      8  C   UNL     1      36.691 -23.164 -15.555  0.00  0.00    +0.047 C 
ATOM      9  C   UNL     1      36.764 -22.065 -17.705  0.00  0.00    +0.016 C 
ATOM     10  C   UNL     1      37.403 -22.477 -16.532  0.00  0.00    +0.016 C 
ATOM     11  C   UNL     1      33.506 -22.212 -19.197  0.00  0.00    +0.251 C 
ATOM     12  H   UNL     1      33.077 -24.527 -15.613  0.00  0.00    +0.153 HD
ENDROOT
BRANCH   1  13
ATOM     13  C   UNL     1      31.206 -23.923 -16.069  0.00  0.00    +0.049 C 
ATOM     14  C   UNL     1      30.436 -22.855 -16.570  0.00  0.00    +0.015 C 
ATOM     15  C   UNL     1      30.538 -24.961 -15.390  0.00  0.00    +0.015 C 
ATOM     16  C   UNL     1      29.052 -22.826 -16.398  0.00  0.00    +0.001 C 
ATOM     17  C   UNL     1      29.154 -24.931 -15.219  0.00  0.00    +0.001 C 
ATOM     18  C   UNL     1      28.411 -23.863 -15.724  0.00  0.00    +0.000 C 
ENDBRANCH   1  13
BRANCH   8  20
ATOM     19  O   UNL     1      37.913 -25.810 -14.835  0.00  0.00    -0.270 OA
ATOM     20  N   UNL     1      37.326 -23.576 -14.384  0.00  0.00    -0.281 N 
ATOM     21  C   UNL     1      37.882 -24.831 -14.099  0.00  0.00    +0.250 C 
ATOM     22  H   UNL     1      37.392 -22.902 -13.669  0.00  0.00    +0.155 HD
BRANCH  21  23
ATOM     23  C   UNL     1      38.472 -24.873 -12.729  0.00  0.00    +0.058 C 
ATOM     24  C   UNL     1      38.107 -23.979 -11.805  0.00  0.00    +0.005 C 
ENDBRANCH  21  23
ENDBRANCH   8  20
TORSDOF 3
ENDMDL
MODEL 3
REMARK VINA RESULT:     -10.2      2.648      3.569
REMARK  Name = 10401956
REMARK  3 active torsions:
REMARK  status: ('A' for Active; 'I' for Inactive)
REMARK    1  A    between atoms: N_1  and  C_13
REMARK    2  A    between atoms: C_8  and  N_20
REMARK    3  A    between atoms: C_21  and  C_23
REMARK                            x       y       z     vdW  Elec       q    Type
REMARK                         _______ _______ _______ _____ _____    ______ ____
ROOT
ATOM      1  N   UNL     1      34.604 -22.689 -18.129  0.00  0.00    -0.301 N 
ATOM      2  N   UNL     1      37.478 -22.760 -15.152  0.00  0.00    -0.248 NA
ATOM      3  N   UNL     1      36.771 -22.165 -17.377  0.00  0.00    -0.233 NA
ATOM      4  C   UNL     1      35.260 -23.313 -15.879  0.00  0.00    +0.117 C 
ATOM      5  C   UNL     1      36.274 -23.308 -14.907  0.00  0.00    +0.067 C 
ATOM      6  C   UNL     1      35.576 -22.722 -17.099  0.00  0.00    +0.115 C 
ATOM      7  C   UNL     1      34.005 -23.888 -15.612  0.00  0.00    +0.001 C 
ATOM      8  C   UNL     1      33.753 -24.463 -14.371  0.00  0.00    +0.047 C 
ATOM      9  C   UNL     1      35.994 -23.890 -13.673  0.00  0.00    +0.016 C 
ATOM     10  C   UNL     1      34.749 -24.464 -13.400  0.00  0.00    +0.016 C 
ATOM     11  C   UNL     1      37.660 -22.219 -16.373  0.00  0.00    +0.251 C 
ATOM     12  H   UNL     1      33.895 -23.370 -18.073  0.00  0.00    +0.153 HD
ENDROOT
BRANCH   1  13
ATOM     13  C   UNL     1      34.524 -21.820 -19.202  0.00  0.00    +0.049 C 
ATOM     14  C   UNL     1      35.687 -21.336 -19.832  0.00  0.00    +0.015 C 
ATOM     15  C   UNL     1      33.275 -21.393 -19.696  0.00  0.00    +0.015 C 
ATOM     16  C   UNL     1      35.605 -20.459 -20.913  0.00  0.00    +0.001 C 
ATOM     17  C   UNL     1      33.195 -20.515 -20.778  0.00  0.00    +0.001 C 
ATOM     18  C   UNL     1      34.360 -20.049 -21.386  0.00  0.00    +0.000 C 
ENDBRANCH   1  13
BRANCH   8  20
ATOM     19  O   UNL     1      31.041 -23.196 -14.135  0.00  0.00    -0.270 OA
ATOM     20  N   UNL     1      32.510 -25.034 -14.101  0.00  0.00    -0.281 N 
ATOM     21  C   UNL     1      31.267 -24.392 -14.001  0.00  0.00    +0.250 C 
ATOM     22  H   UNL     1      32.504 -26.009 -13.962  0.00  0.00    +0.155 HD
BRANCH  21  23
ATOM     23  C   UNL     1      30.171 -25.358 -13.697  0.00  0.00    +0.058 C 
ATOM     24  C   UNL     1      29.248 -25.650 -14.619  0.00  0.00    +0.005 C 
ENDBRANCH  21  23
ENDBRANCH   8  20
TORSDOF 3
ENDMDL
MODEL 4
REMARK VINA RESULT:     -10.0      1.845      2.531
REMARK  Name = 10401956
REMARK  3 active torsions:
REMARK  status: ('A' for Active; 'I' for Inactive)
REMARK    1  A    between atoms: N_1  and  C_13
REMARK    2  A    between atoms: C_8  and  N_20
REMARK    3  A    between atoms: C_21  and  C_23
REMARK                            x       y       z     vdW  Elec       q    Type
REMARK                         _______ _______ _______ _____ _____    ______ ____
ROOT
ATOM      1  N   UNL     1      34.691 -22.188 -18.901  0.00  0.00    -0.301 N 
ATOM      2  N   UNL     1      36.533 -23.230 -15.344  0.00  0.00    -0.248 NA
ATOM      3  N   UNL     1      36.620 -22.281 -17.557  0.00  0.00    -0.233 NA
ATOM      4  C   UNL     1      34.543 -23.156 -16.682  0.00  0.00    +0.117 C 
ATOM      5  C   UNL     1      35.221 -23.487 -15.497  0.00  0.00    +0.067 C 
ATOM      6  C   UNL     1      35.306 -22.551 -17.677  0.00  0.00    +0.115 C 
ATOM      7  C   UNL     1      33.172 -23.428 -16.831  0.00  0.00    +0.001 C 
ATOM      8  C   UNL     1      32.467 -24.035 -15.796  0.00  0.00    +0.047 C 
ATOM      9  C   UNL     1      34.491 -24.093 -14.478  0.00  0.00    +0.016 C 
ATOM     10  C   UNL     1      33.127 -24.368 -14.618  0.00  0.00    +0.016 C 
ATOM     11  C   UNL     1      37.160 -22.641 -16.382  0.00  0.00    +0.251 C 
ATOM     12  H   UNL     1      33.868 -22.678 -19.131  0.00  0.00    +0.153 HD
ENDROOT
BRANCH   1  13
ATOM     13  C   UNL     1      35.100 -21.232 -19.813  0.00  0.00    +0.049 C 
ATOM     14  C   UNL     1      36.455 -20.861 -19.917  0.00  0.00    +0.015 C 
ATOM     15  C   UNL     1      34.171 -20.600 -20.664  0.00  0.00    +0.015 C 
ATOM     16  C   UNL     1      36.866 -19.896 -20.836  0.00  0.00    +0.001 C 
ATOM     17  C   UNL     1      34.584 -19.635 -21.583  0.00  0.00    +0.001 C 
ATOM     18  C   UNL     1      35.931 -19.283 -21.669  0.00  0.00    +0.000 C 
ENDBRANCH   1  13
BRANCH   8  20
ATOM     19  O   UNL     1      30.076 -22.684 -14.580  0.00  0.00    -0.270 OA
ATOM     20  N   UNL     1      31.106 -24.307 -15.938  0.00  0.00    -0.281 N 
ATOM     21  C   UNL     1      30.025 -23.641 -15.344  0.00  0.00    +0.250 C 
ATOM     22  H   UNL     1      30.877 -25.061 -16.529  0.00  0.00    +0.155 HD
BRANCH  21  23
ATOM     23  C   UNL     1      28.720 -24.239 -15.749  0.00  0.00    +0.058 C 
ATOM     24  C   UNL     1      28.142 -23.891 -16.904  0.00  0.00    +0.005 C 
ENDBRANCH  21  23
ENDBRANCH   8  20
TORSDOF 3
ENDMDL
MODEL 5
REMARK VINA RESULT:     -10.0      6.880     10.284
REMARK  Name = 10401956
REMARK  3 active torsions:
REMARK  status: ('A' for Active; 'I' for Inactive)
REMARK    1  A    between atoms: N_1  and  C_13
REMARK    2  A    between atoms: C_8  and  N_20
REMARK    3  A    between atoms: C_21  and  C_23
REMARK                            x       y       z     vdW  Elec       q    Type
REMARK                         _______ _______ _______ _____ _____    ______ ____
ROOT
ATOM      1  N   UNL     1      35.286 -17.438 -22.178  0.00  0.00    -0.301 N 
ATOM      2  N   UNL     1      34.050 -16.962 -26.099  0.00  0.00    -0.248 NA
ATOM      3  N   UNL     1      35.091 -18.276 -24.368  0.00  0.00    -0.233 NA
ATOM      4  C   UNL     1      34.229 -16.070 -23.880  0.00  0.00    +0.117 C 
ATOM      5  C   UNL     1      33.832 -15.966 -25.223  0.00  0.00    +0.067 C 
ATOM      6  C   UNL     1      34.857 -17.259 -23.517  0.00  0.00    +0.115 C 
ATOM      7  C   UNL     1      33.996 -15.023 -22.972  0.00  0.00    +0.001 C 
ATOM      8  C   UNL     1      33.363 -13.860 -23.400  0.00  0.00    +0.047 C 
ATOM      9  C   UNL     1      33.201 -14.791 -25.624  0.00  0.00    +0.016 C 
ATOM     10  C   UNL     1      32.965 -13.744 -24.727  0.00  0.00    +0.016 C 
ATOM     11  C   UNL     1      34.667 -18.063 -25.624  0.00  0.00    +0.251 C 
ATOM     12  H   UNL     1      35.441 -16.614 -21.662  0.00  0.00    +0.153 HD
ENDROOT
BRANCH   1  13
ATOM     13  C   UNL     1      35.514 -18.625 -21.505  0.00  0.00    +0.049 C 
ATOM     14  C   UNL     1      34.453 -19.499 -21.196  0.00  0.00    +0.015 C 
ATOM     15  C   UNL     1      36.814 -18.992 -21.106  0.00  0.00    +0.015 C 
ATOM     16  C   UNL     1      34.684 -20.694 -20.515  0.00  0.00    +0.001 C 
ATOM     17  C   UNL     1      37.043 -20.189 -20.425  0.00  0.00    +0.001 C 
ATOM     18  C   UNL     1      35.978 -21.039 -20.130  0.00  0.00    +0.000 C 
ENDBRANCH   1  13
BRANCH   8  20
ATOM     19  O   UNL     1      31.718 -13.787 -20.889  0.00  0.00    -0.270 OA
ATOM     20  N   UNL     1      33.129 -12.817 -22.504  0.00  0.00    -0.281 N 
ATOM     21  C   UNL     1      32.347 -12.838 -21.340  0.00  0.00    +0.250 C 
ATOM     22  H   UNL     1      33.566 -11.960 -22.715  0.00  0.00    +0.155 HD
BRANCH  21  23
ATOM     23  C   UNL     1      32.348 -11.513 -20.653  0.00  0.00    +0.058 C 
ATOM     24  C   UNL     1      31.218 -10.809 -20.534  0.00  0.00    +0.005 C 
ENDBRANCH  21  23
ENDBRANCH   8  20
TORSDOF 3
ENDMDL
MODEL 6
REMARK VINA RESULT:      -9.9      2.247      3.712
REMARK  Name = 10401956
REMARK  3 active torsions:
REMARK  status: ('A' for Active; 'I' for Inactive)
REMARK    1  A    between atoms: N_1  and  C_13
REMARK    2  A    between atoms: C_8  and  N_20
REMARK    3  A    between atoms: C_21  and  C_23
REMARK                            x       y       z     vdW  Elec       q    Type
REMARK                         _______ _______ _______ _____ _____    ______ ____
ROOT
ATOM      1  N   UNL     1      34.320 -20.644 -20.787  0.00  0.00    -0.301 N 
ATOM      2  N   UNL     1      36.695 -22.375 -17.873  0.00  0.00    -0.248 NA
ATOM      3  N   UNL     1      36.451 -21.078 -19.889  0.00  0.00    -0.233 NA
ATOM      4  C   UNL     1      34.504 -21.956 -18.756  0.00  0.00    +0.117 C 
ATOM      5  C   UNL     1      35.360 -22.521 -17.796  0.00  0.00    +0.067 C 
ATOM      6  C   UNL     1      35.118 -21.243 -19.781  0.00  0.00    +0.115 C 
ATOM      7  C   UNL     1      33.110 -22.115 -18.665  0.00  0.00    +0.001 C 
ATOM      8  C   UNL     1      32.560 -22.840 -17.613  0.00  0.00    +0.047 C 
ATOM      9  C   UNL     1      34.781 -23.242 -16.754  0.00  0.00    +0.016 C 
ATOM     10  C   UNL     1      33.396 -23.404 -16.656  0.00  0.00    +0.016 C 
ATOM     11  C   UNL     1      37.167 -21.662 -18.915  0.00  0.00    +0.251 C 
ATOM     12  H   UNL     1      33.426 -21.037 -20.918  0.00  0.00    +0.153 HD
ENDROOT
BRANCH   1  13
ATOM     13  C   UNL     1      34.637 -19.577 -21.608  0.00  0.00    +0.049 C 
ATOM     14  C   UNL     1      35.200 -18.399 -21.081  0.00  0.00    +0.015 C 
ATOM     15  C   UNL     1      34.403 -19.638 -22.996  0.00  0.00    +0.015 C 
ATOM     16  C   UNL     1      35.518 -17.323 -21.909  0.00  0.00    +0.001 C 
ATOM     17  C   UNL     1      34.721 -18.560 -23.824  0.00  0.00    +0.001 C 
ATOM     18  C   UNL     1      35.278 -17.403 -23.280  0.00  0.00    +0.000 C 
ENDBRANCH   1  13
BRANCH   8  20
ATOM     19  O   UNL     1      30.794 -23.096 -15.198  0.00  0.00    -0.270 OA
ATOM     20  N   UNL     1      31.177 -23.001 -17.518  0.00  0.00    -0.281 N 
ATOM     21  C   UNL     1      30.399 -23.115 -16.357  0.00  0.00    +0.250 C 
ATOM     22  H   UNL     1      30.687 -23.038 -18.372  0.00  0.00    +0.155 HD
BRANCH  21  23
ATOM     23  C   UNL     1      28.951 -23.275 -16.680  0.00  0.00    +0.058 C 
ATOM     24  C   UNL     1      28.014 -22.812 -15.846  0.00  0.00    +0.005 C 
ENDBRANCH  21  23
ENDBRANCH   8  20
TORSDOF 3
ENDMDL
MODEL 7
REMARK VINA RESULT:      -9.9      7.323     11.098
REMARK  Name = 10401956
REMARK  3 active torsions:
REMARK  status: ('A' for Active; 'I' for Inactive)
REMARK    1  A    between atoms: N_1  and  C_13
REMARK    2  A    between atoms: C_8  and  N_20
REMARK    3  A    between atoms: C_21  and  C_23
REMARK                            x       y       z     vdW  Elec       q    Type
REMARK                         _______ _______ _______ _____ _____    ______ ____
ROOT
ATOM      1  N   UNL     1      35.492 -17.824 -22.677  0.00  0.00    -0.301 N 
ATOM      2  N   UNL     1      33.355 -18.040 -26.215  0.00  0.00    -0.248 NA
ATOM      3  N   UNL     1      34.600 -19.097 -24.443  0.00  0.00    -0.233 NA
ATOM      4  C   UNL     1      34.248 -16.705 -24.433  0.00  0.00    +0.117 C 
ATOM      5  C   UNL     1      33.533 -16.840 -25.634  0.00  0.00    +0.067 C 
ATOM      6  C   UNL     1      34.758 -17.880 -23.888  0.00  0.00    +0.115 C 
ATOM      7  C   UNL     1      34.427 -15.446 -23.835  0.00  0.00    +0.001 C 
ATOM      8  C   UNL     1      33.891 -14.309 -24.432  0.00  0.00    +0.047 C 
ATOM      9  C   UNL     1      33.007 -15.686 -26.210  0.00  0.00    +0.016 C 
ATOM     10  C   UNL     1      33.179 -14.430 -25.621  0.00  0.00    +0.016 C 
ATOM     11  C   UNL     1      33.899 -19.103 -25.587  0.00  0.00    +0.251 C 
ATOM     12  H   UNL     1      35.903 -16.954 -22.463  0.00  0.00    +0.153 HD
ENDROOT
BRANCH   1  13
ATOM     13  C   UNL     1      35.704 -18.834 -21.757  0.00  0.00    +0.049 C 
ATOM     14  C   UNL     1      36.984 -19.068 -21.218  0.00  0.00    +0.015 C 
ATOM     15  C   UNL     1      34.645 -19.661 -21.333  0.00  0.00    +0.015 C 
ATOM     16  C   UNL     1      37.198 -20.088 -20.292  0.00  0.00    +0.001 C 
ATOM     17  C   UNL     1      34.860 -20.681 -20.406  0.00  0.00    +0.001 C 
ATOM     18  C   UNL     1      36.136 -20.895 -19.885  0.00  0.00    +0.000 C 
ENDBRANCH   1  13
BRANCH   8  20
ATOM     19  O   UNL     1      33.834 -11.564 -25.647  0.00  0.00    -0.270 OA
ATOM     20  N   UNL     1      34.064 -13.057 -23.843  0.00  0.00    -0.281 N 
ATOM     21  C   UNL     1      34.027 -11.799 -24.461  0.00  0.00    +0.250 C 
ATOM     22  H   UNL     1      34.233 -13.057 -22.873  0.00  0.00    +0.155 HD
BRANCH  21  23
ATOM     23  C   UNL     1      34.261 -10.698 -23.481  0.00  0.00    +0.058 C 
ATOM     24  C   UNL     1      34.601  -9.475 -23.902  0.00  0.00    +0.005 C 
ENDBRANCH  21  23
ENDBRANCH   8  20
TORSDOF 3
ENDMDL
MODEL 8
REMARK VINA RESULT:      -9.8      2.634      6.827
REMARK  Name = 10401956
REMARK  3 active torsions:
REMARK  status: ('A' for Active; 'I' for Inactive)
REMARK    1  A    between atoms: N_1  and  C_13
REMARK    2  A    between atoms: C_8  and  N_20
REMARK    3  A    between atoms: C_21  and  C_23
REMARK                            x       y       z     vdW  Elec       q    Type
REMARK                         _______ _______ _______ _____ _____    ______ ____
ROOT
ATOM      1  N   UNL     1      32.699 -23.363 -15.211  0.00  0.00    -0.301 N 
ATOM      2  N   UNL     1      36.099 -24.388 -13.085  0.00  0.00    -0.248 NA
ATOM      3  N   UNL     1      33.701 -24.339 -13.320  0.00  0.00    -0.233 NA
ATOM      4  C   UNL     1      35.118 -23.382 -15.029  0.00  0.00    +0.117 C 
ATOM      5  C   UNL     1      36.235 -23.754 -14.263  0.00  0.00    +0.067 C 
ATOM      6  C   UNL     1      33.873 -23.707 -14.496  0.00  0.00    +0.115 C 
ATOM      7  C   UNL     1      35.272 -22.721 -16.260  0.00  0.00    +0.001 C 
ATOM      8  C   UNL     1      36.545 -22.425 -16.736  0.00  0.00    +0.047 C 
ATOM      9  C   UNL     1      37.498 -23.446 -14.764  0.00  0.00    +0.016 C 
ATOM     10  C   UNL     1      37.659 -22.789 -15.988  0.00  0.00    +0.016 C 
ATOM     11  C   UNL     1      34.839 -24.645 -12.678  0.00  0.00    +0.251 C 
ATOM     12  H   UNL     1      32.789 -22.624 -15.856  0.00  0.00    +0.153 HD
ENDROOT
BRANCH   1  13
ATOM     13  C   UNL     1      31.443 -23.935 -15.120  0.00  0.00    +0.049 C 
ATOM     14  C   UNL     1      31.279 -25.253 -14.649  0.00  0.00    +0.015 C 
ATOM     15  C   UNL     1      30.291 -23.216 -15.496  0.00  0.00    +0.015 C 
ATOM     16  C   UNL     1      30.013 -25.829 -14.558  0.00  0.00    +0.001 C 
ATOM     17  C   UNL     1      29.025 -23.795 -15.405  0.00  0.00    +0.001 C 
ATOM     18  C   UNL     1      28.886 -25.101 -14.936  0.00  0.00    +0.000 C 
ENDBRANCH   1  13
BRANCH   8  20
ATOM     19  O   UNL     1      35.076 -22.768 -19.333  0.00  0.00    -0.270 OA
ATOM     20  N   UNL     1      36.704 -21.770 -17.957  0.00  0.00    -0.281 N 
ATOM     21  C   UNL     1      35.986 -21.970 -19.145  0.00  0.00    +0.250 C 
ATOM     22  H   UNL     1      37.408 -21.081 -17.988  0.00  0.00    +0.155 HD
BRANCH  21  23
ATOM     23  C   UNL     1      36.461 -21.066 -20.233  0.00  0.00    +0.058 C 
ATOM     24  C   UNL     1      35.614 -20.226 -20.836  0.00  0.00    +0.005 C 
ENDBRANCH  21  23
ENDBRANCH   8  20
TORSDOF 3
ENDMDL
MODEL 9
REMARK VINA RESULT:      -9.7     12.389     15.146
REMARK  Name = 10401956
REMARK  3 active torsions:
REMARK  status: ('A' for Active; 'I' for Inactive)
REMARK    1  A    between atoms: N_1  and  C_13
REMARK    2  A    between atoms: C_8  and  N_20
REMARK    3  A    between atoms: C_21  and  C_23
REMARK                            x       y       z     vdW  Elec       q    Type
REMARK                         _______ _______ _______ _____ _____    ______ ____
ROOT
ATOM      1  N   UNL     1      33.404  -7.909 -23.489  0.00  0.00    -0.301 N 
ATOM      2  N   UNL     1      31.848  -8.670 -19.731  0.00  0.00    -0.248 NA
ATOM      3  N   UNL     1      32.701  -7.136 -21.382  0.00  0.00    -0.233 NA
ATOM      4  C   UNL     1      32.554  -9.500 -21.868  0.00  0.00    +0.117 C 
ATOM      5  C   UNL     1      32.030  -9.697 -20.580  0.00  0.00    +0.067 C 
ATOM      6  C   UNL     1      32.870  -8.187 -22.207  0.00  0.00    +0.115 C 
ATOM      7  C   UNL     1      32.739 -10.580 -22.747  0.00  0.00    +0.001 C 
ATOM      8  C   UNL     1      32.403 -11.869 -22.346  0.00  0.00    +0.047 C 
ATOM      9  C   UNL     1      31.701 -10.998 -20.205  0.00  0.00    +0.016 C 
ATOM     10  C   UNL     1      31.882 -12.078 -21.073  0.00  0.00    +0.016 C 
ATOM     11  C   UNL     1      32.194  -7.446 -20.178  0.00  0.00    +0.251 C 
ATOM     12  H   UNL     1      33.847  -8.663 -23.944  0.00  0.00    +0.153 HD
ENDROOT
BRANCH   1  13
ATOM     13  C   UNL     1      33.381  -6.714 -24.185  0.00  0.00    +0.049 C 
ATOM     14  C   UNL     1      32.216  -5.924 -24.232  0.00  0.00    +0.015 C 
ATOM     15  C   UNL     1      34.524  -6.252 -24.868  0.00  0.00    +0.015 C 
ATOM     16  C   UNL     1      32.193  -4.720 -24.935  0.00  0.00    +0.001 C 
ATOM     17  C   UNL     1      34.499  -5.047 -25.571  0.00  0.00    +0.001 C 
ATOM     18  C   UNL     1      33.334  -4.281 -25.604  0.00  0.00    +0.000 C 
ENDBRANCH   1  13
BRANCH   8  20
ATOM     19  O   UNL     1      34.585 -13.929 -22.460  0.00  0.00    -0.270 OA
ATOM     20  N   UNL     1      32.584 -12.946 -23.214  0.00  0.00    -0.281 N 
ATOM     21  C   UNL     1      33.628 -13.882 -23.222  0.00  0.00    +0.250 C 
ATOM     22  H   UNL     1      31.894 -13.062 -23.907  0.00  0.00    +0.155 HD
BRANCH  21  23
ATOM     23  C   UNL     1      33.460 -14.883 -24.316  0.00  0.00    +0.058 C 
ATOM     24  C   UNL     1      33.129 -14.491 -25.551  0.00  0.00    +0.005 C 
ENDBRANCH  21  23
ENDBRANCH   8  20
TORSDOF 3
ENDMDL
