MODEL 1
REMARK VINA RESULT:     -11.6      0.000      0.000
REMARK  Name = 25243828
REMARK  6 active torsions:
REMARK  status: ('A' for Active; 'I' for Inactive)
REMARK    1  A    between atoms: C_1  and  C_18
REMARK    2  A    between atoms: C_4  and  O_7
REMARK    3  A    between atoms: O_7  and  C_9
REMARK    4  A    between atoms: C_11  and  C_17
REMARK    5  A    between atoms: C_18  and  C_21
REMARK    6  A    between atoms: C_26  and  O_27
REMARK                            x       y       z     vdW  Elec       q    Type
REMARK                         _______ _______ _______ _____ _____    ______ ____
ROOT
ATOM      1  C   UNL     1      33.938 -23.636 -15.015  0.00  0.00    -0.019 C 
ATOM      2  C   UNL     1      34.089 -23.747 -16.397  0.00  0.00    +0.033 C 
ATOM      3  C   UNL     1      32.699 -23.295 -14.472  0.00  0.00    -0.004 C 
ATOM      4  C   UNL     1      32.999 -23.515 -17.237  0.00  0.00    +0.147 C 
ATOM      5  C   UNL     1      31.610 -23.064 -15.313  0.00  0.00    +0.003 C 
ATOM      6  C   UNL     1      31.760 -23.174 -16.695  0.00  0.00    +0.038 C 
ENDROOT
BRANCH   4   7
ATOM      7  O   UNL     1      33.145 -23.621 -18.586  0.00  0.00    -0.436 OA
BRANCH   7   9
ATOM      8  N   UNL     1      32.894 -21.692 -19.874  0.00  0.00    -0.210 NA
ATOM      9  C   UNL     1      33.728 -22.558 -19.256  0.00  0.00    +0.230 C 
ATOM     10  C   UNL     1      35.108 -22.441 -19.257  0.00  0.00    +0.058 C 
ATOM     11  C   UNL     1      34.844 -20.451 -20.582  0.00  0.00    +0.091 C 
ATOM     12  C   UNL     1      35.669 -21.363 -19.935  0.00  0.00    +0.010 C 
ATOM     13  C   UNL     1      33.475 -20.657 -20.523  0.00  0.00    +0.106 C 
BRANCH  11  17
ATOM     14  F   UNL     1      34.911 -18.082 -20.915  0.00  0.00    -0.166 F 
ATOM     15  F   UNL     1      36.770 -19.168 -21.188  0.00  0.00    -0.166 F 
ATOM     16  F   UNL     1      35.181 -19.348 -22.662  0.00  0.00    -0.166 F 
ATOM     17  C   UNL     1      35.414 -19.289 -21.317  0.00  0.00    +0.420 C 
ENDBRANCH  11  17
ENDBRANCH   7   9
ENDBRANCH   4   7
BRANCH   1  18
ATOM     18  C   UNL     1      35.112 -23.883 -14.108  0.00  0.00    +0.027 C 
BRANCH  18  21
ATOM     19  O   UNL     1      41.190 -24.816 -14.513  0.00  0.00    -0.226 OA
ATOM     20  N   UNL     1      39.006 -25.504 -14.924  0.00  0.00    -0.246 N 
ATOM     21  C   UNL     1      36.270 -24.545 -14.852  0.00  0.00    +0.008 C 
ATOM     22  C   UNL     1      37.465 -23.586 -14.970  0.00  0.00    +0.022 C 
ATOM     23  C   UNL     1      36.694 -25.848 -14.155  0.00  0.00    +0.022 C 
ATOM     24  C   UNL     1      38.661 -24.268 -15.633  0.00  0.00    +0.097 C 
ATOM     25  C   UNL     1      37.905 -26.473 -14.846  0.00  0.00    +0.097 C 
ATOM     26  C   UNL     1      40.298 -25.658 -14.412  0.00  0.00    +0.402 C 
BRANCH  26  27
ATOM     27  O   UNL     1      40.554 -26.826 -13.755  0.00  0.00    -0.466 OA
ATOM     28  H   UNL     1      41.000 -27.522 -14.196  0.00  0.00    +0.297 HD
ENDBRANCH  26  27
ENDBRANCH  18  21
ENDBRANCH   1  18
TORSDOF 6
ENDMDL
MODEL 2
REMARK VINA RESULT:     -11.0      3.252      5.974
REMARK  Name = 25243828
REMARK  6 active torsions:
REMARK  status: ('A' for Active; 'I' for Inactive)
REMARK    1  A    between atoms: C_1  and  C_18
REMARK    2  A    between atoms: C_4  and  O_7
REMARK    3  A    between atoms: O_7  and  C_9
REMARK    4  A    between atoms: C_11  and  C_17
REMARK    5  A    between atoms: C_18  and  C_21
REMARK    6  A    between atoms: C_26  and  O_27
REMARK                            x       y       z     vdW  Elec       q    Type
REMARK                         _______ _______ _______ _____ _____    ______ ____
ROOT
ATOM      1  C   UNL     1      33.614 -24.205 -14.754  0.00  0.00    -0.019 C 
ATOM      2  C   UNL     1      33.314 -24.249 -16.115  0.00  0.00    +0.033 C 
ATOM      3  C   UNL     1      34.735 -23.505 -14.309  0.00  0.00    -0.004 C 
ATOM      4  C   UNL     1      34.135 -23.592 -17.032  0.00  0.00    +0.147 C 
ATOM      5  C   UNL     1      35.557 -22.848 -15.226  0.00  0.00    +0.003 C 
ATOM      6  C   UNL     1      35.256 -22.891 -16.588  0.00  0.00    +0.038 C 
ENDROOT
BRANCH   4   7
ATOM      7  O   UNL     1      33.844 -23.636 -18.361  0.00  0.00    -0.436 OA
BRANCH   7   9
ATOM      8  N   UNL     1      35.554 -22.427 -19.388  0.00  0.00    -0.210 NA
ATOM      9  C   UNL     1      34.231 -22.560 -19.141  0.00  0.00    +0.230 C 
ATOM     10  C   UNL     1      33.262 -21.694 -19.620  0.00  0.00    +0.058 C 
ATOM     11  C   UNL     1      35.029 -20.452 -20.679  0.00  0.00    +0.091 C 
ATOM     12  C   UNL     1      33.677 -20.622 -20.404  0.00  0.00    +0.010 C 
ATOM     13  C   UNL     1      35.920 -21.374 -20.153  0.00  0.00    +0.106 C 
BRANCH  11  17
ATOM     14  F   UNL     1      36.853 -19.101 -21.437  0.00  0.00    -0.166 F 
ATOM     15  F   UNL     1      35.246 -19.466 -22.848  0.00  0.00    -0.166 F 
ATOM     16  F   UNL     1      34.929 -18.126 -21.164  0.00  0.00    -0.166 F 
ATOM     17  C   UNL     1      35.504 -19.315 -21.513  0.00  0.00    +0.420 C 
ENDBRANCH  11  17
ENDBRANCH   7   9
ENDBRANCH   4   7
BRANCH   1  18
ATOM     18  C   UNL     1      32.731 -24.914 -13.765  0.00  0.00    +0.027 C 
BRANCH  18  21
ATOM     19  O   UNL     1      28.399 -22.322 -17.298  0.00  0.00    -0.226 OA
ATOM     20  N   UNL     1      29.014 -23.791 -15.602  0.00  0.00    -0.246 N 
ATOM     21  C   UNL     1      31.268 -24.507 -13.923  0.00  0.00    +0.008 C 
ATOM     22  C   UNL     1      31.152 -23.124 -14.583  0.00  0.00    +0.022 C 
ATOM     23  C   UNL     1      30.494 -25.557 -14.739  0.00  0.00    +0.022 C 
ATOM     24  C   UNL     1      29.692 -22.747 -14.829  0.00  0.00    +0.097 C 
ATOM     25  C   UNL     1      29.050 -25.118 -14.972  0.00  0.00    +0.097 C 
ATOM     26  C   UNL     1      28.408 -23.455 -16.817  0.00  0.00    +0.402 C 
BRANCH  26  27
ATOM     27  O   UNL     1      27.802 -24.472 -17.494  0.00  0.00    -0.466 OA
ATOM     28  H   UNL     1      27.187 -25.026 -17.054  0.00  0.00    +0.297 HD
ENDBRANCH  26  27
ENDBRANCH  18  21
ENDBRANCH   1  18
TORSDOF 6
ENDMDL
MODEL 3
REMARK VINA RESULT:     -10.7      6.314     11.318
REMARK  Name = 25243828
REMARK  6 active torsions:
REMARK  status: ('A' for Active; 'I' for Inactive)
REMARK    1  A    between atoms: C_1  and  C_18
REMARK    2  A    between atoms: C_4  and  O_7
REMARK    3  A    between atoms: O_7  and  C_9
REMARK    4  A    between atoms: C_11  and  C_17
REMARK    5  A    between atoms: C_18  and  C_21
REMARK    6  A    between atoms: C_26  and  O_27
REMARK                            x       y       z     vdW  Elec       q    Type
REMARK                         _______ _______ _______ _____ _____    ______ ____
ROOT
ATOM      1  C   UNL     1      35.026 -16.407 -21.908  0.00  0.00    -0.019 C 
ATOM      2  C   UNL     1      35.667 -17.443 -21.230  0.00  0.00    +0.033 C 
ATOM      3  C   UNL     1      34.712 -16.548 -23.260  0.00  0.00    -0.004 C 
ATOM      4  C   UNL     1      35.996 -18.620 -21.903  0.00  0.00    +0.147 C 
ATOM      5  C   UNL     1      35.040 -17.724 -23.934  0.00  0.00    +0.003 C 
ATOM      6  C   UNL     1      35.682 -18.761 -23.255  0.00  0.00    +0.038 C 
ENDROOT
BRANCH   4   7
ATOM      7  O   UNL     1      36.624 -19.631 -21.243  0.00  0.00    -0.436 OA
BRANCH   7   9
ATOM      8  N   UNL     1      36.488 -21.171 -19.496  0.00  0.00    -0.210 NA
ATOM      9  C   UNL     1      35.848 -20.466 -20.456  0.00  0.00    +0.230 C 
ATOM     10  C   UNL     1      34.484 -20.532 -20.687  0.00  0.00    +0.058 C 
ATOM     11  C   UNL     1      34.350 -22.117 -18.884  0.00  0.00    +0.091 C 
ATOM     12  C   UNL     1      33.727 -21.375 -19.881  0.00  0.00    +0.010 C 
ATOM     13  C   UNL     1      35.720 -21.981 -18.733  0.00  0.00    +0.106 C 
BRANCH  11  17
ATOM     14  F   UNL     1      32.254 -22.674 -17.872  0.00  0.00    -0.166 F 
ATOM     15  F   UNL     1      33.540 -24.325 -18.446  0.00  0.00    -0.166 F 
ATOM     16  F   UNL     1      34.059 -23.090 -16.733  0.00  0.00    -0.166 F 
ATOM     17  C   UNL     1      33.568 -23.030 -18.006  0.00  0.00    +0.420 C 
ENDBRANCH  11  17
ENDBRANCH   7   9
ENDBRANCH   4   7
BRANCH   1  18
ATOM     18  C   UNL     1      34.673 -15.137 -21.184  0.00  0.00    +0.027 C 
BRANCH  18  21
ATOM     19  O   UNL     1      31.561  -9.843 -21.691  0.00  0.00    -0.226 OA
ATOM     20  N   UNL     1      32.494 -11.742 -22.659  0.00  0.00    -0.246 N 
ATOM     21  C   UNL     1      33.659 -14.306 -21.967  0.00  0.00    +0.008 C 
ATOM     22  C   UNL     1      32.710 -13.561 -21.015  0.00  0.00    +0.022 C 
ATOM     23  C   UNL     1      34.372 -13.313 -22.900  0.00  0.00    +0.022 C 
ATOM     24  C   UNL     1      31.751 -12.655 -21.785  0.00  0.00    +0.097 C 
ATOM     25  C   UNL     1      33.366 -12.421 -23.626  0.00  0.00    +0.097 C 
ATOM     26  C   UNL     1      32.314 -10.363 -22.515  0.00  0.00    +0.402 C 
BRANCH  26  27
ATOM     27  O   UNL     1      33.040  -9.567 -23.350  0.00  0.00    -0.466 OA
ATOM     28  H   UNL     1      32.720  -9.376 -24.210  0.00  0.00    +0.297 HD
ENDBRANCH  26  27
ENDBRANCH  18  21
ENDBRANCH   1  18
TORSDOF 6
ENDMDL
MODEL 4
REMARK VINA RESULT:     -10.6      4.863      9.620
REMARK  Name = 25243828
REMARK  6 active torsions:
REMARK  status: ('A' for Active; 'I' for Inactive)
REMARK    1  A    between atoms: C_1  and  C_18
REMARK    2  A    between atoms: C_4  and  O_7
REMARK    3  A    between atoms: O_7  and  C_9
REMARK    4  A    between atoms: C_11  and  C_17
REMARK    5  A    between atoms: C_18  and  C_21
REMARK    6  A    between atoms: C_26  and  O_27
REMARK                            x       y       z     vdW  Elec       q    Type
REMARK                         _______ _______ _______ _____ _____    ______ ____
ROOT
ATOM      1  C   UNL     1      35.066 -19.845 -20.865  0.00  0.00    -0.019 C 
ATOM      2  C   UNL     1      35.521 -20.946 -20.141  0.00  0.00    +0.033 C 
ATOM      3  C   UNL     1      33.700 -19.672 -21.089  0.00  0.00    -0.004 C 
ATOM      4  C   UNL     1      34.609 -21.877 -19.641  0.00  0.00    +0.147 C 
ATOM      5  C   UNL     1      32.788 -20.603 -20.590  0.00  0.00    +0.003 C 
ATOM      6  C   UNL     1      33.243 -21.706 -19.865  0.00  0.00    +0.038 C 
ENDROOT
BRANCH   4   7
ATOM      7  O   UNL     1      35.052 -22.954 -18.937  0.00  0.00    -0.436 OA
BRANCH   7   9
ATOM      8  N   UNL     1      35.335 -23.254 -16.641  0.00  0.00    -0.210 NA
ATOM      9  C   UNL     1      34.489 -23.186 -17.693  0.00  0.00    +0.230 C 
ATOM     10  C   UNL     1      33.115 -23.331 -17.594  0.00  0.00    +0.058 C 
ATOM     11  C   UNL     1      33.412 -23.637 -15.227  0.00  0.00    +0.091 C 
ATOM     12  C   UNL     1      32.573 -23.560 -16.333  0.00  0.00    +0.010 C 
ATOM     13  C   UNL     1      34.773 -23.479 -15.432  0.00  0.00    +0.106 C 
BRANCH  11  17
ATOM     14  F   UNL     1      31.947 -22.951 -13.464  0.00  0.00    -0.166 F 
ATOM     15  F   UNL     1      32.223 -25.085 -13.740  0.00  0.00    -0.166 F 
ATOM     16  F   UNL     1      33.828 -23.884 -12.899  0.00  0.00    -0.166 F 
ATOM     17  C   UNL     1      32.864 -23.884 -13.866  0.00  0.00    +0.420 C 
ENDBRANCH  11  17
ENDBRANCH   7   9
ENDBRANCH   4   7
BRANCH   1  18
ATOM     18  C   UNL     1      36.047 -18.841 -21.405  0.00  0.00    +0.027 C 
BRANCH  18  21
ATOM     19  O   UNL     1      32.114 -18.492 -26.136  0.00  0.00    -0.226 OA
ATOM     20  N   UNL     1      34.132 -17.910 -25.136  0.00  0.00    -0.246 N 
ATOM     21  C   UNL     1      35.844 -18.603 -22.900  0.00  0.00    +0.008 C 
ATOM     22  C   UNL     1      34.819 -19.593 -23.477  0.00  0.00    +0.022 C 
ATOM     23  C   UNL     1      35.401 -17.155 -23.167  0.00  0.00    +0.022 C 
ATOM     24  C   UNL     1      34.541 -19.305 -24.952  0.00  0.00    +0.097 C 
ATOM     25  C   UNL     1      35.116 -16.932 -24.651  0.00  0.00    +0.097 C 
ATOM     26  C   UNL     1      32.901 -17.633 -25.738  0.00  0.00    +0.402 C 
BRANCH  26  27
ATOM     27  O   UNL     1      32.574 -16.316 -25.872  0.00  0.00    -0.466 OA
ATOM     28  H   UNL     1      32.777 -15.712 -25.186  0.00  0.00    +0.297 HD
ENDBRANCH  26  27
ENDBRANCH  18  21
ENDBRANCH   1  18
TORSDOF 6
ENDMDL
MODEL 5
REMARK VINA RESULT:     -10.5      5.152      8.828
REMARK  Name = 25243828
REMARK  6 active torsions:
REMARK  status: ('A' for Active; 'I' for Inactive)
REMARK    1  A    between atoms: C_1  and  C_18
REMARK    2  A    between atoms: C_4  and  O_7
REMARK    3  A    between atoms: O_7  and  C_9
REMARK    4  A    between atoms: C_11  and  C_17
REMARK    5  A    between atoms: C_18  and  C_21
REMARK    6  A    between atoms: C_26  and  O_27
REMARK                            x       y       z     vdW  Elec       q    Type
REMARK                         _______ _______ _______ _____ _____    ______ ____
ROOT
ATOM      1  C   UNL     1      35.287 -18.472 -22.372  0.00  0.00    -0.019 C 
ATOM      2  C   UNL     1      35.480 -17.100 -22.528  0.00  0.00    +0.033 C 
ATOM      3  C   UNL     1      34.654 -19.207 -23.375  0.00  0.00    -0.004 C 
ATOM      4  C   UNL     1      35.037 -16.461 -23.686  0.00  0.00    +0.147 C 
ATOM      5  C   UNL     1      34.211 -18.568 -24.533  0.00  0.00    +0.003 C 
ATOM      6  C   UNL     1      34.403 -17.195 -24.690  0.00  0.00    +0.038 C 
ENDROOT
BRANCH   4   7
ATOM      7  O   UNL     1      35.222 -15.121 -23.839  0.00  0.00    -0.436 OA
BRANCH   7   9
ATOM      8  N   UNL     1      33.968 -13.154 -23.850  0.00  0.00    -0.210 NA
ATOM      9  C   UNL     1      34.343 -14.272 -23.188  0.00  0.00    +0.230 C 
ATOM     10  C   UNL     1      33.902 -14.606 -21.917  0.00  0.00    +0.058 C 
ATOM     11  C   UNL     1      32.609 -12.578 -21.936  0.00  0.00    +0.091 C 
ATOM     12  C   UNL     1      33.018 -13.737 -21.286  0.00  0.00    +0.010 C 
ATOM     13  C   UNL     1      33.108 -12.334 -23.205  0.00  0.00    +0.106 C 
BRANCH  11  17
ATOM     14  F   UNL     1      31.880 -10.321 -21.624  0.00  0.00    -0.166 F 
ATOM     15  F   UNL     1      30.353 -11.861 -21.592  0.00  0.00    -0.166 F 
ATOM     16  F   UNL     1      31.732 -11.666 -19.922  0.00  0.00    -0.166 F 
ATOM     17  C   UNL     1      31.665 -11.628 -21.286  0.00  0.00    +0.420 C 
ENDBRANCH  11  17
ENDBRANCH   7   9
ENDBRANCH   4   7
BRANCH   1  18
ATOM     18  C   UNL     1      35.762 -19.163 -21.123  0.00  0.00    +0.027 C 
BRANCH  18  21
ATOM     19  O   UNL     1      33.853 -23.478 -17.160  0.00  0.00    -0.226 OA
ATOM     20  N   UNL     1      33.650 -22.367 -19.195  0.00  0.00    -0.246 N 
ATOM     21  C   UNL     1      35.051 -20.497 -20.912  0.00  0.00    +0.008 C 
ATOM     22  C   UNL     1      35.788 -21.351 -19.868  0.00  0.00    +0.022 C 
ATOM     23  C   UNL     1      33.589 -20.276 -20.490  0.00  0.00    +0.022 C 
ATOM     24  C   UNL     1      35.035 -22.650 -19.583  0.00  0.00    +0.097 C 
ATOM     25  C   UNL     1      32.894 -21.605 -20.197  0.00  0.00    +0.097 C 
ATOM     26  C   UNL     1      33.179 -22.833 -17.963  0.00  0.00    +0.402 C 
BRANCH  26  27
ATOM     27  O   UNL     1      31.885 -22.530 -17.656  0.00  0.00    -0.466 OA
ATOM     28  H   UNL     1      31.408 -23.069 -17.056  0.00  0.00    +0.297 HD
ENDBRANCH  26  27
ENDBRANCH  18  21
ENDBRANCH   1  18
TORSDOF 6
ENDMDL
MODEL 6
REMARK VINA RESULT:     -10.3      3.580      5.449
REMARK  Name = 25243828
REMARK  6 active torsions:
REMARK  status: ('A' for Active; 'I' for Inactive)
REMARK    1  A    between atoms: C_1  and  C_18
REMARK    2  A    between atoms: C_4  and  O_7
REMARK    3  A    between atoms: O_7  and  C_9
REMARK    4  A    between atoms: C_11  and  C_17
REMARK    5  A    between atoms: C_18  and  C_21
REMARK    6  A    between atoms: C_26  and  O_27
REMARK                            x       y       z     vdW  Elec       q    Type
REMARK                         _______ _______ _______ _____ _____    ______ ____
ROOT
ATOM      1  C   UNL     1      34.861 -21.646 -19.789  0.00  0.00    -0.019 C 
ATOM      2  C   UNL     1      35.711 -20.758 -20.447  0.00  0.00    +0.033 C 
ATOM      3  C   UNL     1      33.478 -21.502 -19.900  0.00  0.00    -0.004 C 
ATOM      4  C   UNL     1      35.177 -19.723 -21.216  0.00  0.00    +0.147 C 
ATOM      5  C   UNL     1      32.945 -20.467 -20.669  0.00  0.00    +0.003 C 
ATOM      6  C   UNL     1      33.794 -19.578 -21.328  0.00  0.00    +0.038 C 
ENDROOT
BRANCH   4   7
ATOM      7  O   UNL     1      36.005 -18.853 -21.857  0.00  0.00    -0.436 OA
BRANCH   7   9
ATOM      8  N   UNL     1      35.264 -16.684 -21.427  0.00  0.00    -0.210 NA
ATOM      9  C   UNL     1      35.458 -17.672 -22.329  0.00  0.00    +0.230 C 
ATOM     10  C   UNL     1      35.146 -17.567 -23.675  0.00  0.00    +0.058 C 
ATOM     11  C   UNL     1      34.386 -15.329 -23.227  0.00  0.00    +0.091 C 
ATOM     12  C   UNL     1      34.601 -16.369 -24.125  0.00  0.00    +0.010 C 
ATOM     13  C   UNL     1      34.732 -15.534 -21.901  0.00  0.00    +0.106 C 
BRANCH  11  17
ATOM     14  F   UNL     1      34.610 -12.957 -23.445  0.00  0.00    -0.166 F 
ATOM     15  F   UNL     1      33.530 -13.993 -25.016  0.00  0.00    -0.166 F 
ATOM     16  F   UNL     1      32.621 -13.745 -23.057  0.00  0.00    -0.166 F 
ATOM     17  C   UNL     1      33.803 -14.036 -23.677  0.00  0.00    +0.420 C 
ENDBRANCH  11  17
ENDBRANCH   7   9
ENDBRANCH   4   7
BRANCH   1  18
ATOM     18  C   UNL     1      35.435 -22.761 -18.958  0.00  0.00    +0.027 C 
BRANCH  18  21
ATOM     19  O   UNL     1      35.902 -24.675 -13.120  0.00  0.00    -0.226 OA
ATOM     20  N   UNL     1      36.194 -23.030 -14.739  0.00  0.00    -0.246 N 
ATOM     21  C   UNL     1      35.493 -22.389 -17.479  0.00  0.00    +0.008 C 
ATOM     22  C   UNL     1      34.662 -23.369 -16.635  0.00  0.00    +0.022 C 
ATOM     23  C   UNL     1      36.947 -22.350 -16.981  0.00  0.00    +0.022 C 
ATOM     24  C   UNL     1      34.786 -23.059 -15.143  0.00  0.00    +0.097 C 
ATOM     25  C   UNL     1      37.008 -22.059 -15.482  0.00  0.00    +0.097 C 
ATOM     26  C   UNL     1      36.629 -23.883 -13.719  0.00  0.00    +0.402 C 
BRANCH  26  27
ATOM     27  O   UNL     1      37.952 -23.815 -13.395  0.00  0.00    -0.466 OA
ATOM     28  H   UNL     1      38.548 -23.359 -13.955  0.00  0.00    +0.297 HD
ENDBRANCH  26  27
ENDBRANCH  18  21
ENDBRANCH   1  18
TORSDOF 6
ENDMDL
MODEL 7
REMARK VINA RESULT:     -10.1      5.000      9.410
REMARK  Name = 25243828
REMARK  6 active torsions:
REMARK  status: ('A' for Active; 'I' for Inactive)
REMARK    1  A    between atoms: C_1  and  C_18
REMARK    2  A    between atoms: C_4  and  O_7
REMARK    3  A    between atoms: O_7  and  C_9
REMARK    4  A    between atoms: C_11  and  C_17
REMARK    5  A    between atoms: C_18  and  C_21
REMARK    6  A    between atoms: C_26  and  O_27
REMARK                            x       y       z     vdW  Elec       q    Type
REMARK                         _______ _______ _______ _____ _____    ______ ____
ROOT
ATOM      1  C   UNL     1      34.773 -21.256 -19.882  0.00  0.00    -0.019 C 
ATOM      2  C   UNL     1      34.166 -22.035 -18.897  0.00  0.00    +0.033 C 
ATOM      3  C   UNL     1      36.155 -21.065 -19.868  0.00  0.00    -0.004 C 
ATOM      4  C   UNL     1      34.941 -22.623 -17.897  0.00  0.00    +0.147 C 
ATOM      5  C   UNL     1      36.930 -21.653 -18.868  0.00  0.00    +0.003 C 
ATOM      6  C   UNL     1      36.323 -22.433 -17.883  0.00  0.00    +0.038 C 
ENDROOT
BRANCH   4   7
ATOM      7  O   UNL     1      34.350 -23.381 -16.934  0.00  0.00    -0.436 OA
BRANCH   7   9
ATOM      8  N   UNL     1      35.436 -25.132 -15.841  0.00  0.00    -0.210 NA
ATOM      9  C   UNL     1      35.137 -23.814 -15.881  0.00  0.00    +0.230 C 
ATOM     10  C   UNL     1      35.571 -22.891 -14.943  0.00  0.00    +0.058 C 
ATOM     11  C   UNL     1      36.692 -24.700 -13.821  0.00  0.00    +0.091 C 
ATOM     12  C   UNL     1      36.364 -23.351 -13.896  0.00  0.00    +0.010 C 
ATOM     13  C   UNL     1      36.207 -25.542 -14.809  0.00  0.00    +0.106 C 
BRANCH  11  17
ATOM     14  F   UNL     1      37.373 -26.560 -12.479  0.00  0.00    -0.166 F 
ATOM     15  F   UNL     1      38.878 -25.061 -12.920  0.00  0.00    -0.166 F 
ATOM     16  F   UNL     1      37.278 -24.612 -11.518  0.00  0.00    -0.166 F 
ATOM     17  C   UNL     1      37.536 -25.222 -12.712  0.00  0.00    +0.420 C 
ENDBRANCH  11  17
ENDBRANCH   7   9
ENDBRANCH   4   7
BRANCH   1  18
ATOM     18  C   UNL     1      33.938 -20.620 -20.960  0.00  0.00    +0.027 C 
BRANCH  18  21
ATOM     19  O   UNL     1      34.044 -15.877 -24.893  0.00  0.00    -0.226 OA
ATOM     20  N   UNL     1      35.093 -17.206 -23.296  0.00  0.00    -0.246 N 
ATOM     21  C   UNL     1      34.771 -19.695 -21.844  0.00  0.00    +0.008 C 
ATOM     22  C   UNL     1      34.065 -19.439 -23.186  0.00  0.00    +0.022 C 
ATOM     23  C   UNL     1      35.059 -18.366 -21.127  0.00  0.00    +0.022 C 
ATOM     24  C   UNL     1      34.847 -18.443 -24.042  0.00  0.00    +0.097 C 
ATOM     25  C   UNL     1      35.822 -17.404 -22.036  0.00  0.00    +0.097 C 
ATOM     26  C   UNL     1      34.644 -15.991 -23.824  0.00  0.00    +0.402 C 
BRANCH  26  27
ATOM     27  O   UNL     1      34.896 -14.876 -23.079  0.00  0.00    -0.466 OA
ATOM     28  H   UNL     1      34.299 -14.621 -22.404  0.00  0.00    +0.297 HD
ENDBRANCH  26  27
ENDBRANCH  18  21
ENDBRANCH   1  18
TORSDOF 6
ENDMDL
MODEL 8
REMARK VINA RESULT:     -10.0      6.595     11.905
REMARK  Name = 25243828
REMARK  6 active torsions:
REMARK  status: ('A' for Active; 'I' for Inactive)
REMARK    1  A    between atoms: C_1  and  C_18
REMARK    2  A    between atoms: C_4  and  O_7
REMARK    3  A    between atoms: O_7  and  C_9
REMARK    4  A    between atoms: C_11  and  C_17
REMARK    5  A    between atoms: C_18  and  C_21
REMARK    6  A    between atoms: C_26  and  O_27
REMARK                            x       y       z     vdW  Elec       q    Type
REMARK                         _______ _______ _______ _____ _____    ______ ____
ROOT
ATOM      1  C   UNL     1      33.838 -16.423 -25.092  0.00  0.00    -0.019 C 
ATOM      2  C   UNL     1      34.576 -16.589 -23.920  0.00  0.00    +0.033 C 
ATOM      3  C   UNL     1      33.472 -17.535 -25.850  0.00  0.00    -0.004 C 
ATOM      4  C   UNL     1      34.949 -17.868 -23.507  0.00  0.00    +0.147 C 
ATOM      5  C   UNL     1      33.845 -18.814 -25.437  0.00  0.00    +0.003 C 
ATOM      6  C   UNL     1      34.584 -18.981 -24.265  0.00  0.00    +0.038 C 
ENDROOT
BRANCH   4   7
ATOM      7  O   UNL     1      35.672 -18.031 -22.365  0.00  0.00    -0.436 OA
BRANCH   7   9
ATOM      8  N   UNL     1      36.379 -19.695 -20.891  0.00  0.00    -0.210 NA
ATOM      9  C   UNL     1      35.356 -19.106 -21.552  0.00  0.00    +0.230 C 
ATOM     10  C   UNL     1      34.036 -19.514 -21.458  0.00  0.00    +0.058 C 
ATOM     11  C   UNL     1      34.770 -21.225 -19.936  0.00  0.00    +0.091 C 
ATOM     12  C   UNL     1      33.745 -20.594 -20.632  0.00  0.00    +0.010 C 
ATOM     13  C   UNL     1      36.058 -20.742 -20.098  0.00  0.00    +0.106 C 
BRANCH  11  17
ATOM     14  F   UNL     1      34.467 -23.586 -19.698  0.00  0.00    -0.166 F 
ATOM     15  F   UNL     1      35.410 -22.543 -18.045  0.00  0.00    -0.166 F 
ATOM     16  F   UNL     1      33.282 -22.290 -18.417  0.00  0.00    -0.166 F 
ATOM     17  C   UNL     1      34.491 -22.385 -19.046  0.00  0.00    +0.420 C 
ENDBRANCH  11  17
ENDBRANCH   7   9
ENDBRANCH   4   7
BRANCH   1  18
ATOM     18  C   UNL     1      33.436 -15.044 -25.540  0.00  0.00    +0.027 C 
BRANCH  18  21
ATOM     19  O   UNL     1      32.532  -9.319 -23.448  0.00  0.00    -0.226 OA
ATOM     20  N   UNL     1      33.086 -11.547 -23.071  0.00  0.00    -0.246 N 
ATOM     21  C   UNL     1      33.752 -13.993 -24.479  0.00  0.00    +0.008 C 
ATOM     22  C   UNL     1      33.941 -12.608 -25.119  0.00  0.00    +0.022 C 
ATOM     23  C   UNL     1      32.647 -13.944 -23.411  0.00  0.00    +0.022 C 
ATOM     24  C   UNL     1      34.168 -11.533 -24.058  0.00  0.00    +0.097 C 
ATOM     25  C   UNL     1      32.915 -12.838 -22.391  0.00  0.00    +0.097 C 
ATOM     26  C   UNL     1      32.342 -10.382 -22.857  0.00  0.00    +0.402 C 
BRANCH  26  27
ATOM     27  O   UNL     1      31.343 -10.462 -21.932  0.00  0.00    -0.466 OA
ATOM     28  H   UNL     1      30.508 -10.076 -22.111  0.00  0.00    +0.297 HD
ENDBRANCH  26  27
ENDBRANCH  18  21
ENDBRANCH   1  18
TORSDOF 6
ENDMDL
MODEL 9
REMARK VINA RESULT:     -10.0      4.075      5.877
REMARK  Name = 25243828
REMARK  6 active torsions:
REMARK  status: ('A' for Active; 'I' for Inactive)
REMARK    1  A    between atoms: C_1  and  C_18
REMARK    2  A    between atoms: C_4  and  O_7
REMARK    3  A    between atoms: O_7  and  C_9
REMARK    4  A    between atoms: C_11  and  C_17
REMARK    5  A    between atoms: C_18  and  C_21
REMARK    6  A    between atoms: C_26  and  O_27
REMARK                            x       y       z     vdW  Elec       q    Type
REMARK                         _______ _______ _______ _____ _____    ______ ____
ROOT
ATOM      1  C   UNL     1      34.428 -22.071 -19.147  0.00  0.00    -0.019 C 
ATOM      2  C   UNL     1      35.397 -21.234 -19.698  0.00  0.00    +0.033 C 
ATOM      3  C   UNL     1      33.099 -21.967 -19.558  0.00  0.00    -0.004 C 
ATOM      4  C   UNL     1      35.037 -20.290 -20.661  0.00  0.00    +0.147 C 
ATOM      5  C   UNL     1      32.739 -21.023 -20.520  0.00  0.00    +0.003 C 
ATOM      6  C   UNL     1      33.708 -20.185 -21.072  0.00  0.00    +0.038 C 
ENDROOT
BRANCH   4   7
ATOM      7  O   UNL     1      35.982 -19.471 -21.198  0.00  0.00    -0.436 OA
BRANCH   7   9
ATOM      8  N   UNL     1      35.332 -17.280 -20.728  0.00  0.00    -0.210 NA
ATOM      9  C   UNL     1      35.572 -18.231 -21.659  0.00  0.00    +0.230 C 
ATOM     10  C   UNL     1      35.434 -18.033 -23.023  0.00  0.00    +0.058 C 
ATOM     11  C   UNL     1      34.768 -15.774 -22.532  0.00  0.00    +0.091 C 
ATOM     12  C   UNL     1      35.025 -16.777 -23.460  0.00  0.00    +0.010 C 
ATOM     13  C   UNL     1      34.936 -16.073 -21.190  0.00  0.00    +0.106 C 
BRANCH  11  17
ATOM     14  F   UNL     1      34.994 -13.399 -22.353  0.00  0.00    -0.166 F 
ATOM     15  F   UNL     1      34.491 -14.195 -24.308  0.00  0.00    -0.166 F 
ATOM     16  F   UNL     1      33.003 -14.192 -22.722  0.00  0.00    -0.166 F 
ATOM     17  C   UNL     1      34.327 -14.422 -22.969  0.00  0.00    +0.420 C 
ENDBRANCH  11  17
ENDBRANCH   7   9
ENDBRANCH   4   7
BRANCH   1  18
ATOM     18  C   UNL     1      34.814 -23.088 -18.108  0.00  0.00    +0.027 C 
BRANCH  18  21
ATOM     19  O   UNL     1      30.474 -25.406 -14.398  0.00  0.00    -0.226 OA
ATOM     20  N   UNL     1      32.355 -24.077 -14.728  0.00  0.00    -0.246 N 
ATOM     21  C   UNL     1      33.988 -22.933 -16.833  0.00  0.00    +0.008 C 
ATOM     22  C   UNL     1      32.528 -23.350 -17.072  0.00  0.00    +0.022 C 
ATOM     23  C   UNL     1      34.598 -23.750 -15.683  0.00  0.00    +0.022 C 
ATOM     24  C   UNL     1      31.714 -23.285 -15.781  0.00  0.00    +0.097 C 
ATOM     25  C   UNL     1      33.732 -23.665 -14.427  0.00  0.00    +0.097 C 
ATOM     26  C   UNL     1      31.634 -25.106 -14.115  0.00  0.00    +0.402 C 
BRANCH  26  27
ATOM     27  O   UNL     1      32.288 -25.813 -13.149  0.00  0.00    -0.466 OA
ATOM     28  H   UNL     1      32.043 -26.699 -12.971  0.00  0.00    +0.297 HD
ENDBRANCH  26  27
ENDBRANCH  18  21
ENDBRANCH   1  18
TORSDOF 6
ENDMDL
