MODEL 1
REMARK VINA RESULT:     -10.6      0.000      0.000
REMARK  Name = 5327686
REMARK  3 active torsions:
REMARK  status: ('A' for Active; 'I' for Inactive)
REMARK    1  A    between atoms: C_4  and  C_10
REMARK    2  A    between atoms: C_5  and  C_23
REMARK    3  A    between atoms: C_17  and  N_21
REMARK                            x       y       z     vdW  Elec       q    Type
REMARK                         _______ _______ _______ _____ _____    ______ ____
ROOT
ATOM      1  O   UNL     1      31.441 -23.201 -17.341  0.00  0.00    -0.270 OA
ATOM      2  O   UNL     1      31.702 -25.355 -13.309  0.00  0.00    -0.270 OA
ATOM      3  N   UNL     1      31.183 -24.342 -15.333  0.00  0.00    -0.248 N 
ATOM      4  C   UNL     1      33.297 -23.685 -15.883  0.00  0.00    +0.059 C 
ATOM      5  C   UNL     1      33.372 -24.308 -14.693  0.00  0.00    +0.059 C 
ATOM      6  C   UNL     1      31.876 -23.695 -16.313  0.00  0.00    +0.252 C 
ATOM      7  C   UNL     1      32.002 -24.745 -14.322  0.00  0.00    +0.252 C 
ATOM      8  H   UNL     1      30.210 -24.498 -15.354  0.00  0.00    +0.158 HD
ENDROOT
BRANCH   4  10
ATOM      9  N   UNL     1      36.353 -22.385 -17.279  0.00  0.00    -0.284 N 
ATOM     10  C   UNL     1      34.333 -23.074 -16.657  0.00  0.00    +0.021 C 
ATOM     11  C   UNL     1      34.210 -22.390 -17.902  0.00  0.00    +0.015 C 
ATOM     12  C   UNL     1      35.491 -21.970 -18.269  0.00  0.00    +0.053 C 
ATOM     13  C   UNL     1      35.664 -23.052 -16.302  0.00  0.00    +0.066 C 
ATOM     14  C   UNL     1      33.129 -22.091 -18.753  0.00  0.00    +0.003 C 
ATOM     15  C   UNL     1      35.744 -21.262 -19.449  0.00  0.00    +0.039 C 
ATOM     16  C   UNL     1      37.782 -22.158 -17.259  0.00  0.00    +0.117 C 
ATOM     17  C   UNL     1      34.656 -20.976 -20.277  0.00  0.00    +0.144 C 
ATOM     18  C   UNL     1      33.367 -21.383 -19.938  0.00  0.00    +0.024 C 
BRANCH  17  21
ATOM     19  O   UNL     1      36.038 -19.943 -21.807  0.00  0.00    -0.126 OA
ATOM     20  O   UNL     1      33.877 -19.957 -22.194  0.00  0.00    -0.126 OA
ATOM     21  N   UNL     1      34.867 -20.257 -21.485  0.00  0.00    +0.058 N 
ENDBRANCH  17  21
ENDBRANCH   4  10
BRANCH   5  23
ATOM     22  N   UNL     1      35.908 -24.499 -12.147  0.00  0.00    -0.284 N 
ATOM     23  C   UNL     1      34.514 -24.570 -13.873  0.00  0.00    +0.021 C 
ATOM     24  C   UNL     1      35.623 -25.412 -14.163  0.00  0.00    +0.015 C 
ATOM     25  C   UNL     1      36.483 -25.350 -13.063  0.00  0.00    +0.052 C 
ATOM     26  C   UNL     1      34.719 -24.022 -12.627  0.00  0.00    +0.066 C 
ATOM     27  C   UNL     1      35.979 -26.226 -15.257  0.00  0.00    +0.001 C 
ATOM     28  C   UNL     1      37.686 -26.063 -13.005  0.00  0.00    +0.015 C 
ATOM     29  C   UNL     1      36.470 -24.145 -10.862  0.00  0.00    +0.117 C 
ATOM     30  C   UNL     1      37.179 -26.944 -15.212  0.00  0.00    +0.000 C 
ATOM     31  C   UNL     1      38.018 -26.862 -14.102  0.00  0.00    +0.001 C 
ENDBRANCH   5  23
TORSDOF 3
ENDMDL
MODEL 2
REMARK VINA RESULT:     -10.5      2.217      5.026
REMARK  Name = 5327686
REMARK  3 active torsions:
REMARK  status: ('A' for Active; 'I' for Inactive)
REMARK    1  A    between atoms: C_4  and  C_10
REMARK    2  A    between atoms: C_5  and  C_23
REMARK    3  A    between atoms: C_17  and  N_21
REMARK                            x       y       z     vdW  Elec       q    Type
REMARK                         _______ _______ _______ _____ _____    ______ ____
ROOT
ATOM      1  O   UNL     1      33.532 -22.468 -18.601  0.00  0.00    -0.270 OA
ATOM      2  O   UNL     1      37.845 -22.352 -17.069  0.00  0.00    -0.270 OA
ATOM      3  N   UNL     1      35.806 -22.248 -18.175  0.00  0.00    -0.248 N 
ATOM      4  C   UNL     1      34.526 -23.149 -16.514  0.00  0.00    +0.059 C 
ATOM      5  C   UNL     1      35.795 -23.125 -16.069  0.00  0.00    +0.059 C 
ATOM      6  C   UNL     1      34.516 -22.584 -17.888  0.00  0.00    +0.252 C 
ATOM      7  C   UNL     1      36.641 -22.538 -17.138  0.00  0.00    +0.252 C 
ATOM      8  H   UNL     1      36.097 -21.846 -19.025  0.00  0.00    +0.158 HD
ENDROOT
BRANCH   4  10
ATOM      9  N   UNL     1      32.033 -24.693 -14.422  0.00  0.00    -0.284 N 
ATOM     10  C   UNL     1      33.344 -23.631 -15.870  0.00  0.00    +0.021 C 
ATOM     11  C   UNL     1      31.987 -23.388 -16.232  0.00  0.00    +0.015 C 
ATOM     12  C   UNL     1      31.187 -24.064 -15.308  0.00  0.00    +0.053 C 
ATOM     13  C   UNL     1      33.337 -24.437 -14.753  0.00  0.00    +0.066 C 
ATOM     14  C   UNL     1      31.363 -22.654 -17.260  0.00  0.00    +0.003 C 
ATOM     15  C   UNL     1      29.789 -24.043 -15.361  0.00  0.00    +0.039 C 
ATOM     16  C   UNL     1      31.621 -25.508 -13.299  0.00  0.00    +0.117 C 
ATOM     17  C   UNL     1      29.192 -23.309 -16.390  0.00  0.00    +0.144 C 
ATOM     18  C   UNL     1      29.964 -22.624 -17.325  0.00  0.00    +0.024 C 
BRANCH  17  21
ATOM     19  O   UNL     1      27.224 -23.618 -17.551  0.00  0.00    -0.126 OA
ATOM     20  O   UNL     1      27.115 -22.867 -15.492  0.00  0.00    -0.126 OA
ATOM     21  N   UNL     1      27.775 -23.263 -16.482  0.00  0.00    +0.058 N 
ENDBRANCH  17  21
ENDBRANCH   4  10
BRANCH   5  23
ATOM     22  N   UNL     1      37.057 -23.451 -12.715  0.00  0.00    -0.284 N 
ATOM     23  C   UNL     1      36.325 -23.543 -14.808  0.00  0.00    +0.021 C 
ATOM     24  C   UNL     1      36.710 -24.854 -14.413  0.00  0.00    +0.015 C 
ATOM     25  C   UNL     1      37.166 -24.768 -13.095  0.00  0.00    +0.052 C 
ATOM     26  C   UNL     1      36.551 -22.702 -13.742  0.00  0.00    +0.066 C 
ATOM     27  C   UNL     1      36.714 -26.111 -15.052  0.00  0.00    +0.001 C 
ATOM     28  C   UNL     1      37.628 -25.881 -12.382  0.00  0.00    +0.015 C 
ATOM     29  C   UNL     1      37.426 -22.916 -11.422  0.00  0.00    +0.117 C 
ATOM     30  C   UNL     1      37.173 -27.231 -14.351  0.00  0.00    +0.000 C 
ATOM     31  C   UNL     1      37.623 -27.116 -13.036  0.00  0.00    +0.001 C 
ENDBRANCH   5  23
TORSDOF 3
ENDMDL
MODEL 3
REMARK VINA RESULT:     -10.4      2.646      6.410
REMARK  Name = 5327686
REMARK  3 active torsions:
REMARK  status: ('A' for Active; 'I' for Inactive)
REMARK    1  A    between atoms: C_4  and  C_10
REMARK    2  A    between atoms: C_5  and  C_23
REMARK    3  A    between atoms: C_17  and  N_21
REMARK                            x       y       z     vdW  Elec       q    Type
REMARK                         _______ _______ _______ _____ _____    ______ ____
ROOT
ATOM      1  O   UNL     1      31.936 -25.388 -12.985  0.00  0.00    -0.270 OA
ATOM      2  O   UNL     1      31.673 -23.160 -16.976  0.00  0.00    -0.270 OA
ATOM      3  N   UNL     1      31.417 -24.344 -14.995  0.00  0.00    -0.248 N 
ATOM      4  C   UNL     1      33.597 -24.268 -14.324  0.00  0.00    +0.059 C 
ATOM      5  C   UNL     1      33.521 -23.623 -15.503  0.00  0.00    +0.059 C 
ATOM      6  C   UNL     1      32.234 -24.749 -13.981  0.00  0.00    +0.252 C 
ATOM      7  C   UNL     1      32.106 -23.661 -15.952  0.00  0.00    +0.252 C 
ATOM      8  H   UNL     1      30.450 -24.525 -15.032  0.00  0.00    +0.158 HD
ENDROOT
BRANCH   4  10
ATOM      9  N   UNL     1      35.994 -24.717 -11.674  0.00  0.00    -0.284 N 
ATOM     10  C   UNL     1      34.734 -24.518 -13.495  0.00  0.00    +0.021 C 
ATOM     11  C   UNL     1      36.040 -24.923 -13.895  0.00  0.00    +0.015 C 
ATOM     12  C   UNL     1      36.809 -25.042 -12.735  0.00  0.00    +0.053 C 
ATOM     13  C   UNL     1      34.740 -24.400 -12.122  0.00  0.00    +0.066 C 
ATOM     14  C   UNL     1      36.642 -25.203 -15.138  0.00  0.00    +0.003 C 
ATOM     15  C   UNL     1      38.154 -25.426 -12.757  0.00  0.00    +0.039 C 
ATOM     16  C   UNL     1      36.389 -24.709 -10.282  0.00  0.00    +0.117 C 
ATOM     17  C   UNL     1      38.730 -25.697 -14.001  0.00  0.00    +0.144 C 
ATOM     18  C   UNL     1      37.987 -25.589 -15.175  0.00  0.00    +0.024 C 
BRANCH  17  21
ATOM     19  O   UNL     1      40.972 -25.311 -13.627  0.00  0.00    -0.126 OA
ATOM     20  O   UNL     1      40.381 -27.203 -14.569  0.00  0.00    -0.126 OA
ATOM     21  N   UNL     1      40.094 -26.090 -14.069  0.00  0.00    +0.058 N 
ENDBRANCH  17  21
ENDBRANCH   4  10
BRANCH   5  23
ATOM     22  N   UNL     1      36.425 -21.873 -16.708  0.00  0.00    -0.284 N 
ATOM     23  C   UNL     1      34.551 -22.969 -16.250  0.00  0.00    +0.021 C 
ATOM     24  C   UNL     1      34.624 -22.784 -17.658  0.00  0.00    +0.015 C 
ATOM     25  C   UNL     1      35.810 -22.094 -17.919  0.00  0.00    +0.052 C 
ATOM     26  C   UNL     1      35.672 -22.398 -15.693  0.00  0.00    +0.066 C 
ATOM     27  C   UNL     1      33.794 -23.140 -18.740  0.00  0.00    +0.001 C 
ATOM     28  C   UNL     1      36.208 -21.739 -19.214  0.00  0.00    +0.015 C 
ATOM     29  C   UNL     1      37.682 -21.183 -16.517  0.00  0.00    +0.117 C 
ATOM     30  C   UNL     1      34.180 -22.791 -20.040  0.00  0.00    +0.000 C 
ATOM     31  C   UNL     1      35.369 -22.102 -20.271  0.00  0.00    +0.001 C 
ENDBRANCH   5  23
TORSDOF 3
ENDMDL
MODEL 4
REMARK VINA RESULT:     -10.1      0.802      1.932
REMARK  Name = 5327686
REMARK  3 active torsions:
REMARK  status: ('A' for Active; 'I' for Inactive)
REMARK    1  A    between atoms: C_4  and  C_10
REMARK    2  A    between atoms: C_5  and  C_23
REMARK    3  A    between atoms: C_17  and  N_21
REMARK                            x       y       z     vdW  Elec       q    Type
REMARK                         _______ _______ _______ _____ _____    ______ ____
ROOT
ATOM      1  O   UNL     1      31.432 -22.708 -17.239  0.00  0.00    -0.270 OA
ATOM      2  O   UNL     1      32.068 -25.646 -13.786  0.00  0.00    -0.270 OA
ATOM      3  N   UNL     1      31.360 -24.206 -15.464  0.00  0.00    -0.248 N 
ATOM      4  C   UNL     1      33.425 -23.630 -16.246  0.00  0.00    +0.059 C 
ATOM      5  C   UNL     1      33.612 -24.485 -15.224  0.00  0.00    +0.059 C 
ATOM      6  C   UNL     1      31.962 -23.434 -16.413  0.00  0.00    +0.252 C 
ATOM      7  C   UNL     1      32.275 -24.872 -14.705  0.00  0.00    +0.252 C 
ATOM      8  H   UNL     1      30.385 -24.272 -15.341  0.00  0.00    +0.158 HD
ENDROOT
BRANCH   4  10
ATOM      9  N   UNL     1      36.345 -22.192 -17.788  0.00  0.00    -0.284 N 
ATOM     10  C   UNL     1      34.390 -22.963 -17.064  0.00  0.00    +0.021 C 
ATOM     11  C   UNL     1      34.169 -22.248 -18.276  0.00  0.00    +0.015 C 
ATOM     12  C   UNL     1      35.411 -21.777 -18.709  0.00  0.00    +0.053 C 
ATOM     13  C   UNL     1      35.740 -22.909 -16.791  0.00  0.00    +0.066 C 
ATOM     14  C   UNL     1      33.027 -21.959 -19.049  0.00  0.00    +0.003 C 
ATOM     15  C   UNL     1      35.567 -21.027 -19.880  0.00  0.00    +0.039 C 
ATOM     16  C   UNL     1      37.766 -21.921 -17.850  0.00  0.00    +0.117 C 
ATOM     17  C   UNL     1      34.421 -20.751 -20.630  0.00  0.00    +0.144 C 
ATOM     18  C   UNL     1      33.169 -21.210 -20.223  0.00  0.00    +0.024 C 
BRANCH  17  21
ATOM     19  O   UNL     1      35.662 -19.565 -22.168  0.00  0.00    -0.126 OA
ATOM     20  O   UNL     1      33.502 -19.769 -22.503  0.00  0.00    -0.126 OA
ATOM     21  N   UNL     1      34.534 -19.991 -21.825  0.00  0.00    +0.058 N 
ENDBRANCH  17  21
ENDBRANCH   4  10
BRANCH   5  23
ATOM     22  N   UNL     1      36.706 -26.174 -14.501  0.00  0.00    -0.284 N 
ATOM     23  C   UNL     1      34.830 -25.002 -14.681  0.00  0.00    +0.021 C 
ATOM     24  C   UNL     1      35.429 -24.691 -13.430  0.00  0.00    +0.015 C 
ATOM     25  C   UNL     1      36.606 -25.440 -13.342  0.00  0.00    +0.052 C 
ATOM     26  C   UNL     1      35.637 -25.917 -15.317  0.00  0.00    +0.066 C 
ATOM     27  C   UNL     1      35.085 -23.841 -12.360  0.00  0.00    +0.001 C 
ATOM     28  C   UNL     1      37.457 -25.381 -12.232  0.00  0.00    +0.015 C 
ATOM     29  C   UNL     1      37.776 -27.093 -14.825  0.00  0.00    +0.117 C 
ATOM     30  C   UNL     1      35.927 -23.773 -11.244  0.00  0.00    +0.000 C 
ATOM     31  C   UNL     1      37.094 -24.531 -11.183  0.00  0.00    +0.001 C 
ENDBRANCH   5  23
TORSDOF 3
ENDMDL
MODEL 5
REMARK VINA RESULT:      -9.7      2.429      6.220
REMARK  Name = 5327686
REMARK  3 active torsions:
REMARK  status: ('A' for Active; 'I' for Inactive)
REMARK    1  A    between atoms: C_4  and  C_10
REMARK    2  A    between atoms: C_5  and  C_23
REMARK    3  A    between atoms: C_17  and  N_21
REMARK                            x       y       z     vdW  Elec       q    Type
REMARK                         _______ _______ _______ _____ _____    ______ ____
ROOT
ATOM      1  O   UNL     1      31.149 -24.788 -12.726  0.00  0.00    -0.270 OA
ATOM      2  O   UNL     1      30.626 -23.226 -16.998  0.00  0.00    -0.270 OA
ATOM      3  N   UNL     1      30.496 -24.035 -14.825  0.00  0.00    -0.248 N 
ATOM      4  C   UNL     1      32.737 -24.091 -14.399  0.00  0.00    +0.059 C 
ATOM      5  C   UNL     1      32.584 -23.643 -15.658  0.00  0.00    +0.059 C 
ATOM      6  C   UNL     1      31.386 -24.356 -13.843  0.00  0.00    +0.252 C 
ATOM      7  C   UNL     1      31.129 -23.598 -15.951  0.00  0.00    +0.252 C 
ATOM      8  H   UNL     1      29.519 -24.112 -14.734  0.00  0.00    +0.158 HD
ENDROOT
BRANCH   4  10
ATOM      9  N   UNL     1      35.413 -24.277 -11.996  0.00  0.00    -0.284 N 
ATOM     10  C   UNL     1      33.936 -24.325 -13.656  0.00  0.00    +0.021 C 
ATOM     11  C   UNL     1      35.088 -25.060 -14.059  0.00  0.00    +0.015 C 
ATOM     12  C   UNL     1      35.998 -25.015 -13.000  0.00  0.00    +0.053 C 
ATOM     13  C   UNL     1      34.169 -23.856 -12.382  0.00  0.00    +0.066 C 
ATOM     14  C   UNL     1      35.443 -25.763 -15.227  0.00  0.00    +0.003 C 
ATOM     15  C   UNL     1      37.249 -25.638 -13.051  0.00  0.00    +0.039 C 
ATOM     16  C   UNL     1      36.013 -23.980 -10.712  0.00  0.00    +0.117 C 
ATOM     17  C   UNL     1      37.580 -26.329 -14.220  0.00  0.00    +0.144 C 
ATOM     18  C   UNL     1      36.692 -26.393 -15.293  0.00  0.00    +0.024 C 
BRANCH  17  21
ATOM     19  O   UNL     1      39.844 -26.431 -13.796  0.00  0.00    -0.126 OA
ATOM     20  O   UNL     1      38.917 -28.073 -14.919  0.00  0.00    -0.126 OA
ATOM     21  N   UNL     1      38.842 -26.975 -14.316  0.00  0.00    +0.058 N 
ENDBRANCH  17  21
ENDBRANCH   4  10
BRANCH   5  23
ATOM     22  N   UNL     1      34.551 -22.805 -18.553  0.00  0.00    -0.284 N 
ATOM     23  C   UNL     1      33.574 -23.237 -16.607  0.00  0.00    +0.021 C 
ATOM     24  C   UNL     1      34.884 -22.749 -16.348  0.00  0.00    +0.015 C 
ATOM     25  C   UNL     1      35.476 -22.485 -17.586  0.00  0.00    +0.052 C 
ATOM     26  C   UNL     1      33.399 -23.262 -17.972  0.00  0.00    +0.066 C 
ATOM     27  C   UNL     1      35.626 -22.503 -15.175  0.00  0.00    +0.001 C 
ATOM     28  C   UNL     1      36.778 -21.987 -17.709  0.00  0.00    +0.015 C 
ATOM     29  C   UNL     1      34.753 -22.689 -19.981  0.00  0.00    +0.117 C 
ATOM     30  C   UNL     1      36.930 -22.005 -15.284  0.00  0.00    +0.000 C 
ATOM     31  C   UNL     1      37.495 -21.751 -16.532  0.00  0.00    +0.001 C 
ENDBRANCH   5  23
TORSDOF 3
ENDMDL
MODEL 6
REMARK VINA RESULT:      -9.4      8.765     12.921
REMARK  Name = 5327686
REMARK  3 active torsions:
REMARK  status: ('A' for Active; 'I' for Inactive)
REMARK    1  A    between atoms: C_4  and  C_10
REMARK    2  A    between atoms: C_5  and  C_23
REMARK    3  A    between atoms: C_17  and  N_21
REMARK                            x       y       z     vdW  Elec       q    Type
REMARK                         _______ _______ _______ _____ _____    ______ ____
ROOT
ATOM      1  O   UNL     1      32.633 -12.849 -26.881  0.00  0.00    -0.270 OA
ATOM      2  O   UNL     1      34.549 -16.942 -26.147  0.00  0.00    -0.270 OA
ATOM      3  N   UNL     1      33.579 -14.972 -26.901  0.00  0.00    -0.248 N 
ATOM      4  C   UNL     1      33.382 -13.947 -24.871  0.00  0.00    +0.059 C 
ATOM      5  C   UNL     1      33.934 -15.154 -24.654  0.00  0.00    +0.059 C 
ATOM      6  C   UNL     1      33.139 -13.813 -26.330  0.00  0.00    +0.252 C 
ATOM      7  C   UNL     1      34.072 -15.834 -25.968  0.00  0.00    +0.252 C 
ATOM      8  H   UNL     1      33.542 -15.162 -27.866  0.00  0.00    +0.158 HD
ENDROOT
BRANCH   4  10
ATOM      9  N   UNL     1      32.093 -11.915 -22.192  0.00  0.00    -0.284 N 
ATOM     10  C   UNL     1      33.032 -12.925 -23.935  0.00  0.00    +0.021 C 
ATOM     11  C   UNL     1      33.462 -11.566 -23.918  0.00  0.00    +0.015 C 
ATOM     12  C   UNL     1      32.859 -10.956 -22.815  0.00  0.00    +0.053 C 
ATOM     13  C   UNL     1      32.190 -13.106 -22.859  0.00  0.00    +0.066 C 
ATOM     14  C   UNL     1      34.311 -10.797 -24.738  0.00  0.00    +0.003 C 
ATOM     15  C   UNL     1      33.063  -9.611 -22.491  0.00  0.00    +0.039 C 
ATOM     16  C   UNL     1      31.294 -11.709 -21.002  0.00  0.00    +0.117 C 
ATOM     17  C   UNL     1      33.908  -8.867 -23.319  0.00  0.00    +0.144 C 
ATOM     18  C   UNL     1      34.524  -9.449 -24.426  0.00  0.00    +0.024 C 
BRANCH  17  21
ATOM     19  O   UNL     1      33.514  -6.960 -22.084  0.00  0.00    -0.126 OA
ATOM     20  O   UNL     1      34.970  -6.860 -23.723  0.00  0.00    -0.126 OA
ATOM     21  N   UNL     1      34.142  -7.496 -23.028  0.00  0.00    +0.058 N 
ENDBRANCH  17  21
ENDBRANCH   4  10
BRANCH   5  23
ATOM     22  N   UNL     1      34.952 -15.958 -21.298  0.00  0.00    -0.284 N 
ATOM     23  C   UNL     1      34.365 -15.752 -23.428  0.00  0.00    +0.021 C 
ATOM     24  C   UNL     1      34.687 -17.115 -23.187  0.00  0.00    +0.015 C 
ATOM     25  C   UNL     1      35.053 -17.218 -21.842  0.00  0.00    +0.052 C 
ATOM     26  C   UNL     1      34.538 -15.064 -22.248  0.00  0.00    +0.066 C 
ATOM     27  C   UNL     1      34.703 -18.277 -23.984  0.00  0.00    +0.001 C 
ATOM     28  C   UNL     1      35.435 -18.429 -21.254  0.00  0.00    +0.015 C 
ATOM     29  C   UNL     1      35.244 -15.610 -19.924  0.00  0.00    +0.117 C 
ATOM     30  C   UNL     1      35.083 -19.495 -23.409  0.00  0.00    +0.000 C 
ATOM     31  C   UNL     1      35.443 -19.568 -22.065  0.00  0.00    +0.001 C 
ENDBRANCH   5  23
TORSDOF 3
ENDMDL
MODEL 7
REMARK VINA RESULT:      -9.1     14.213     17.970
REMARK  Name = 5327686
REMARK  3 active torsions:
REMARK  status: ('A' for Active; 'I' for Inactive)
REMARK    1  A    between atoms: C_4  and  C_10
REMARK    2  A    between atoms: C_5  and  C_23
REMARK    3  A    between atoms: C_17  and  N_21
REMARK                            x       y       z     vdW  Elec       q    Type
REMARK                         _______ _______ _______ _____ _____    ______ ____
ROOT
ATOM      1  O   UNL     1      32.042  -5.577 -20.656  0.00  0.00    -0.270 OA
ATOM      2  O   UNL     1      32.351 -10.113 -20.117  0.00  0.00    -0.270 OA
ATOM      3  N   UNL     1      32.047  -7.813 -20.023  0.00  0.00    -0.248 N 
ATOM      4  C   UNL     1      32.816  -7.330 -22.117  0.00  0.00    +0.059 C 
ATOM      5  C   UNL     1      32.916  -8.662 -21.954  0.00  0.00    +0.059 C 
ATOM      6  C   UNL     1      32.254  -6.761 -20.865  0.00  0.00    +0.252 C 
ATOM      7  C   UNL     1      32.417  -8.993 -20.596  0.00  0.00    +0.252 C 
ATOM      8  H   UNL     1      31.677  -7.730 -19.114  0.00  0.00    +0.158 HD
ENDROOT
BRANCH   4  10
ATOM      9  N   UNL     1      34.347  -5.715 -24.949  0.00  0.00    -0.284 N 
ATOM     10  C   UNL     1      33.177  -6.520 -23.238  0.00  0.00    +0.021 C 
ATOM     11  C   UNL     1      32.438  -5.452 -23.823  0.00  0.00    +0.015 C 
ATOM     12  C   UNL     1      33.193  -4.966 -24.894  0.00  0.00    +0.053 C 
ATOM     13  C   UNL     1      34.347  -6.656 -23.954  0.00  0.00    +0.066 C 
ATOM     14  C   UNL     1      31.194  -4.853 -23.544  0.00  0.00    +0.003 C 
ATOM     15  C   UNL     1      32.764  -3.907 -25.701  0.00  0.00    +0.039 C 
ATOM     16  C   UNL     1      35.414  -5.547 -25.912  0.00  0.00    +0.117 C 
ATOM     17  C   UNL     1      31.528  -3.327 -25.405  0.00  0.00    +0.144 C 
ATOM     18  C   UNL     1      30.753  -3.791 -24.344  0.00  0.00    +0.024 C 
BRANCH  17  21
ATOM     19  O   UNL     1      31.796  -1.786 -27.098  0.00  0.00    -0.126 OA
ATOM     20  O   UNL     1      29.910  -1.786 -25.975  0.00  0.00    -0.126 OA
ATOM     21  N   UNL     1      31.055  -2.247 -26.198  0.00  0.00    +0.058 N 
ENDBRANCH  17  21
ENDBRANCH   4  10
BRANCH   5  23
ATOM     22  N   UNL     1      34.458 -10.593 -24.570  0.00  0.00    -0.284 N 
ATOM     23  C   UNL     1      33.383  -9.658 -22.869  0.00  0.00    +0.021 C 
ATOM     24  C   UNL     1      33.078 -11.047 -22.878  0.00  0.00    +0.015 C 
ATOM     25  C   UNL     1      33.766 -11.611 -23.955  0.00  0.00    +0.052 C 
ATOM     26  C   UNL     1      34.233  -9.409 -23.922  0.00  0.00    +0.066 C 
ATOM     27  C   UNL     1      32.282 -11.883 -22.069  0.00  0.00    +0.001 C 
ATOM     28  C   UNL     1      33.695 -12.973 -24.266  0.00  0.00    +0.015 C 
ATOM     29  C   UNL     1      35.302 -10.735 -25.737  0.00  0.00    +0.117 C 
ATOM     30  C   UNL     1      32.202 -13.248 -22.369  0.00  0.00    +0.000 C 
ATOM     31  C   UNL     1      32.899 -13.783 -23.451  0.00  0.00    +0.001 C 
ENDBRANCH   5  23
TORSDOF 3
ENDMDL
MODEL 8
REMARK VINA RESULT:      -9.0      8.178     13.450
REMARK  Name = 5327686
REMARK  3 active torsions:
REMARK  status: ('A' for Active; 'I' for Inactive)
REMARK    1  A    between atoms: C_4  and  C_10
REMARK    2  A    between atoms: C_5  and  C_23
REMARK    3  A    between atoms: C_17  and  N_21
REMARK                            x       y       z     vdW  Elec       q    Type
REMARK                         _______ _______ _______ _____ _____    ______ ____
ROOT
ATOM      1  O   UNL     1      33.815 -16.736 -25.887  0.00  0.00    -0.270 OA
ATOM      2  O   UNL     1      32.804 -12.524 -27.369  0.00  0.00    -0.270 OA
ATOM      3  N   UNL     1      33.226 -14.775 -26.985  0.00  0.00    -0.248 N 
ATOM      4  C   UNL     1      33.819 -14.591 -24.789  0.00  0.00    +0.059 C 
ATOM      5  C   UNL     1      33.532 -13.352 -25.228  0.00  0.00    +0.059 C 
ATOM      6  C   UNL     1      33.628 -15.531 -25.924  0.00  0.00    +0.252 C 
ATOM      7  C   UNL     1      33.141 -13.455 -26.657  0.00  0.00    +0.252 C 
ATOM      8  H   UNL     1      33.024 -15.138 -27.878  0.00  0.00    +0.158 HD
ENDROOT
BRANCH   4  10
ATOM      9  N   UNL     1      34.768 -14.966 -21.335  0.00  0.00    -0.284 N 
ATOM     10  C   UNL     1      34.256 -15.021 -23.498  0.00  0.00    +0.021 C 
ATOM     11  C   UNL     1      34.716 -16.313 -23.113  0.00  0.00    +0.015 C 
ATOM     12  C   UNL     1      35.029 -16.251 -21.752  0.00  0.00    +0.053 C 
ATOM     13  C   UNL     1      34.301 -14.215 -22.381  0.00  0.00    +0.066 C 
ATOM     14  C   UNL     1      34.895 -17.533 -23.794  0.00  0.00    +0.003 C 
ATOM     15  C   UNL     1      35.514 -17.352 -21.038  0.00  0.00    +0.039 C 
ATOM     16  C   UNL     1      34.953 -14.464 -19.990  0.00  0.00    +0.117 C 
ATOM     17  C   UNL     1      35.684 -18.551 -21.735  0.00  0.00    +0.144 C 
ATOM     18  C   UNL     1      35.379 -18.643 -23.091  0.00  0.00    +0.024 C 
BRANCH  17  21
ATOM     19  O   UNL     1      35.483 -20.739 -21.035  0.00  0.00    -0.126 OA
ATOM     20  O   UNL     1      37.289 -19.625 -20.474  0.00  0.00    -0.126 OA
ATOM     21  N   UNL     1      36.176 -19.694 -21.048  0.00  0.00    +0.058 N 
ENDBRANCH  17  21
ENDBRANCH   4  10
BRANCH   5  23
ATOM     22  N   UNL     1      34.100 -10.036 -23.951  0.00  0.00    -0.284 N 
ATOM     23  C   UNL     1      33.549 -12.109 -24.520  0.00  0.00    +0.021 C 
ATOM     24  C   UNL     1      32.768 -11.736 -23.392  0.00  0.00    +0.015 C 
ATOM     25  C   UNL     1      33.133 -10.430 -23.055  0.00  0.00    +0.052 C 
ATOM     26  C   UNL     1      34.359 -11.044 -24.840  0.00  0.00    +0.066 C 
ATOM     27  C   UNL     1      31.781 -12.385 -22.623  0.00  0.00    +0.001 C 
ATOM     28  C   UNL     1      32.558  -9.739 -21.982  0.00  0.00    +0.015 C 
ATOM     29  C   UNL     1      34.761  -8.749 -23.962  0.00  0.00    +0.117 C 
ATOM     30  C   UNL     1      31.198 -11.705 -21.547  0.00  0.00    +0.000 C 
ATOM     31  C   UNL     1      31.582 -10.403 -21.233  0.00  0.00    +0.001 C 
ENDBRANCH   5  23
TORSDOF 3
ENDMDL
MODEL 9
REMARK VINA RESULT:      -8.9      9.618     14.609
REMARK  Name = 5327686
REMARK  3 active torsions:
REMARK  status: ('A' for Active; 'I' for Inactive)
REMARK    1  A    between atoms: C_4  and  C_10
REMARK    2  A    between atoms: C_5  and  C_23
REMARK    3  A    between atoms: C_17  and  N_21
REMARK                            x       y       z     vdW  Elec       q    Type
REMARK                         _______ _______ _______ _____ _____    ______ ____
ROOT
ATOM      1  O   UNL     1      31.295 -13.688 -20.547  0.00  0.00    -0.270 OA
ATOM      2  O   UNL     1      31.822  -9.177 -21.121  0.00  0.00    -0.270 OA
ATOM      3  N   UNL     1      31.323 -11.365 -20.525  0.00  0.00    -0.248 N 
ATOM      4  C   UNL     1      32.560 -12.398 -22.141  0.00  0.00    +0.059 C 
ATOM      5  C   UNL     1      32.705 -11.072 -22.316  0.00  0.00    +0.059 C 
ATOM      6  C   UNL     1      31.658 -12.607 -20.979  0.00  0.00    +0.252 C 
ATOM      7  C   UNL     1      31.908 -10.385 -21.269  0.00  0.00    +0.252 C 
ATOM      8  H   UNL     1      30.732 -11.198 -19.756  0.00  0.00    +0.158 HD
ENDROOT
BRANCH   4  10
ATOM      9  N   UNL     1      33.622 -14.782 -24.623  0.00  0.00    -0.284 N 
ATOM     10  C   UNL     1      33.109 -13.482 -22.894  0.00  0.00    +0.021 C 
ATOM     11  C   UNL     1      33.888 -14.576 -22.417  0.00  0.00    +0.015 C 
ATOM     12  C   UNL     1      34.197 -15.375 -23.521  0.00  0.00    +0.053 C 
ATOM     13  C   UNL     1      32.964 -13.640 -24.255  0.00  0.00    +0.066 C 
ATOM     14  C   UNL     1      34.362 -14.962 -21.148  0.00  0.00    +0.003 C 
ATOM     15  C   UNL     1      34.958 -16.544 -23.418  0.00  0.00    +0.039 C 
ATOM     16  C   UNL     1      33.694 -15.282 -25.980  0.00  0.00    +0.117 C 
ATOM     17  C   UNL     1      35.416 -16.907 -22.149  0.00  0.00    +0.144 C 
ATOM     18  C   UNL     1      35.125 -16.130 -21.030  0.00  0.00    +0.024 C 
BRANCH  17  21
ATOM     19  O   UNL     1      36.520 -18.734 -23.022  0.00  0.00    -0.126 OA
ATOM     20  O   UNL     1      36.524 -18.453 -20.845  0.00  0.00    -0.126 OA
ATOM     21  N   UNL     1      36.191 -18.089 -21.998  0.00  0.00    +0.058 N 
ENDBRANCH  17  21
ENDBRANCH   4  10
BRANCH   5  23
ATOM     22  N   UNL     1      34.852  -9.974 -24.987  0.00  0.00    -0.284 N 
ATOM     23  C   UNL     1      33.480 -10.362 -23.286  0.00  0.00    +0.021 C 
ATOM     24  C   UNL     1      33.593  -8.955 -23.454  0.00  0.00    +0.015 C 
ATOM     25  C   UNL     1      34.459  -8.738 -24.528  0.00  0.00    +0.052 C 
ATOM     26  C   UNL     1      34.267 -10.963 -24.243  0.00  0.00    +0.066 C 
ATOM     27  C   UNL     1      33.038  -7.839 -22.794  0.00  0.00    +0.001 C 
ATOM     28  C   UNL     1      34.801  -7.456 -24.976  0.00  0.00    +0.015 C 
ATOM     29  C   UNL     1      35.757 -10.212 -26.091  0.00  0.00    +0.117 C 
ATOM     30  C   UNL     1      33.371  -6.552 -23.232  0.00  0.00    +0.000 C 
ATOM     31  C   UNL     1      34.239  -6.366 -24.306  0.00  0.00    +0.001 C 
ENDBRANCH   5  23
TORSDOF 3
ENDMDL
