MODEL 1
REMARK VINA RESULT:     -13.0      0.000      0.000
REMARK  Name = 5288641
REMARK  1 active torsions:
REMARK  status: ('A' for Active; 'I' for Inactive)
REMARK    1  A    between atoms: C_14  and  S_23
REMARK                            x       y       z     vdW  Elec       q    Type
REMARK                         _______ _______ _______ _____ _____    ______ ____
ROOT
ATOM      1  O   UNL     1      35.715 -24.424 -15.043  0.00  0.00    -0.270 OA
ATOM      2  O   UNL     1      31.992 -22.415 -18.182  0.00  0.00    -0.285 OA
ATOM      3  N   UNL     1      35.401 -22.819 -17.522  0.00  0.00    -0.310 N 
ATOM      4  N   UNL     1      33.592 -25.001 -14.179  0.00  0.00    -0.280 N 
ATOM      5  C   UNL     1      33.626 -23.755 -16.099  0.00  0.00    +0.071 C 
ATOM      6  C   UNL     1      32.233 -23.998 -15.740  0.00  0.00    +0.020 C 
ATOM      7  C   UNL     1      34.109 -23.076 -17.141  0.00  0.00    +0.092 C 
ATOM      8  C   UNL     1      32.271 -24.759 -14.567  0.00  0.00    +0.051 C 
ATOM      9  C   UNL     1      34.498 -24.416 -15.071  0.00  0.00    +0.251 C 
ATOM     10  C   UNL     1      34.114 -21.791 -19.123  0.00  0.00    +0.054 C 
ATOM     11  C   UNL     1      35.418 -22.063 -18.688  0.00  0.00    +0.051 C 
ATOM     12  C   UNL     1      33.204 -22.425 -18.153  0.00  0.00    +0.210 C 
ATOM     13  C   UNL     1      31.026 -23.639 -16.308  0.00  0.00    +0.020 C 
ATOM     14  C   UNL     1      29.852 -24.060 -15.674  0.00  0.00    +0.112 C 
ATOM     15  C   UNL     1      31.124 -25.185 -13.925  0.00  0.00    +0.016 C 
ATOM     16  C   UNL     1      29.901 -24.825 -14.494  0.00  0.00    +0.020 C 
ATOM     17  C   UNL     1      33.833 -21.057 -20.257  0.00  0.00    +0.004 C 
ATOM     18  C   UNL     1      36.498 -21.590 -19.403  0.00  0.00    +0.015 C 
ATOM     19  C   UNL     1      34.926 -20.578 -20.980  0.00  0.00    +0.000 C 
ATOM     20  C   UNL     1      36.244 -20.842 -20.559  0.00  0.00    +0.001 C 
ATOM     21  H   UNL     1      36.202 -23.125 -17.039  0.00  0.00    +0.152 HD
ATOM     22  H   UNL     1      33.853 -25.517 -13.381  0.00  0.00    +0.155 HD
ENDROOT
BRANCH  14  23
ATOM     23  S   UNL     1      28.301 -23.628 -16.356  0.00  0.00    +0.042 S 
ATOM     24  O   UNL     1      28.577 -22.271 -17.223  0.00  0.00    -0.065 OA
ATOM     25  O   UNL     1      27.923 -24.668 -17.300  0.00  0.00    -0.065 OA
ATOM     26  O   UNL     1      27.431 -23.284 -15.242  0.00  0.00    -0.065 OA
ENDBRANCH  14  23
TORSDOF 1
ENDMDL
MODEL 2
REMARK VINA RESULT:     -11.2      2.765      5.226
REMARK  Name = 5288641
REMARK  1 active torsions:
REMARK  status: ('A' for Active; 'I' for Inactive)
REMARK    1  A    between atoms: C_14  and  S_23
REMARK                            x       y       z     vdW  Elec       q    Type
REMARK                         _______ _______ _______ _____ _____    ______ ____
ROOT
ATOM      1  O   UNL     1      30.737 -23.060 -16.968  0.00  0.00    -0.270 OA
ATOM      2  O   UNL     1      35.876 -22.437 -17.946  0.00  0.00    -0.285 OA
ATOM      3  N   UNL     1      32.581 -21.820 -18.939  0.00  0.00    -0.310 N 
ATOM      4  N   UNL     1      31.976 -24.127 -15.262  0.00  0.00    -0.280 N 
ATOM      5  C   UNL     1      33.171 -23.088 -16.914  0.00  0.00    +0.071 C 
ATOM      6  C   UNL     1      34.117 -23.678 -15.972  0.00  0.00    +0.020 C 
ATOM      7  C   UNL     1      33.428 -22.392 -18.023  0.00  0.00    +0.092 C 
ATOM      8  C   UNL     1      33.337 -24.296 -14.990  0.00  0.00    +0.051 C 
ATOM      9  C   UNL     1      31.781 -23.391 -16.436  0.00  0.00    +0.251 C 
ATOM     10  C   UNL     1      34.686 -21.327 -19.716  0.00  0.00    +0.054 C 
ATOM     11  C   UNL     1      33.309 -21.190 -19.940  0.00  0.00    +0.051 C 
ATOM     12  C   UNL     1      34.836 -22.107 -18.474  0.00  0.00    +0.210 C 
ATOM     13  C   UNL     1      35.496 -23.716 -15.906  0.00  0.00    +0.020 C 
ATOM     14  C   UNL     1      36.081 -24.391 -14.829  0.00  0.00    +0.112 C 
ATOM     15  C   UNL     1      33.895 -24.966 -13.918  0.00  0.00    +0.016 C 
ATOM     16  C   UNL     1      35.289 -25.009 -13.845  0.00  0.00    +0.020 C 
ATOM     17  C   UNL     1      35.645 -20.800 -20.555  0.00  0.00    +0.004 C 
ATOM     18  C   UNL     1      32.855 -20.499 -21.044  0.00  0.00    +0.015 C 
ATOM     19  C   UNL     1      35.186 -20.102 -21.672  0.00  0.00    +0.000 C 
ATOM     20  C   UNL     1      33.805 -19.952 -21.914  0.00  0.00    +0.001 C 
ATOM     21  H   UNL     1      31.599 -21.851 -18.894  0.00  0.00    +0.152 HD
ATOM     22  H   UNL     1      31.248 -24.480 -14.700  0.00  0.00    +0.155 HD
ENDROOT
BRANCH  14  23
ATOM     23  S   UNL     1      37.824 -24.467 -14.703  0.00  0.00    +0.042 S 
ATOM     24  O   UNL     1      38.164 -23.996 -13.176  0.00  0.00    -0.065 OA
ATOM     25  O   UNL     1      38.219 -25.863 -14.817  0.00  0.00    -0.065 OA
ATOM     26  O   UNL     1      38.357 -23.467 -15.615  0.00  0.00    -0.065 OA
ENDBRANCH  14  23
TORSDOF 1
ENDMDL
MODEL 3
REMARK VINA RESULT:     -11.0      3.589      6.825
REMARK  Name = 5288641
REMARK  1 active torsions:
REMARK  status: ('A' for Active; 'I' for Inactive)
REMARK    1  A    between atoms: C_14  and  S_23
REMARK                            x       y       z     vdW  Elec       q    Type
REMARK                         _______ _______ _______ _____ _____    ______ ____
ROOT
ATOM      1  O   UNL     1      34.538 -22.244 -18.318  0.00  0.00    -0.270 OA
ATOM      2  O   UNL     1      33.102 -24.608 -13.835  0.00  0.00    -0.285 OA
ATOM      3  N   UNL     1      32.119 -23.175 -16.868  0.00  0.00    -0.310 N 
ATOM      4  N   UNL     1      36.474 -22.716 -17.048  0.00  0.00    -0.280 N 
ATOM      5  C   UNL     1      34.465 -23.338 -16.145  0.00  0.00    +0.071 C 
ATOM      6  C   UNL     1      35.520 -23.716 -15.210  0.00  0.00    +0.020 C 
ATOM      7  C   UNL     1      33.147 -23.510 -16.024  0.00  0.00    +0.092 C 
ATOM      8  C   UNL     1      36.718 -23.315 -15.808  0.00  0.00    +0.051 C 
ATOM      9  C   UNL     1      35.105 -22.688 -17.336  0.00  0.00    +0.251 C 
ATOM     10  C   UNL     1      31.088 -24.164 -15.069  0.00  0.00    +0.054 C 
ATOM     11  C   UNL     1      30.901 -23.554 -16.317  0.00  0.00    +0.051 C 
ATOM     12  C   UNL     1      32.539 -24.167 -14.814  0.00  0.00    +0.210 C 
ATOM     13  C   UNL     1      35.520 -24.335 -13.975  0.00  0.00    +0.020 C 
ATOM     14  C   UNL     1      36.754 -24.544 -13.348  0.00  0.00    +0.112 C 
ATOM     15  C   UNL     1      37.946 -23.513 -15.207  0.00  0.00    +0.016 C 
ATOM     16  C   UNL     1      37.954 -24.137 -13.958  0.00  0.00    +0.020 C 
ATOM     17  C   UNL     1      30.049 -24.638 -14.296  0.00  0.00    +0.004 C 
ATOM     18  C   UNL     1      29.630 -23.405 -16.830  0.00  0.00    +0.015 C 
ATOM     19  C   UNL     1      28.762 -24.487 -14.814  0.00  0.00    +0.000 C 
ATOM     20  C   UNL     1      28.554 -23.877 -16.068  0.00  0.00    +0.001 C 
ATOM     21  H   UNL     1      32.227 -22.729 -17.739  0.00  0.00    +0.152 HD
ATOM     22  H   UNL     1      37.175 -22.360 -17.642  0.00  0.00    +0.155 HD
ENDROOT
BRANCH  14  23
ATOM     23  S   UNL     1      36.805 -25.322 -11.783  0.00  0.00    +0.042 S 
ATOM     24  O   UNL     1      35.276 -25.235 -11.211  0.00  0.00    -0.065 OA
ATOM     25  O   UNL     1      37.101 -26.731 -11.993  0.00  0.00    -0.065 OA
ATOM     26  O   UNL     1      37.654 -24.503 -10.932  0.00  0.00    -0.065 OA
ENDBRANCH  14  23
TORSDOF 1
ENDMDL
MODEL 4
REMARK VINA RESULT:     -10.7      1.387      1.959
REMARK  Name = 5288641
REMARK  1 active torsions:
REMARK  status: ('A' for Active; 'I' for Inactive)
REMARK    1  A    between atoms: C_14  and  S_23
REMARK                            x       y       z     vdW  Elec       q    Type
REMARK                         _______ _______ _______ _____ _____    ______ ____
ROOT
ATOM      1  O   UNL     1      37.086 -23.102 -16.308  0.00  0.00    -0.270 OA
ATOM      2  O   UNL     1      32.245 -22.377 -18.253  0.00  0.00    -0.285 OA
ATOM      3  N   UNL     1      35.680 -21.814 -18.584  0.00  0.00    -0.310 N 
ATOM      4  N   UNL     1      35.523 -24.160 -14.886  0.00  0.00    -0.280 N 
ATOM      5  C   UNL     1      34.688 -23.087 -16.727  0.00  0.00    +0.071 C 
ATOM      6  C   UNL     1      33.568 -23.665 -15.991  0.00  0.00    +0.020 C 
ATOM      7  C   UNL     1      34.663 -22.378 -17.856  0.00  0.00    +0.092 C 
ATOM      8  C   UNL     1      34.133 -24.305 -14.883  0.00  0.00    +0.051 C 
ATOM      9  C   UNL     1      35.954 -23.419 -15.991  0.00  0.00    +0.251 C 
ATOM     10  C   UNL     1      33.773 -21.279 -19.750  0.00  0.00    +0.054 C 
ATOM     11  C   UNL     1      35.170 -21.165 -19.701  0.00  0.00    +0.051 C 
ATOM     12  C   UNL     1      33.373 -22.063 -18.568  0.00  0.00    +0.210 C 
ATOM     13  C   UNL     1      32.202 -23.680 -16.194  0.00  0.00    +0.020 C 
ATOM     14  C   UNL     1      31.408 -24.351 -15.257  0.00  0.00    +0.112 C 
ATOM     15  C   UNL     1      33.368 -24.974 -13.947  0.00  0.00    +0.016 C 
ATOM     16  C   UNL     1      31.985 -24.992 -14.146  0.00  0.00    +0.020 C 
ATOM     17  C   UNL     1      33.003 -20.727 -20.752  0.00  0.00    +0.004 C 
ATOM     18  C   UNL     1      35.840 -20.473 -20.688  0.00  0.00    +0.015 C 
ATOM     19  C   UNL     1      33.682 -20.027 -21.750  0.00  0.00    +0.000 C 
ATOM     20  C   UNL     1      35.085 -19.901 -21.719  0.00  0.00    +0.001 C 
ATOM     21  H   UNL     1      36.634 -21.862 -18.350  0.00  0.00    +0.152 HD
ATOM     22  H   UNL     1      36.123 -24.531 -14.197  0.00  0.00    +0.155 HD
ENDROOT
BRANCH  14  23
ATOM     23  S   UNL     1      29.673 -24.396 -15.471  0.00  0.00    +0.042 S 
ATOM     24  O   UNL     1      29.120 -25.367 -14.279  0.00  0.00    -0.065 OA
ATOM     25  O   UNL     1      29.156 -23.061 -15.208  0.00  0.00    -0.065 OA
ATOM     26  O   UNL     1      29.422 -25.052 -16.744  0.00  0.00    -0.065 OA
ENDBRANCH  14  23
TORSDOF 1
ENDMDL
MODEL 5
REMARK VINA RESULT:     -10.3      3.261      7.033
REMARK  Name = 5288641
REMARK  1 active torsions:
REMARK  status: ('A' for Active; 'I' for Inactive)
REMARK    1  A    between atoms: C_14  and  S_23
REMARK                            x       y       z     vdW  Elec       q    Type
REMARK                         _______ _______ _______ _____ _____    ______ ____
ROOT
ATOM      1  O   UNL     1      32.990 -22.012 -19.468  0.00  0.00    -0.270 OA
ATOM      2  O   UNL     1      33.304 -24.210 -14.691  0.00  0.00    -0.285 OA
ATOM      3  N   UNL     1      31.286 -23.271 -17.386  0.00  0.00    -0.310 N 
ATOM      4  N   UNL     1      35.243 -21.980 -18.757  0.00  0.00    -0.280 N 
ATOM      5  C   UNL     1      33.718 -22.904 -17.323  0.00  0.00    +0.071 C 
ATOM      6  C   UNL     1      35.034 -22.983 -16.698  0.00  0.00    +0.020 C 
ATOM      7  C   UNL     1      32.545 -23.321 -16.843  0.00  0.00    +0.092 C 
ATOM      8  C   UNL     1      35.922 -22.407 -17.612  0.00  0.00    +0.051 C 
ATOM      9  C   UNL     1      33.873 -22.247 -18.663  0.00  0.00    +0.251 C 
ATOM     10  C   UNL     1      30.991 -24.282 -15.344  0.00  0.00    +0.054 C 
ATOM     11  C   UNL     1      30.362 -23.834 -16.514  0.00  0.00    +0.051 C 
ATOM     12  C   UNL     1      32.426 -23.977 -15.493  0.00  0.00    +0.210 C 
ATOM     13  C   UNL     1      35.487 -23.478 -15.490  0.00  0.00    +0.020 C 
ATOM     14  C   UNL     1      36.856 -23.384 -15.216  0.00  0.00    +0.112 C 
ATOM     15  C   UNL     1      37.277 -22.305 -17.361  0.00  0.00    +0.016 C 
ATOM     16  C   UNL     1      37.742 -22.804 -16.142  0.00  0.00    +0.020 C 
ATOM     17  C   UNL     1      30.314 -24.883 -14.304  0.00  0.00    +0.004 C 
ATOM     18  C   UNL     1      29.000 -23.984 -16.666  0.00  0.00    +0.015 C 
ATOM     19  C   UNL     1      28.936 -25.034 -14.458  0.00  0.00    +0.000 C 
ATOM     20  C   UNL     1      28.285 -24.590 -15.626  0.00  0.00    +0.001 C 
ATOM     21  H   UNL     1      31.067 -22.891 -18.267  0.00  0.00    +0.152 HD
ATOM     22  H   UNL     1      35.673 -21.545 -19.529  0.00  0.00    +0.155 HD
ENDROOT
BRANCH  14  23
ATOM     23  S   UNL     1      37.475 -23.996 -13.700  0.00  0.00    +0.042 S 
ATOM     24  O   UNL     1      38.896 -24.712 -14.076  0.00  0.00    -0.065 OA
ATOM     25  O   UNL     1      37.784 -22.857 -12.850  0.00  0.00    -0.065 OA
ATOM     26  O   UNL     1      36.553 -25.028 -13.253  0.00  0.00    -0.065 OA
ENDBRANCH  14  23
TORSDOF 1
ENDMDL
