MODEL 1
REMARK VINA RESULT:     -11.1      0.000      0.000
REMARK  Name = 444746
REMARK  6 active torsions:
REMARK  status: ('A' for Active; 'I' for Inactive)
REMARK    1  A    between atoms: C_1  and  C_9
REMARK    2  A    between atoms: C_1  and  N_13
REMARK    3  A    between atoms: C_1  and  C_27
REMARK    4  A    between atoms: C_4  and  O_10
REMARK    5  A    between atoms: C_14  and  C_18
REMARK    6  A    between atoms: C_27  and  C_29
REMARK                            x       y       z     vdW  Elec       q    Type
REMARK                         _______ _______ _______ _____ _____    ______ ____
ROOT
ATOM      1  C   UNL     1      33.854 -23.545 -16.744  0.00  0.00    +0.153 C 
ENDROOT
BRANCH   1   9
ATOM      2  O   UNL     1      31.774 -22.606 -17.383  0.00  0.00    -0.273 OA
ATOM      3  N   UNL     1      31.702 -24.289 -15.784  0.00  0.00    -0.278 N 
ATOM      4  C   UNL     1      30.426 -25.103 -13.319  0.00  0.00    +0.114 C 
ATOM      5  C   UNL     1      29.788 -24.068 -14.249  0.00  0.00    +0.051 C 
ATOM      6  C   UNL     1      31.947 -25.098 -13.468  0.00  0.00    +0.051 C 
ATOM      7  C   UNL     1      30.240 -24.272 -15.691  0.00  0.00    +0.096 C 
ATOM      8  C   UNL     1      32.362 -25.282 -14.925  0.00  0.00    +0.096 C 
ATOM      9  C   UNL     1      32.351 -23.433 -16.672  0.00  0.00    +0.244 C 
BRANCH   4  10
ATOM     10  O   UNL     1      30.097 -24.804 -11.968  0.00  0.00    -0.384 OA
ATOM     11  H   UNL     1      29.194 -24.449 -11.926  0.00  0.00    +0.210 HD
ENDBRANCH   4  10
ENDBRANCH   1   9
BRANCH   1  13
ATOM     12  O   UNL     1      34.148 -23.897 -19.526  0.00  0.00    -0.269 OA
ATOM     13  N   UNL     1      34.222 -22.526 -17.683  0.00  0.00    -0.294 N 
ATOM     14  C   UNL     1      34.349 -22.777 -19.054  0.00  0.00    +0.260 C 
ATOM     15  H   UNL     1      34.393 -21.615 -17.352  0.00  0.00    +0.150 HD
BRANCH  14  18
ATOM     16 CL   UNL     1      35.140 -16.752 -23.729  0.00  0.00    -0.082 Cl
ATOM     17  N   UNL     1      35.951 -21.125 -19.940  0.00  0.00    -0.309 N 
ATOM     18  C   UNL     1      34.702 -21.624 -19.893  0.00  0.00    +0.102 C 
ATOM     19  C   UNL     1      33.875 -20.923 -20.700  0.00  0.00    +0.020 C 
ATOM     20  C   UNL     1      34.669 -19.906 -21.300  0.00  0.00    +0.016 C 
ATOM     21  C   UNL     1      35.968 -20.054 -20.806  0.00  0.00    +0.048 C 
ATOM     22  C   UNL     1      34.408 -18.869 -22.218  0.00  0.00    +0.013 C 
ATOM     23  C   UNL     1      37.021 -19.216 -21.187  0.00  0.00    +0.015 C 
ATOM     24  C   UNL     1      35.452 -18.022 -22.607  0.00  0.00    +0.058 C 
ATOM     25  C   UNL     1      36.737 -18.195 -22.098  0.00  0.00    +0.013 C 
ATOM     26  H   UNL     1      36.726 -21.468 -19.439  0.00  0.00    +0.152 HD
ENDBRANCH  14  18
ENDBRANCH   1  13
BRANCH   1  27
ATOM     27  C   UNL     1      34.463 -23.340 -15.363  0.00  0.00    +0.055 C 
BRANCH  27  29
ATOM     28  F   UNL     1      39.395 -25.980 -14.809  0.00  0.00    -0.204 F 
ATOM     29  C   UNL     1      35.786 -24.049 -15.215  0.00  0.00    -0.020 C 
ATOM     30  C   UNL     1      35.804 -25.409 -14.950  0.00  0.00    -0.002 C 
ATOM     31  C   UNL     1      36.963 -23.326 -15.345  0.00  0.00    -0.002 C 
ATOM     32  C   UNL     1      37.028 -26.064 -14.811  0.00  0.00    +0.029 C 
ATOM     33  C   UNL     1      38.187 -23.981 -15.207  0.00  0.00    +0.029 C 
ATOM     34  C   UNL     1      38.219 -25.350 -14.940  0.00  0.00    +0.140 C 
ENDBRANCH  27  29
ENDBRANCH   1  27
TORSDOF 6
ENDMDL
MODEL 2
REMARK VINA RESULT:     -10.9      2.872      4.793
REMARK  Name = 444746
REMARK  6 active torsions:
REMARK  status: ('A' for Active; 'I' for Inactive)
REMARK    1  A    between atoms: C_1  and  C_9
REMARK    2  A    between atoms: C_1  and  N_13
REMARK    3  A    between atoms: C_1  and  C_27
REMARK    4  A    between atoms: C_4  and  O_10
REMARK    5  A    between atoms: C_14  and  C_18
REMARK    6  A    between atoms: C_27  and  C_29
REMARK                            x       y       z     vdW  Elec       q    Type
REMARK                         _______ _______ _______ _____ _____    ______ ____
ROOT
ATOM      1  C   UNL     1      35.228 -22.894 -15.868  0.00  0.00    +0.153 C 
ENDROOT
BRANCH   1   9
ATOM      2  O   UNL     1      37.426 -23.465 -16.545  0.00  0.00    -0.273 OA
ATOM      3  N   UNL     1      36.914 -23.799 -14.305  0.00  0.00    -0.278 N 
ATOM      4  C   UNL     1      37.269 -25.617 -12.083  0.00  0.00    +0.114 C 
ATOM      5  C   UNL     1      38.209 -25.633 -13.291  0.00  0.00    +0.051 C 
ATOM      6  C   UNL     1      35.886 -25.101 -12.481  0.00  0.00    +0.051 C 
ATOM      7  C   UNL     1      38.260 -24.267 -13.966  0.00  0.00    +0.096 C 
ATOM      8  C   UNL     1      35.978 -23.744 -13.173  0.00  0.00    +0.096 C 
ATOM      9  C   UNL     1      36.623 -23.409 -15.611  0.00  0.00    +0.244 C 
BRANCH   4  10
ATOM     10  O   UNL     1      37.135 -26.932 -11.560  0.00  0.00    -0.384 OA
ATOM     11  H   UNL     1      36.258 -27.031 -11.156  0.00  0.00    +0.210 HD
ENDBRANCH   4  10
ENDBRANCH   1   9
BRANCH   1  13
ATOM     12  O   UNL     1      34.483 -23.596 -18.495  0.00  0.00    -0.269 OA
ATOM     13  N   UNL     1      35.384 -22.071 -17.032  0.00  0.00    -0.294 N 
ATOM     14  C   UNL     1      34.989 -22.488 -18.307  0.00  0.00    +0.260 C 
ATOM     15  H   UNL     1      35.785 -21.177 -16.930  0.00  0.00    +0.150 HD
BRANCH  14  18
ATOM     16 CL   UNL     1      34.969 -17.635 -24.243  0.00  0.00    -0.082 Cl
ATOM     17  N   UNL     1      36.355 -20.884 -19.589  0.00  0.00    -0.309 N 
ATOM     18  C   UNL     1      35.185 -21.520 -19.395  0.00  0.00    +0.102 C 
ATOM     19  C   UNL     1      34.273 -21.138 -20.316  0.00  0.00    +0.020 C 
ATOM     20  C   UNL     1      34.923 -20.187 -21.152  0.00  0.00    +0.016 C 
ATOM     21  C   UNL     1      36.228 -20.046 -20.675  0.00  0.00    +0.048 C 
ATOM     22  C   UNL     1      34.526 -19.431 -22.273  0.00  0.00    +0.013 C 
ATOM     23  C   UNL     1      37.160 -19.184 -21.265  0.00  0.00    +0.015 C 
ATOM     24  C   UNL     1      35.446 -18.564 -22.873  0.00  0.00    +0.058 C 
ATOM     25  C   UNL     1      36.742 -18.444 -22.375  0.00  0.00    +0.013 C 
ATOM     26  H   UNL     1      37.168 -20.998 -19.046  0.00  0.00    +0.152 HD
ENDBRANCH  14  18
ENDBRANCH   1  13
BRANCH   1  27
ATOM     27  C   UNL     1      34.268 -24.057 -16.078  0.00  0.00    +0.055 C 
BRANCH  27  29
ATOM     28  F   UNL     1      29.006 -22.758 -14.589  0.00  0.00    -0.204 F 
ATOM     29  C   UNL     1      32.856 -23.708 -15.678  0.00  0.00    -0.020 C 
ATOM     30  C   UNL     1      32.523 -23.656 -14.334  0.00  0.00    -0.002 C 
ATOM     31  C   UNL     1      31.915 -23.447 -16.663  0.00  0.00    -0.002 C 
ATOM     32  C   UNL     1      31.217 -23.334 -13.964  0.00  0.00    +0.029 C 
ATOM     33  C   UNL     1      30.609 -23.125 -16.294  0.00  0.00    +0.029 C 
ATOM     34  C   UNL     1      30.260 -23.069 -14.944  0.00  0.00    +0.140 C 
ENDBRANCH  27  29
ENDBRANCH   1  27
TORSDOF 6
ENDMDL
MODEL 3
REMARK VINA RESULT:     -10.4      3.057      5.145
REMARK  Name = 444746
REMARK  6 active torsions:
REMARK  status: ('A' for Active; 'I' for Inactive)
REMARK    1  A    between atoms: C_1  and  C_9
REMARK    2  A    between atoms: C_1  and  N_13
REMARK    3  A    between atoms: C_1  and  C_27
REMARK    4  A    between atoms: C_4  and  O_10
REMARK    5  A    between atoms: C_14  and  C_18
REMARK    6  A    between atoms: C_27  and  C_29
REMARK                            x       y       z     vdW  Elec       q    Type
REMARK                         _______ _______ _______ _____ _____    ______ ____
ROOT
ATOM      1  C   UNL     1      34.201 -23.871 -15.695  0.00  0.00    +0.153 C 
ENDROOT
BRANCH   1   9
ATOM      2  O   UNL     1      35.470 -25.799 -16.233  0.00  0.00    -0.273 OA
ATOM      3  N   UNL     1      36.422 -24.325 -14.711  0.00  0.00    -0.278 N 
ATOM      4  C   UNL     1      37.937 -24.177 -12.252  0.00  0.00    +0.114 C 
ATOM      5  C   UNL     1      37.931 -25.440 -13.115  0.00  0.00    +0.051 C 
ATOM      6  C   UNL     1      36.643 -23.386 -12.443  0.00  0.00    +0.051 C 
ATOM      7  C   UNL     1      37.654 -25.106 -14.578  0.00  0.00    +0.096 C 
ATOM      8  C   UNL     1      36.387 -23.089 -13.917  0.00  0.00    +0.096 C 
ATOM      9  C   UNL     1      35.417 -24.756 -15.577  0.00  0.00    +0.244 C 
BRANCH   4  10
ATOM     10  O   UNL     1      38.060 -24.532 -10.880  0.00  0.00    -0.384 OA
ATOM     11  H   UNL     1      37.532 -23.922 -10.340  0.00  0.00    +0.210 HD
ENDBRANCH   4  10
ENDBRANCH   1   9
BRANCH   1  13
ATOM     12  O   UNL     1      33.820 -24.255 -18.462  0.00  0.00    -0.269 OA
ATOM     13  N   UNL     1      34.561 -22.943 -16.727  0.00  0.00    -0.294 N 
ATOM     14  C   UNL     1      34.340 -23.204 -18.084  0.00  0.00    +0.260 C 
ATOM     15  H   UNL     1      34.980 -22.089 -16.472  0.00  0.00    +0.150 HD
BRANCH  14  18
ATOM     16 CL   UNL     1      35.346 -17.649 -23.272  0.00  0.00    -0.082 Cl
ATOM     17  N   UNL     1      35.998 -21.687 -19.100  0.00  0.00    -0.309 N 
ATOM     18  C   UNL     1      34.733 -22.142 -19.019  0.00  0.00    +0.102 C 
ATOM     19  C   UNL     1      33.934 -21.492 -19.893  0.00  0.00    +0.020 C 
ATOM     20  C   UNL     1      34.763 -20.557 -20.575  0.00  0.00    +0.016 C 
ATOM     21  C   UNL     1      36.053 -20.699 -20.059  0.00  0.00    +0.048 C 
ATOM     22  C   UNL     1      34.539 -19.599 -21.585  0.00  0.00    +0.013 C 
ATOM     23  C   UNL     1      37.134 -19.931 -20.503  0.00  0.00    +0.015 C 
ATOM     24  C   UNL     1      35.611 -18.821 -22.038  0.00  0.00    +0.058 C 
ATOM     25  C   UNL     1      36.887 -18.987 -21.504  0.00  0.00    +0.013 C 
ATOM     26  H   UNL     1      36.758 -22.007 -18.563  0.00  0.00    +0.152 HD
ENDBRANCH  14  18
ENDBRANCH   1  13
BRANCH   1  27
ATOM     27  C   UNL     1      32.975 -24.707 -16.037  0.00  0.00    +0.055 C 
BRANCH  27  29
ATOM     28  F   UNL     1      28.184 -22.037 -14.808  0.00  0.00    -0.204 F 
ATOM     29  C   UNL     1      31.689 -23.991 -15.708  0.00  0.00    -0.020 C 
ATOM     30  C   UNL     1      30.933 -23.444 -16.732  0.00  0.00    -0.002 C 
ATOM     31  C   UNL     1      31.286 -23.891 -14.384  0.00  0.00    -0.002 C 
ATOM     32  C   UNL     1      29.745 -22.780 -16.427  0.00  0.00    +0.029 C 
ATOM     33  C   UNL     1      30.097 -23.228 -14.079  0.00  0.00    +0.029 C 
ATOM     34  C   UNL     1      29.326 -22.672 -15.101  0.00  0.00    +0.140 C 
ENDBRANCH  27  29
ENDBRANCH   1  27
TORSDOF 6
ENDMDL
MODEL 4
REMARK VINA RESULT:      -9.6      1.724      2.844
REMARK  Name = 444746
REMARK  6 active torsions:
REMARK  status: ('A' for Active; 'I' for Inactive)
REMARK    1  A    between atoms: C_1  and  C_9
REMARK    2  A    between atoms: C_1  and  N_13
REMARK    3  A    between atoms: C_1  and  C_27
REMARK    4  A    between atoms: C_4  and  O_10
REMARK    5  A    between atoms: C_14  and  C_18
REMARK    6  A    between atoms: C_27  and  C_29
REMARK                            x       y       z     vdW  Elec       q    Type
REMARK                         _______ _______ _______ _____ _____    ______ ____
ROOT
ATOM      1  C   UNL     1      32.993 -24.109 -14.659  0.00  0.00    +0.153 C 
ENDROOT
BRANCH   1   9
ATOM      2  O   UNL     1      31.487 -23.460 -12.949  0.00  0.00    -0.273 OA
ATOM      3  N   UNL     1      30.769 -23.144 -15.135  0.00  0.00    -0.278 N 
ATOM      4  C   UNL     1      28.477 -23.365 -16.885  0.00  0.00    +0.114 C 
ATOM      5  C   UNL     1      28.320 -23.278 -15.366  0.00  0.00    +0.051 C 
ATOM      6  C   UNL     1      29.827 -23.978 -17.254  0.00  0.00    +0.051 C 
ATOM      7  C   UNL     1      29.496 -22.541 -14.732  0.00  0.00    +0.096 C 
ATOM      8  C   UNL     1      30.978 -23.231 -16.587  0.00  0.00    +0.096 C 
ATOM      9  C   UNL     1      31.686 -23.542 -14.163  0.00  0.00    +0.244 C 
BRANCH   4  10
ATOM     10  O   UNL     1      27.442 -24.173 -17.431  0.00  0.00    -0.384 OA
ATOM     11  H   UNL     1      27.439 -24.085 -18.397  0.00  0.00    +0.210 HD
ENDBRANCH   4  10
ENDBRANCH   1   9
BRANCH   1  13
ATOM     12  O   UNL     1      33.990 -25.013 -17.136  0.00  0.00    -0.269 OA
ATOM     13  N   UNL     1      33.311 -23.282 -15.786  0.00  0.00    -0.294 N 
ATOM     14  C   UNL     1      33.804 -23.804 -16.987  0.00  0.00    +0.260 C 
ATOM     15  H   UNL     1      33.179 -22.309 -15.713  0.00  0.00    +0.150 HD
BRANCH  14  18
ATOM     16 CL   UNL     1      36.157 -18.864 -22.357  0.00  0.00    -0.082 Cl
ATOM     17  N   UNL     1      33.055 -22.288 -18.782  0.00  0.00    -0.309 N 
ATOM     18  C   UNL     1      34.052 -22.834 -18.061  0.00  0.00    +0.102 C 
ATOM     19  C   UNL     1      35.251 -22.365 -18.472  0.00  0.00    +0.020 C 
ATOM     20  C   UNL     1      34.983 -21.455 -19.533  0.00  0.00    +0.016 C 
ATOM     21  C   UNL     1      33.598 -21.424 -19.707  0.00  0.00    +0.048 C 
ATOM     22  C   UNL     1      35.789 -20.650 -20.364  0.00  0.00    +0.013 C 
ATOM     23  C   UNL     1      32.975 -20.627 -20.673  0.00  0.00    +0.015 C 
ATOM     24  C   UNL     1      35.180 -19.849 -21.337  0.00  0.00    +0.058 C 
ATOM     25  C   UNL     1      33.795 -19.839 -21.486  0.00  0.00    +0.013 C 
ATOM     26  H   UNL     1      32.095 -22.474 -18.667  0.00  0.00    +0.152 HD
ENDBRANCH  14  18
ENDBRANCH   1  13
BRANCH   1  27
ATOM     27  C   UNL     1      34.042 -24.054 -13.556  0.00  0.00    +0.055 C 
BRANCH  27  29
ATOM     28  F   UNL     1      39.267 -24.530 -15.574  0.00  0.00    -0.204 F 
ATOM     29  C   UNL     1      35.444 -24.182 -14.098  0.00  0.00    -0.020 C 
ATOM     30  C   UNL     1      35.948 -25.439 -14.392  0.00  0.00    -0.002 C 
ATOM     31  C   UNL     1      36.205 -23.039 -14.292  0.00  0.00    -0.002 C 
ATOM     32  C   UNL     1      37.245 -25.557 -14.892  0.00  0.00    +0.029 C 
ATOM     33  C   UNL     1      37.502 -23.157 -14.793  0.00  0.00    +0.029 C 
ATOM     34  C   UNL     1      38.022 -24.417 -15.092  0.00  0.00    +0.140 C 
ENDBRANCH  27  29
ENDBRANCH   1  27
TORSDOF 6
ENDMDL
MODEL 5
REMARK VINA RESULT:      -8.8      2.244      3.347
REMARK  Name = 444746
REMARK  6 active torsions:
REMARK  status: ('A' for Active; 'I' for Inactive)
REMARK    1  A    between atoms: C_1  and  C_9
REMARK    2  A    between atoms: C_1  and  N_13
REMARK    3  A    between atoms: C_1  and  C_27
REMARK    4  A    between atoms: C_4  and  O_10
REMARK    5  A    between atoms: C_14  and  C_18
REMARK    6  A    between atoms: C_27  and  C_29
REMARK                            x       y       z     vdW  Elec       q    Type
REMARK                         _______ _______ _______ _____ _____    ______ ____
ROOT
ATOM      1  C   UNL     1      33.358 -24.800 -13.999  0.00  0.00    +0.153 C 
ENDROOT
BRANCH   1   9
ATOM      2  O   UNL     1      31.601 -26.345 -13.621  0.00  0.00    -0.273 OA
ATOM      3  N   UNL     1      30.985 -24.251 -14.415  0.00  0.00    -0.278 N 
ATOM      4  C   UNL     1      29.213 -22.888 -16.250  0.00  0.00    +0.114 C 
ATOM      5  C   UNL     1      28.920 -24.306 -15.758  0.00  0.00    +0.051 C 
ATOM      6  C   UNL     1      30.716 -22.610 -16.235  0.00  0.00    +0.051 C 
ATOM      7  C   UNL     1      29.553 -24.556 -14.392  0.00  0.00    +0.096 C 
ATOM      8  C   UNL     1      31.318 -22.891 -14.862  0.00  0.00    +0.096 C 
ATOM      9  C   UNL     1      31.906 -25.208 -13.991  0.00  0.00    +0.244 C 
BRANCH   4  10
ATOM     10  O   UNL     1      28.731 -22.730 -17.579  0.00  0.00    -0.384 OA
ATOM     11  H   UNL     1      29.404 -22.283 -18.116  0.00  0.00    +0.210 HD
ENDBRANCH   4  10
ENDBRANCH   1   9
BRANCH   1  13
ATOM     12  O   UNL     1      35.427 -24.965 -15.907  0.00  0.00    -0.269 OA
ATOM     13  N   UNL     1      33.474 -23.996 -15.181  0.00  0.00    -0.294 N 
ATOM     14  C   UNL     1      34.533 -24.136 -16.084  0.00  0.00    +0.260 C 
ATOM     15  H   UNL     1      32.783 -23.319 -15.364  0.00  0.00    +0.150 HD
BRANCH  14  18
ATOM     16 CL   UNL     1      33.261 -19.725 -22.225  0.00  0.00    -0.082 Cl
ATOM     17  N   UNL     1      35.610 -22.719 -17.792  0.00  0.00    -0.309 N 
ATOM     18  C   UNL     1      34.496 -23.262 -17.265  0.00  0.00    +0.102 C 
ATOM     19  C   UNL     1      33.403 -22.887 -17.964  0.00  0.00    +0.020 C 
ATOM     20  C   UNL     1      33.868 -22.043 -19.012  0.00  0.00    +0.016 C 
ATOM     21  C   UNL     1      35.256 -21.954 -18.881  0.00  0.00    +0.048 C 
ATOM     22  C   UNL     1      33.240 -21.344 -20.062  0.00  0.00    +0.013 C 
ATOM     23  C   UNL     1      36.050 -21.199 -19.751  0.00  0.00    +0.015 C 
ATOM     24  C   UNL     1      34.021 -20.583 -20.939  0.00  0.00    +0.058 C 
ATOM     25  C   UNL     1      35.404 -20.514 -20.784  0.00  0.00    +0.013 C 
ATOM     26  H   UNL     1      36.526 -22.847 -17.456  0.00  0.00    +0.152 HD
ENDBRANCH  14  18
ENDBRANCH   1  13
BRANCH   1  27
ATOM     27  C   UNL     1      33.699 -24.045 -12.721  0.00  0.00    +0.055 C 
BRANCH  27  29
ATOM     28  F   UNL     1      39.208 -24.140 -11.609  0.00  0.00    -0.204 F 
ATOM     29  C   UNL     1      35.177 -24.071 -12.423  0.00  0.00    -0.020 C 
ATOM     30  C   UNL     1      35.656 -24.911 -11.430  0.00  0.00    -0.002 C 
ATOM     31  C   UNL     1      36.031 -23.252 -13.146  0.00  0.00    -0.002 C 
ATOM     32  C   UNL     1      37.023 -24.934 -11.153  0.00  0.00    +0.029 C 
ATOM     33  C   UNL     1      37.399 -23.275 -12.870  0.00  0.00    +0.029 C 
ATOM     34  C   UNL     1      37.895 -24.116 -11.873  0.00  0.00    +0.140 C 
ENDBRANCH  27  29
ENDBRANCH   1  27
TORSDOF 6
ENDMDL
MODEL 6
REMARK VINA RESULT:      -8.6     11.554     16.070
REMARK  Name = 444746
REMARK  6 active torsions:
REMARK  status: ('A' for Active; 'I' for Inactive)
REMARK    1  A    between atoms: C_1  and  C_9
REMARK    2  A    between atoms: C_1  and  N_13
REMARK    3  A    between atoms: C_1  and  C_27
REMARK    4  A    between atoms: C_4  and  O_10
REMARK    5  A    between atoms: C_14  and  C_18
REMARK    6  A    between atoms: C_27  and  C_29
REMARK                            x       y       z     vdW  Elec       q    Type
REMARK                         _______ _______ _______ _____ _____    ______ ____
ROOT
ATOM      1  C   UNL     1      32.826  -7.961 -23.653  0.00  0.00    +0.153 C 
ENDROOT
BRANCH   1   9
ATOM      2  O   UNL     1      33.465  -6.972 -21.597  0.00  0.00    -0.273 OA
ATOM      3  N   UNL     1      32.058  -8.815 -21.466  0.00  0.00    -0.278 N 
ATOM      4  C   UNL     1      31.537 -11.243 -19.982  0.00  0.00    +0.114 C 
ATOM      5  C   UNL     1      32.351 -10.095 -19.381  0.00  0.00    +0.051 C 
ATOM      6  C   UNL     1      31.652 -11.246 -21.506  0.00  0.00    +0.051 C 
ATOM      7  C   UNL     1      31.961  -8.758 -20.005  0.00  0.00    +0.096 C 
ATOM      8  C   UNL     1      31.276  -9.889 -22.094  0.00  0.00    +0.096 C 
ATOM      9  C   UNL     1      32.816  -7.864 -22.148  0.00  0.00    +0.244 C 
BRANCH   4  10
ATOM     10  O   UNL     1      32.017 -12.485 -19.484  0.00  0.00    -0.384 OA
ATOM     11  H   UNL     1      31.494 -13.209 -19.864  0.00  0.00    +0.210 HD
ENDBRANCH   4  10
ENDBRANCH   1   9
BRANCH   1  13
ATOM     12  O   UNL     1      35.183  -9.474 -23.971  0.00  0.00    -0.269 OA
ATOM     13  N   UNL     1      32.889  -9.372 -23.898  0.00  0.00    -0.294 N 
ATOM     14  C   UNL     1      34.100 -10.057 -24.045  0.00  0.00    +0.260 C 
ATOM     15  H   UNL     1      32.048  -9.880 -23.966  0.00  0.00    +0.150 HD
BRANCH  14  18
ATOM     16 CL   UNL     1      33.159 -17.373 -26.135  0.00  0.00    -0.082 Cl
ATOM     17  N   UNL     1      34.419 -12.399 -23.342  0.00  0.00    -0.309 N 
ATOM     18  C   UNL     1      34.002 -11.507 -24.260  0.00  0.00    +0.102 C 
ATOM     19  C   UNL     1      33.510 -12.136 -25.349  0.00  0.00    +0.020 C 
ATOM     20  C   UNL     1      33.626 -13.531 -25.094  0.00  0.00    +0.016 C 
ATOM     21  C   UNL     1      34.199 -13.669 -23.827  0.00  0.00    +0.048 C 
ATOM     22  C   UNL     1      33.298 -14.694 -25.820  0.00  0.00    +0.013 C 
ATOM     23  C   UNL     1      34.461 -14.916 -23.248  0.00  0.00    +0.015 C 
ATOM     24  C   UNL     1      33.556 -15.948 -25.254  0.00  0.00    +0.058 C 
ATOM     25  C   UNL     1      34.128 -16.054 -23.989  0.00  0.00    +0.013 C 
ATOM     26  H   UNL     1      34.814 -12.181 -22.467  0.00  0.00    +0.152 HD
ENDBRANCH  14  18
ENDBRANCH   1  13
BRANCH   1  27
ATOM     27  C   UNL     1      31.579  -7.304 -24.231  0.00  0.00    +0.055 C 
BRANCH  27  29
ATOM     28  F   UNL     1      32.274  -1.786 -25.044  0.00  0.00    -0.204 F 
ATOM     29  C   UNL     1      31.766  -5.824 -24.449  0.00  0.00    -0.020 C 
ATOM     30  C   UNL     1      31.052  -4.926 -23.671  0.00  0.00    -0.002 C 
ATOM     31  C   UNL     1      32.648  -5.386 -25.426  0.00  0.00    -0.002 C 
ATOM     32  C   UNL     1      31.223  -3.557 -23.873  0.00  0.00    +0.029 C 
ATOM     33  C   UNL     1      32.820  -4.016 -25.628  0.00  0.00    +0.029 C 
ATOM     34  C   UNL     1      32.107  -3.102 -24.852  0.00  0.00    +0.140 C 
ENDBRANCH  27  29
ENDBRANCH   1  27
TORSDOF 6
ENDMDL
MODEL 7
REMARK VINA RESULT:      -8.6      3.942      7.651
REMARK  Name = 444746
REMARK  6 active torsions:
REMARK  status: ('A' for Active; 'I' for Inactive)
REMARK    1  A    between atoms: C_1  and  C_9
REMARK    2  A    between atoms: C_1  and  N_13
REMARK    3  A    between atoms: C_1  and  C_27
REMARK    4  A    between atoms: C_4  and  O_10
REMARK    5  A    between atoms: C_14  and  C_18
REMARK    6  A    between atoms: C_27  and  C_29
REMARK                            x       y       z     vdW  Elec       q    Type
REMARK                         _______ _______ _______ _____ _____    ______ ____
ROOT
ATOM      1  C   UNL     1      36.628 -23.279 -16.233  0.00  0.00    +0.153 C 
ENDROOT
BRANCH   1   9
ATOM      2  O   UNL     1      36.853 -22.400 -14.044  0.00  0.00    -0.273 OA
ATOM      3  N   UNL     1      37.656 -24.553 -14.383  0.00  0.00    -0.278 N 
ATOM      4  C   UNL     1      39.825 -26.355 -13.738  0.00  0.00    +0.114 C 
ATOM      5  C   UNL     1      39.523 -25.125 -12.880  0.00  0.00    +0.051 C 
ATOM      6  C   UNL     1      39.373 -26.131 -15.181  0.00  0.00    +0.051 C 
ATOM      7  C   UNL     1      38.054 -24.729 -12.983  0.00  0.00    +0.096 C 
ATOM      8  C   UNL     1      37.906 -25.716 -15.245  0.00  0.00    +0.096 C 
ATOM      9  C   UNL     1      37.052 -23.364 -14.788  0.00  0.00    +0.244 C 
BRANCH   4  10
ATOM     10  O   UNL     1      41.223 -26.616 -13.731  0.00  0.00    -0.384 OA
ATOM     11  H   UNL     1      41.405 -27.416 -14.249  0.00  0.00    +0.210 HD
ENDBRANCH   4  10
ENDBRANCH   1   9
BRANCH   1  13
ATOM     12  O   UNL     1      34.906 -25.458 -15.746  0.00  0.00    -0.269 OA
ATOM     13  N   UNL     1      35.197 -23.216 -16.160  0.00  0.00    -0.294 N 
ATOM     14  C   UNL     1      34.407 -24.344 -15.913  0.00  0.00    +0.260 C 
ATOM     15  H   UNL     1      34.754 -22.347 -16.288  0.00  0.00    +0.150 HD
BRANCH  14  18
ATOM     16 CL   UNL     1      26.992 -22.436 -16.323  0.00  0.00    -0.082 Cl
ATOM     17  N   UNL     1      32.173 -24.764 -14.955  0.00  0.00    -0.309 N 
ATOM     18  C   UNL     1      32.958 -24.114 -15.836  0.00  0.00    +0.102 C 
ATOM     19  C   UNL     1      32.228 -23.267 -16.593  0.00  0.00    +0.020 C 
ATOM     20  C   UNL     1      30.881 -23.394 -16.152  0.00  0.00    +0.016 C 
ATOM     21  C   UNL     1      30.874 -24.340 -15.124  0.00  0.00    +0.048 C 
ATOM     22  C   UNL     1      29.662 -22.795 -16.529  0.00  0.00    +0.013 C 
ATOM     23  C   UNL     1      29.706 -24.717 -14.451  0.00  0.00    +0.015 C 
ATOM     24  C   UNL     1      28.485 -23.163 -15.867  0.00  0.00    +0.058 C 
ATOM     25  C   UNL     1      28.510 -24.109 -14.845  0.00  0.00    +0.013 C 
ATOM     26  H   UNL     1      32.477 -25.431 -14.298  0.00  0.00    +0.152 HD
ENDBRANCH  14  18
ENDBRANCH   1  13
BRANCH   1  27
ATOM     27  C   UNL     1      37.252 -22.056 -16.893  0.00  0.00    +0.055 C 
BRANCH  27  29
ATOM     28  F   UNL     1      34.630 -20.656 -21.664  0.00  0.00    -0.204 F 
ATOM     29  C   UNL     1      36.548 -21.681 -18.174  0.00  0.00    -0.020 C 
ATOM     30  C   UNL     1      37.185 -20.848 -19.080  0.00  0.00    -0.002 C 
ATOM     31  C   UNL     1      35.276 -22.175 -18.421  0.00  0.00    -0.002 C 
ATOM     32  C   UNL     1      36.534 -20.500 -20.264  0.00  0.00    +0.029 C 
ATOM     33  C   UNL     1      34.625 -21.827 -19.605  0.00  0.00    +0.029 C 
ATOM     34  C   UNL     1      35.255 -20.989 -20.526  0.00  0.00    +0.140 C 
ENDBRANCH  27  29
ENDBRANCH   1  27
TORSDOF 6
ENDMDL
MODEL 8
REMARK VINA RESULT:      -8.6      4.067      7.154
REMARK  Name = 444746
REMARK  6 active torsions:
REMARK  status: ('A' for Active; 'I' for Inactive)
REMARK    1  A    between atoms: C_1  and  C_9
REMARK    2  A    between atoms: C_1  and  N_13
REMARK    3  A    between atoms: C_1  and  C_27
REMARK    4  A    between atoms: C_4  and  O_10
REMARK    5  A    between atoms: C_14  and  C_18
REMARK    6  A    between atoms: C_27  and  C_29
REMARK                            x       y       z     vdW  Elec       q    Type
REMARK                         _______ _______ _______ _____ _____    ______ ____
ROOT
ATOM      1  C   UNL     1      33.473 -23.271 -16.301  0.00  0.00    +0.153 C 
ENDROOT
BRANCH   1   9
ATOM      2  O   UNL     1      32.985 -24.878 -14.629  0.00  0.00    -0.273 OA
ATOM      3  N   UNL     1      31.176 -23.711 -15.502  0.00  0.00    -0.278 N 
ATOM      4  C   UNL     1      28.434 -23.987 -16.379  0.00  0.00    +0.114 C 
ATOM      5  C   UNL     1      29.082 -25.007 -15.441  0.00  0.00    +0.051 C 
ATOM      6  C   UNL     1      29.489 -23.311 -17.254  0.00  0.00    +0.051 C 
ATOM      7  C   UNL     1      30.204 -24.370 -14.627  0.00  0.00    +0.096 C 
ATOM      8  C   UNL     1      30.606 -22.705 -16.409  0.00  0.00    +0.096 C 
ATOM      9  C   UNL     1      32.530 -24.028 -15.399  0.00  0.00    +0.244 C 
BRANCH   4  10
ATOM     10  O   UNL     1      27.490 -24.638 -17.220  0.00  0.00    -0.384 OA
ATOM     11  H   UNL     1      27.905 -25.412 -17.634  0.00  0.00    +0.210 HD
ENDBRANCH   4  10
ENDBRANCH   1   9
BRANCH   1  13
ATOM     12  O   UNL     1      35.344 -22.365 -14.396  0.00  0.00    -0.269 OA
ATOM     13  N   UNL     1      34.748 -23.867 -16.030  0.00  0.00    -0.294 N 
ATOM     14  C   UNL     1      35.626 -23.360 -15.066  0.00  0.00    +0.260 C 
ATOM     15  H   UNL     1      35.017 -24.664 -16.542  0.00  0.00    +0.150 HD
BRANCH  14  18
ATOM     16 CL   UNL     1      41.673 -27.723 -13.279  0.00  0.00    -0.082 Cl
ATOM     17  N   UNL     1      37.955 -23.902 -15.671  0.00  0.00    -0.309 N 
ATOM     18  C   UNL     1      36.882 -24.100 -14.882  0.00  0.00    +0.102 C 
ATOM     19  C   UNL     1      37.141 -25.041 -13.948  0.00  0.00    +0.020 C 
ATOM     20  C   UNL     1      38.482 -25.466 -14.168  0.00  0.00    +0.016 C 
ATOM     21  C   UNL     1      38.970 -24.736 -15.255  0.00  0.00    +0.048 C 
ATOM     22  C   UNL     1      39.329 -26.404 -13.546  0.00  0.00    +0.013 C 
ATOM     23  C   UNL     1      40.267 -24.897 -15.752  0.00  0.00    +0.015 C 
ATOM     24  C   UNL     1      40.630 -26.578 -14.033  0.00  0.00    +0.058 C 
ATOM     25  C   UNL     1      41.089 -25.835 -15.118  0.00  0.00    +0.013 C 
ATOM     26  H   UNL     1      38.008 -23.266 -16.420  0.00  0.00    +0.152 HD
ENDBRANCH  14  18
ENDBRANCH   1  13
BRANCH   1  27
ATOM     27  C   UNL     1      33.037 -23.412 -17.754  0.00  0.00    +0.055 C 
BRANCH  27  29
ATOM     28  F   UNL     1      35.857 -19.938 -21.157  0.00  0.00    -0.204 F 
ATOM     29  C   UNL     1      33.794 -22.479 -18.667  0.00  0.00    -0.020 C 
ATOM     30  C   UNL     1      33.091 -21.639 -19.515  0.00  0.00    -0.002 C 
ATOM     31  C   UNL     1      35.181 -22.480 -18.642  0.00  0.00    -0.002 C 
ATOM     32  C   UNL     1      33.790 -20.778 -20.361  0.00  0.00    +0.029 C 
ATOM     33  C   UNL     1      35.881 -21.618 -19.487  0.00  0.00    +0.029 C 
ATOM     34  C   UNL     1      35.185 -20.767 -20.347  0.00  0.00    +0.140 C 
ENDBRANCH  27  29
ENDBRANCH   1  27
TORSDOF 6
ENDMDL
MODEL 9
REMARK VINA RESULT:      -8.3      4.030      7.267
REMARK  Name = 444746
REMARK  6 active torsions:
REMARK  status: ('A' for Active; 'I' for Inactive)
REMARK    1  A    between atoms: C_1  and  C_9
REMARK    2  A    between atoms: C_1  and  N_13
REMARK    3  A    between atoms: C_1  and  C_27
REMARK    4  A    between atoms: C_4  and  O_10
REMARK    5  A    between atoms: C_14  and  C_18
REMARK    6  A    between atoms: C_27  and  C_29
REMARK                            x       y       z     vdW  Elec       q    Type
REMARK                         _______ _______ _______ _____ _____    ______ ____
ROOT
ATOM      1  C   UNL     1      34.236 -24.482 -15.015  0.00  0.00    +0.153 C 
ENDROOT
BRANCH   1   9
ATOM      2  O   UNL     1      33.328 -23.600 -13.012  0.00  0.00    -0.273 OA
ATOM      3  N   UNL     1      35.445 -24.543 -12.862  0.00  0.00    -0.278 N 
ATOM      4  C   UNL     1      38.057 -24.216 -11.664  0.00  0.00    +0.114 C 
ATOM      5  C   UNL     1      36.818 -23.533 -11.083  0.00  0.00    +0.051 C 
ATOM      6  C   UNL     1      37.890 -24.455 -13.165  0.00  0.00    +0.051 C 
ATOM      7  C   UNL     1      35.551 -24.313 -11.419  0.00  0.00    +0.096 C 
ATOM      8  C   UNL     1      36.603 -25.218 -13.465  0.00  0.00    +0.096 C 
ATOM      9  C   UNL     1      34.287 -24.167 -13.541  0.00  0.00    +0.244 C 
BRANCH   4  10
ATOM     10  O   UNL     1      39.201 -23.398 -11.455  0.00  0.00    -0.384 OA
ATOM     11  H   UNL     1      39.536 -23.085 -12.311  0.00  0.00    +0.210 HD
ENDBRANCH   4  10
ENDBRANCH   1   9
BRANCH   1  13
ATOM     12  O   UNL     1      31.789 -25.778 -14.485  0.00  0.00    -0.269 OA
ATOM     13  N   UNL     1      32.939 -24.017 -15.412  0.00  0.00    -0.294 N 
ATOM     14  C   UNL     1      31.765 -24.718 -15.112  0.00  0.00    +0.260 C 
ATOM     15  H   UNL     1      32.870 -23.174 -15.916  0.00  0.00    +0.150 HD
BRANCH  14  18
ATOM     16 CL   UNL     1      25.581 -21.656 -18.455  0.00  0.00    -0.082 Cl
ATOM     17  N   UNL     1      29.577 -23.659 -14.692  0.00  0.00    -0.309 N 
ATOM     18  C   UNL     1      30.510 -24.098 -15.558  0.00  0.00    +0.102 C 
ATOM     19  C   UNL     1      30.117 -23.886 -16.833  0.00  0.00    +0.020 C 
ATOM     20  C   UNL     1      28.838 -23.266 -16.761  0.00  0.00    +0.016 C 
ATOM     21  C   UNL     1      28.522 -23.135 -15.406  0.00  0.00    +0.048 C 
ATOM     22  C   UNL     1      27.915 -22.801 -17.719  0.00  0.00    +0.013 C 
ATOM     23  C   UNL     1      27.327 -22.560 -14.961  0.00  0.00    +0.015 C 
ATOM     24  C   UNL     1      26.714 -22.226 -17.289  0.00  0.00    +0.058 C 
ATOM     25  C   UNL     1      26.427 -22.108 -15.931  0.00  0.00    +0.013 C 
ATOM     26  H   UNL     1      29.638 -23.705 -13.711  0.00  0.00    +0.152 HD
ENDBRANCH  14  18
ENDBRANCH   1  13
BRANCH   1  27
ATOM     27  C   UNL     1      35.375 -23.780 -15.743  0.00  0.00    +0.055 C 
BRANCH  27  29
ATOM     28  F   UNL     1      33.653 -21.295 -20.481  0.00  0.00    -0.204 F 
ATOM     29  C   UNL     1      34.913 -23.113 -17.014  0.00  0.00    -0.020 C 
ATOM     30  C   UNL     1      33.580 -23.199 -17.382  0.00  0.00    -0.002 C 
ATOM     31  C   UNL     1      35.831 -22.426 -17.794  0.00  0.00    -0.002 C 
ATOM     32  C   UNL     1      33.152 -22.584 -18.558  0.00  0.00    +0.029 C 
ATOM     33  C   UNL     1      35.403 -21.809 -18.970  0.00  0.00    +0.029 C 
ATOM     34  C   UNL     1      34.064 -21.888 -19.352  0.00  0.00    +0.140 C 
ENDBRANCH  27  29
ENDBRANCH   1  27
TORSDOF 6
ENDMDL
