MODEL 1
REMARK VINA RESULT:     -10.9      0.000      0.000
REMARK  Name = 2079916
REMARK  5 active torsions:
REMARK  status: ('A' for Active; 'I' for Inactive)
REMARK    1  A    between atoms: C_4  and  C_10
REMARK    2  A    between atoms: C_5  and  S_15
REMARK    3  A    between atoms: S_15  and  C_16
REMARK    4  A    between atoms: C_16  and  C_18
REMARK    5  A    between atoms: C_21  and  O_24
REMARK                            x       y       z     vdW  Elec       q    Type
REMARK                         _______ _______ _______ _____ _____    ______ ____
ROOT
ATOM      1  O   UNL     1      35.249 -20.258 -21.515  0.00  0.00    -0.411 OA
ATOM      2  N   UNL     1      36.682 -18.569 -21.208  0.00  0.00    -0.106 NA
ATOM      3  N   UNL     1      36.900 -19.501 -20.210  0.00  0.00    -0.101 NA
ATOM      4  C   UNL     1      35.716 -19.057 -21.938  0.00  0.00    +0.251 A 
ATOM      5  C   UNL     1      36.041 -20.468 -20.428  0.00  0.00    +0.279 A 
ENDROOT
BRANCH   4  10
ATOM      6  O   UNL     1      34.094 -15.363 -24.708  0.00  0.00    -0.435 OA
ATOM      7  O   UNL     1      33.266 -16.860 -26.406  0.00  0.00    -0.435 OA
ATOM      8  C   UNL     1      34.316 -16.669 -24.398  0.00  0.00    +0.177 C 
ATOM      9  C   UNL     1      33.843 -17.524 -25.367  0.00  0.00    +0.176 C 
ATOM     10  C   UNL     1      35.074 -18.518 -23.114  0.00  0.00    +0.058 C 
ATOM     11  C   UNL     1      34.938 -17.136 -23.257  0.00  0.00    +0.045 C 
ATOM     12  C   UNL     1      33.966 -18.893 -25.250  0.00  0.00    +0.040 C 
ATOM     13  C   UNL     1      34.591 -19.392 -24.104  0.00  0.00    +0.008 C 
ATOM     14  C   UNL     1      33.428 -15.491 -25.981  0.00  0.00    +0.429 C 
ENDBRANCH   4  10
BRANCH   5  15
ATOM     15  S   UNL     1      35.916 -21.888 -19.433  0.00  0.00    -0.050 S 
BRANCH  15  16
ATOM     16  C   UNL     1      34.117 -22.011 -19.231  0.00  0.00    +0.093 C 
BRANCH  16  18
ATOM     17  F   UNL     1      35.332 -24.129 -15.023  0.00  0.00    -0.201 F 
ATOM     18  C   UNL     1      33.736 -22.665 -17.932  0.00  0.00    -0.008 C 
ATOM     19  C   UNL     1      34.730 -23.100 -17.066  0.00  0.00    +0.029 C 
ATOM     20  C   UNL     1      32.393 -22.827 -17.616  0.00  0.00    -0.000 C 
ATOM     21  C   UNL     1      33.030 -23.876 -15.535  0.00  0.00    +0.166 C 
ATOM     22  C   UNL     1      34.375 -23.708 -15.862  0.00  0.00    +0.174 C 
ATOM     23  C   UNL     1      32.039 -23.435 -16.412  0.00  0.00    +0.039 C 
BRANCH  21  24
ATOM     24  O   UNL     1      32.682 -24.470 -14.361  0.00  0.00    -0.469 OA
ATOM     25  C   UNL     1      31.354 -24.985 -14.262  0.00  0.00    +0.253 C 
ENDBRANCH  21  24
ENDBRANCH  16  18
ENDBRANCH  15  16
ENDBRANCH   5  15
TORSDOF 5
ENDMDL
MODEL 2
REMARK VINA RESULT:     -10.9      3.201      4.907
REMARK  Name = 2079916
REMARK  5 active torsions:
REMARK  status: ('A' for Active; 'I' for Inactive)
REMARK    1  A    between atoms: C_4  and  C_10
REMARK    2  A    between atoms: C_5  and  S_15
REMARK    3  A    between atoms: S_15  and  C_16
REMARK    4  A    between atoms: C_16  and  C_18
REMARK    5  A    between atoms: C_21  and  O_24
REMARK                            x       y       z     vdW  Elec       q    Type
REMARK                         _______ _______ _______ _____ _____    ______ ____
ROOT
ATOM      1  O   UNL     1      34.351 -16.948 -24.431  0.00  0.00    -0.411 OA
ATOM      2  N   UNL     1      33.076 -17.206 -26.250  0.00  0.00    -0.106 NA
ATOM      3  N   UNL     1      33.457 -18.462 -25.815  0.00  0.00    -0.101 NA
ATOM      4  C   UNL     1      33.619 -16.364 -25.413  0.00  0.00    +0.251 A 
ATOM      5  C   UNL     1      34.200 -18.263 -24.751  0.00  0.00    +0.279 A 
ENDROOT
BRANCH   4  10
ATOM      6  O   UNL     1      33.478 -12.073 -23.065  0.00  0.00    -0.435 OA
ATOM      7  O   UNL     1      33.402 -10.827 -25.126  0.00  0.00    -0.435 OA
ATOM      8  C   UNL     1      33.498 -12.882 -24.159  0.00  0.00    +0.177 C 
ATOM      9  C   UNL     1      33.454 -12.171 -25.336  0.00  0.00    +0.176 C 
ATOM     10  C   UNL     1      33.563 -14.922 -25.375  0.00  0.00    +0.058 C 
ATOM     11  C   UNL     1      33.553 -14.262 -24.144  0.00  0.00    +0.045 C 
ATOM     12  C   UNL     1      33.463 -12.799 -26.564  0.00  0.00    +0.040 C 
ATOM     13  C   UNL     1      33.518 -14.196 -26.578  0.00  0.00    +0.008 C 
ATOM     14  C   UNL     1      33.418 -10.773 -23.685  0.00  0.00    +0.429 C 
ENDBRANCH   4  10
BRANCH   5  15
ATOM     15  S   UNL     1      34.928 -19.545 -23.830  0.00  0.00    -0.050 S 
BRANCH  15  16
ATOM     16  C   UNL     1      34.728 -18.912 -22.141  0.00  0.00    +0.093 C 
BRANCH  16  18
ATOM     17  F   UNL     1      36.909 -22.011 -19.090  0.00  0.00    -0.201 F 
ATOM     18  C   UNL     1      34.664 -20.019 -21.125  0.00  0.00    -0.008 C 
ATOM     19  C   UNL     1      35.838 -20.508 -20.569  0.00  0.00    +0.029 C 
ATOM     20  C   UNL     1      33.430 -20.540 -20.758  0.00  0.00    -0.000 C 
ATOM     21  C   UNL     1      34.543 -22.066 -19.253  0.00  0.00    +0.166 C 
ATOM     22  C   UNL     1      35.777 -21.537 -19.629  0.00  0.00    +0.174 C 
ATOM     23  C   UNL     1      33.369 -21.568 -19.818  0.00  0.00    +0.039 C 
BRANCH  21  24
ATOM     24  O   UNL     1      34.482 -23.071 -18.337  0.00  0.00    -0.469 OA
ATOM     25  C   UNL     1      33.299 -23.154 -17.542  0.00  0.00    +0.253 C 
ENDBRANCH  21  24
ENDBRANCH  16  18
ENDBRANCH  15  16
ENDBRANCH   5  15
TORSDOF 5
ENDMDL
MODEL 3
REMARK VINA RESULT:     -10.9      3.883      5.260
REMARK  Name = 2079916
REMARK  5 active torsions:
REMARK  status: ('A' for Active; 'I' for Inactive)
REMARK    1  A    between atoms: C_4  and  C_10
REMARK    2  A    between atoms: C_5  and  S_15
REMARK    3  A    between atoms: S_15  and  C_16
REMARK    4  A    between atoms: C_16  and  C_18
REMARK    5  A    between atoms: C_21  and  O_24
REMARK                            x       y       z     vdW  Elec       q    Type
REMARK                         _______ _______ _______ _____ _____    ______ ____
ROOT
ATOM      1  O   UNL     1      34.640 -15.549 -22.085  0.00  0.00    -0.411 OA
ATOM      2  N   UNL     1      34.243 -15.528 -24.286  0.00  0.00    -0.106 NA
ATOM      3  N   UNL     1      34.924 -16.693 -23.986  0.00  0.00    -0.101 NA
ATOM      4  C   UNL     1      34.103 -14.901 -23.149  0.00  0.00    +0.251 A 
ATOM      5  C   UNL     1      35.135 -16.663 -22.692  0.00  0.00    +0.279 A 
ENDROOT
BRANCH   4  10
ATOM      6  O   UNL     1      33.261 -10.153 -23.987  0.00  0.00    -0.435 OA
ATOM      7  O   UNL     1      31.746  -9.984 -22.121  0.00  0.00    -0.435 OA
ATOM      8  C   UNL     1      33.118 -11.336 -23.329  0.00  0.00    +0.177 C 
ATOM      9  C   UNL     1      32.253 -11.240 -22.264  0.00  0.00    +0.176 C 
ATOM     10  C   UNL     1      33.472 -13.637 -22.854  0.00  0.00    +0.058 C 
ATOM     11  C   UNL     1      33.744 -12.523 -23.652  0.00  0.00    +0.045 C 
ATOM     12  C   UNL     1      31.966 -12.324 -21.461  0.00  0.00    +0.040 C 
ATOM     13  C   UNL     1      32.588 -13.539 -21.765  0.00  0.00    +0.008 C 
ATOM     14  C   UNL     1      32.389  -9.302 -23.217  0.00  0.00    +0.429 C 
ENDBRANCH   4  10
BRANCH   5  15
ATOM     15  S   UNL     1      35.965 -17.918 -21.821  0.00  0.00    -0.050 S 
BRANCH  15  16
ATOM     16  C   UNL     1      34.915 -19.349 -22.194  0.00  0.00    +0.093 C 
BRANCH  16  18
ATOM     17  F   UNL     1      37.075 -22.078 -18.794  0.00  0.00    -0.201 F 
ATOM     18  C   UNL     1      34.842 -20.314 -21.042  0.00  0.00    -0.008 C 
ATOM     19  C   UNL     1      36.014 -20.754 -20.442  0.00  0.00    +0.029 C 
ATOM     20  C   UNL     1      33.603 -20.755 -20.596  0.00  0.00    -0.000 C 
ATOM     21  C   UNL     1      34.707 -22.099 -18.920  0.00  0.00    +0.166 C 
ATOM     22  C   UNL     1      35.946 -21.651 -19.376  0.00  0.00    +0.174 C 
ATOM     23  C   UNL     1      33.535 -21.651 -19.530  0.00  0.00    +0.039 C 
BRANCH  21  24
ATOM     24  O   UNL     1      34.638 -22.975 -17.881  0.00  0.00    -0.469 OA
ATOM     25  C   UNL     1      33.337 -23.399 -17.472  0.00  0.00    +0.253 C 
ENDBRANCH  21  24
ENDBRANCH  16  18
ENDBRANCH  15  16
ENDBRANCH   5  15
TORSDOF 5
ENDMDL
MODEL 4
REMARK VINA RESULT:     -10.8      2.957     10.161
REMARK  Name = 2079916
REMARK  5 active torsions:
REMARK  status: ('A' for Active; 'I' for Inactive)
REMARK    1  A    between atoms: C_4  and  C_10
REMARK    2  A    between atoms: C_5  and  S_15
REMARK    3  A    between atoms: S_15  and  C_16
REMARK    4  A    between atoms: C_16  and  C_18
REMARK    5  A    between atoms: C_21  and  O_24
REMARK                            x       y       z     vdW  Elec       q    Type
REMARK                         _______ _______ _______ _____ _____    ______ ____
ROOT
ATOM      1  O   UNL     1      33.281 -22.034 -18.487  0.00  0.00    -0.411 OA
ATOM      2  N   UNL     1      35.359 -22.838 -18.292  0.00  0.00    -0.106 NA
ATOM      3  N   UNL     1      35.309 -22.056 -19.431  0.00  0.00    -0.101 NA
ATOM      4  C   UNL     1      34.158 -22.791 -17.781  0.00  0.00    +0.251 A 
ATOM      5  C   UNL     1      34.078 -21.608 -19.506  0.00  0.00    +0.279 A 
ENDROOT
BRANCH   4  10
ATOM      6  O   UNL     1      30.478 -24.244 -14.901  0.00  0.00    -0.435 OA
ATOM      7  O   UNL     1      31.985 -25.163 -13.260  0.00  0.00    -0.435 OA
ATOM      8  C   UNL     1      31.783 -24.089 -15.254  0.00  0.00    +0.177 C 
ATOM      9  C   UNL     1      32.644 -24.613 -14.318  0.00  0.00    +0.176 C 
ATOM     10  C   UNL     1      33.626 -23.416 -16.594  0.00  0.00    +0.058 C 
ATOM     11  C   UNL     1      32.244 -23.483 -16.406  0.00  0.00    +0.045 C 
ATOM     12  C   UNL     1      34.013 -24.561 -14.480  0.00  0.00    +0.040 C 
ATOM     13  C   UNL     1      34.506 -23.952 -15.637  0.00  0.00    +0.008 C 
ATOM     14  C   UNL     1      30.613 -24.926 -13.637  0.00  0.00    +0.429 C 
ENDBRANCH   4  10
BRANCH   5  15
ATOM     15  S   UNL     1      33.506 -20.569 -20.776  0.00  0.00    -0.050 S 
BRANCH  15  16
ATOM     16  C   UNL     1      35.046 -19.746 -21.269  0.00  0.00    +0.093 C 
BRANCH  16  18
ATOM     17  F   UNL     1      33.603 -19.364 -25.899  0.00  0.00    -0.201 F 
ATOM     18  C   UNL     1      34.883 -18.946 -22.532  0.00  0.00    -0.008 C 
ATOM     19  C   UNL     1      34.307 -19.538 -23.648  0.00  0.00    +0.029 C 
ATOM     20  C   UNL     1      35.313 -17.626 -22.566  0.00  0.00    -0.000 C 
ATOM     21  C   UNL     1      34.586 -17.470 -24.865  0.00  0.00    +0.166 C 
ATOM     22  C   UNL     1      34.159 -18.796 -24.820  0.00  0.00    +0.174 C 
ATOM     23  C   UNL     1      35.163 -16.884 -23.738  0.00  0.00    +0.039 C 
BRANCH  21  24
ATOM     24  O   UNL     1      34.443 -16.745 -26.008  0.00  0.00    -0.469 OA
ATOM     25  C   UNL     1      33.433 -15.737 -26.015  0.00  0.00    +0.253 C 
ENDBRANCH  21  24
ENDBRANCH  16  18
ENDBRANCH  15  16
ENDBRANCH   5  15
TORSDOF 5
ENDMDL
MODEL 5
REMARK VINA RESULT:     -10.8      4.957      9.614
REMARK  Name = 2079916
REMARK  5 active torsions:
REMARK  status: ('A' for Active; 'I' for Inactive)
REMARK    1  A    between atoms: C_4  and  C_10
REMARK    2  A    between atoms: C_5  and  S_15
REMARK    3  A    between atoms: S_15  and  C_16
REMARK    4  A    between atoms: C_16  and  C_18
REMARK    5  A    between atoms: C_21  and  O_24
REMARK                            x       y       z     vdW  Elec       q    Type
REMARK                         _______ _______ _______ _____ _____    ______ ____
ROOT
ATOM      1  O   UNL     1      34.906 -18.203 -21.895  0.00  0.00    -0.411 OA
ATOM      2  N   UNL     1      34.799 -19.780 -23.476  0.00  0.00    -0.106 NA
ATOM      3  N   UNL     1      34.856 -18.550 -24.104  0.00  0.00    -0.101 NA
ATOM      4  C   UNL     1      34.831 -19.523 -22.196  0.00  0.00    +0.251 A 
ATOM      5  C   UNL     1      34.917 -17.659 -23.143  0.00  0.00    +0.279 A 
ENDROOT
BRANCH   4  10
ATOM      6  O   UNL     1      32.502 -22.196 -18.822  0.00  0.00    -0.435 OA
ATOM      7  O   UNL     1      34.569 -22.963 -17.850  0.00  0.00    -0.435 OA
ATOM      8  C   UNL     1      33.592 -21.690 -19.461  0.00  0.00    +0.177 C 
ATOM      9  C   UNL     1      34.772 -22.128 -18.906  0.00  0.00    +0.176 C 
ATOM     10  C   UNL     1      34.799 -20.419 -21.065  0.00  0.00    +0.058 C 
ATOM     11  C   UNL     1      33.571 -20.834 -20.544  0.00  0.00    +0.045 C 
ATOM     12  C   UNL     1      35.998 -21.734 -19.403  0.00  0.00    +0.040 C 
ATOM     13  C   UNL     1      36.005 -20.867 -20.499  0.00  0.00    +0.008 C 
ATOM     14  C   UNL     1      33.128 -23.001 -17.803  0.00  0.00    +0.429 C 
ENDBRANCH   4  10
BRANCH   5  15
ATOM     15  S   UNL     1      35.005 -15.945 -23.421  0.00  0.00    -0.050 S 
BRANCH  15  16
ATOM     16  C   UNL     1      34.526 -15.306 -21.792  0.00  0.00    +0.093 C 
BRANCH  16  18
ATOM     17  F   UNL     1      33.210 -11.248 -24.132  0.00  0.00    -0.201 F 
ATOM     18  C   UNL     1      33.683 -14.064 -21.896  0.00  0.00    -0.008 C 
ATOM     19  C   UNL     1      33.840 -13.219 -22.986  0.00  0.00    +0.029 C 
ATOM     20  C   UNL     1      32.761 -13.778 -20.899  0.00  0.00    -0.000 C 
ATOM     21  C   UNL     1      32.131 -11.770 -22.085  0.00  0.00    +0.166 C 
ATOM     22  C   UNL     1      33.061 -12.066 -23.081  0.00  0.00    +0.174 C 
ATOM     23  C   UNL     1      31.981 -12.626 -20.993  0.00  0.00    +0.039 C 
BRANCH  21  24
ATOM     24  O   UNL     1      31.370 -10.645 -22.174  0.00  0.00    -0.469 OA
ATOM     25  C   UNL     1      31.661  -9.589 -21.259  0.00  0.00    +0.253 C 
ENDBRANCH  21  24
ENDBRANCH  16  18
ENDBRANCH  15  16
ENDBRANCH   5  15
TORSDOF 5
ENDMDL
MODEL 6
REMARK VINA RESULT:     -10.7      1.626      2.252
REMARK  Name = 2079916
REMARK  5 active torsions:
REMARK  status: ('A' for Active; 'I' for Inactive)
REMARK    1  A    between atoms: C_4  and  C_10
REMARK    2  A    between atoms: C_5  and  S_15
REMARK    3  A    between atoms: S_15  and  C_16
REMARK    4  A    between atoms: C_16  and  C_18
REMARK    5  A    between atoms: C_21  and  O_24
REMARK                            x       y       z     vdW  Elec       q    Type
REMARK                         _______ _______ _______ _____ _____    ______ ____
ROOT
ATOM      1  O   UNL     1      35.071 -20.338 -21.407  0.00  0.00    -0.411 OA
ATOM      2  N   UNL     1      36.745 -18.870 -21.190  0.00  0.00    -0.106 NA
ATOM      3  N   UNL     1      36.850 -19.792 -20.165  0.00  0.00    -0.101 NA
ATOM      4  C   UNL     1      35.698 -19.232 -21.881  0.00  0.00    +0.251 A 
ATOM      5  C   UNL     1      35.852 -20.629 -20.330  0.00  0.00    +0.279 A 
ENDROOT
BRANCH   4  10
ATOM      6  O   UNL     1      34.225 -15.416 -24.568  0.00  0.00    -0.435 OA
ATOM      7  O   UNL     1      33.459 -16.837 -26.357  0.00  0.00    -0.435 OA
ATOM      8  C   UNL     1      34.423 -16.736 -24.301  0.00  0.00    +0.177 C 
ATOM      9  C   UNL     1      33.986 -17.547 -25.322  0.00  0.00    +0.176 C 
ATOM     10  C   UNL     1      35.111 -18.641 -23.060  0.00  0.00    +0.058 C 
ATOM     11  C   UNL     1      34.992 -17.253 -23.154  0.00  0.00    +0.045 C 
ATOM     12  C   UNL     1      34.093 -18.921 -25.255  0.00  0.00    +0.040 C 
ATOM     13  C   UNL     1      34.665 -19.471 -24.104  0.00  0.00    +0.008 C 
ATOM     14  C   UNL     1      33.614 -15.487 -25.872  0.00  0.00    +0.429 C 
ENDBRANCH   4  10
BRANCH   5  15
ATOM     15  S   UNL     1      35.547 -21.984 -19.285  0.00  0.00    -0.050 S 
BRANCH  15  16
ATOM     16  C   UNL     1      36.807 -21.723 -18.005  0.00  0.00    +0.093 C 
BRANCH  16  18
ATOM     17  F   UNL     1      33.801 -24.260 -15.142  0.00  0.00    -0.201 F 
ATOM     18  C   UNL     1      36.552 -22.559 -16.781  0.00  0.00    -0.008 C 
ATOM     19  C   UNL     1      35.272 -23.031 -16.528  0.00  0.00    +0.029 C 
ATOM     20  C   UNL     1      37.602 -22.846 -15.919  0.00  0.00    -0.000 C 
ATOM     21  C   UNL     1      36.083 -24.098 -14.518  0.00  0.00    +0.166 C 
ATOM     22  C   UNL     1      35.036 -23.803 -15.391  0.00  0.00    +0.174 C 
ATOM     23  C   UNL     1      37.367 -23.619 -14.783  0.00  0.00    +0.039 C 
BRANCH  21  24
ATOM     24  O   UNL     1      35.856 -24.851 -13.408  0.00  0.00    -0.469 OA
ATOM     25  C   UNL     1      35.462 -24.159 -12.223  0.00  0.00    +0.253 C 
ENDBRANCH  21  24
ENDBRANCH  16  18
ENDBRANCH  15  16
ENDBRANCH   5  15
TORSDOF 5
ENDMDL
MODEL 7
REMARK VINA RESULT:     -10.6      3.913      5.449
REMARK  Name = 2079916
REMARK  5 active torsions:
REMARK  status: ('A' for Active; 'I' for Inactive)
REMARK    1  A    between atoms: C_4  and  C_10
REMARK    2  A    between atoms: C_5  and  S_15
REMARK    3  A    between atoms: S_15  and  C_16
REMARK    4  A    between atoms: C_16  and  C_18
REMARK    5  A    between atoms: C_21  and  O_24
REMARK                            x       y       z     vdW  Elec       q    Type
REMARK                         _______ _______ _______ _____ _____    ______ ____
ROOT
ATOM      1  O   UNL     1      34.688 -15.576 -22.170  0.00  0.00    -0.411 OA
ATOM      2  N   UNL     1      34.195 -15.547 -24.351  0.00  0.00    -0.106 NA
ATOM      3  N   UNL     1      34.893 -16.711 -24.087  0.00  0.00    -0.101 NA
ATOM      4  C   UNL     1      34.103 -14.925 -23.207  0.00  0.00    +0.251 A 
ATOM      5  C   UNL     1      35.160 -16.685 -22.802  0.00  0.00    +0.279 A 
ENDROOT
BRANCH   4  10
ATOM      6  O   UNL     1      33.232 -10.170 -23.970  0.00  0.00    -0.435 OA
ATOM      7  O   UNL     1      31.778 -10.021 -22.054  0.00  0.00    -0.435 OA
ATOM      8  C   UNL     1      33.110 -11.360 -23.320  0.00  0.00    +0.177 C 
ATOM      9  C   UNL     1      32.280 -11.274 -22.226  0.00  0.00    +0.176 C 
ATOM     10  C   UNL     1      33.481 -13.665 -22.879  0.00  0.00    +0.058 C 
ATOM     11  C   UNL     1      33.727 -12.543 -23.674  0.00  0.00    +0.045 C 
ATOM     12  C   UNL     1      32.020 -12.367 -21.425  0.00  0.00    +0.040 C 
ATOM     13  C   UNL     1      32.632 -13.578 -21.761  0.00  0.00    +0.008 C 
ATOM     14  C   UNL     1      32.385  -9.327 -23.163  0.00  0.00    +0.429 C 
ENDBRANCH   4  10
BRANCH   5  15
ATOM     15  S   UNL     1      36.032 -17.941 -21.974  0.00  0.00    -0.050 S 
BRANCH  15  16
ATOM     16  C   UNL     1      34.895 -19.340 -22.174  0.00  0.00    +0.093 C 
BRANCH  16  18
ATOM     17  F   UNL     1      32.730 -22.113 -18.813  0.00  0.00    -0.201 F 
ATOM     18  C   UNL     1      34.967 -20.299 -21.018  0.00  0.00    -0.008 C 
ATOM     19  C   UNL     1      33.793 -20.770 -20.444  0.00  0.00    +0.029 C 
ATOM     20  C   UNL     1      36.206 -20.699 -20.537  0.00  0.00    -0.000 C 
ATOM     21  C   UNL     1      35.101 -22.065 -18.880  0.00  0.00    +0.166 C 
ATOM     22  C   UNL     1      33.861 -21.657 -19.370  0.00  0.00    +0.174 C 
ATOM     23  C   UNL     1      36.274 -21.587 -19.464  0.00  0.00    +0.039 C 
BRANCH  21  24
ATOM     24  O   UNL     1      35.169 -22.930 -17.831  0.00  0.00    -0.469 OA
ATOM     25  C   UNL     1      36.128 -22.642 -16.813  0.00  0.00    +0.253 C 
ENDBRANCH  21  24
ENDBRANCH  16  18
ENDBRANCH  15  16
ENDBRANCH   5  15
TORSDOF 5
ENDMDL
MODEL 8
REMARK VINA RESULT:     -10.4      1.420      2.164
REMARK  Name = 2079916
REMARK  5 active torsions:
REMARK  status: ('A' for Active; 'I' for Inactive)
REMARK    1  A    between atoms: C_4  and  C_10
REMARK    2  A    between atoms: C_5  and  S_15
REMARK    3  A    between atoms: S_15  and  C_16
REMARK    4  A    between atoms: C_16  and  C_18
REMARK    5  A    between atoms: C_21  and  O_24
REMARK                            x       y       z     vdW  Elec       q    Type
REMARK                         _______ _______ _______ _____ _____    ______ ____
ROOT
ATOM      1  O   UNL     1      34.478 -20.815 -20.737  0.00  0.00    -0.411 OA
ATOM      2  N   UNL     1      36.541 -20.178 -20.154  0.00  0.00    -0.106 NA
ATOM      3  N   UNL     1      36.226 -21.315 -19.432  0.00  0.00    -0.101 NA
ATOM      4  C   UNL     1      35.495 -19.931 -20.896  0.00  0.00    +0.251 A 
ATOM      5  C   UNL     1      35.013 -21.651 -19.804  0.00  0.00    +0.279 A 
ENDROOT
BRANCH   4  10
ATOM      6  O   UNL     1      34.189 -18.247 -25.301  0.00  0.00    -0.435 OA
ATOM      7  O   UNL     1      34.549 -15.955 -24.648  0.00  0.00    -0.435 OA
ATOM      8  C   UNL     1      34.610 -18.137 -24.011  0.00  0.00    +0.177 C 
ATOM      9  C   UNL     1      34.815 -16.829 -23.638  0.00  0.00    +0.176 C 
ATOM     10  C   UNL     1      35.258 -18.872 -21.847  0.00  0.00    +0.058 C 
ATOM     11  C   UNL     1      34.822 -19.184 -23.137  0.00  0.00    +0.045 C 
ATOM     12  C   UNL     1      35.245 -16.494 -22.370  0.00  0.00    +0.040 C 
ATOM     13  C   UNL     1      35.468 -17.535 -21.465  0.00  0.00    +0.008 C 
ATOM     14  C   UNL     1      34.152 -16.861 -25.698  0.00  0.00    +0.429 C 
ENDBRANCH   4  10
BRANCH   5  15
ATOM     15  S   UNL     1      34.159 -23.028 -19.176  0.00  0.00    -0.050 S 
BRANCH  15  16
ATOM     16  C   UNL     1      34.578 -22.920 -17.414  0.00  0.00    +0.093 C 
BRANCH  16  18
ATOM     17  F   UNL     1      32.873 -24.946 -13.332  0.00  0.00    -0.201 F 
ATOM     18  C   UNL     1      33.432 -23.332 -16.532  0.00  0.00    -0.008 C 
ATOM     19  C   UNL     1      33.691 -23.957 -15.320  0.00  0.00    +0.029 C 
ATOM     20  C   UNL     1      32.129 -23.085 -16.943  0.00  0.00    -0.000 C 
ATOM     21  C   UNL     1      31.315 -24.098 -14.907  0.00  0.00    +0.166 C 
ATOM     22  C   UNL     1      32.627 -24.342 -14.504  0.00  0.00    +0.174 C 
ATOM     23  C   UNL     1      31.065 -23.469 -16.127  0.00  0.00    +0.039 C 
BRANCH  21  24
ATOM     24  O   UNL     1      30.275 -24.473 -14.113  0.00  0.00    -0.469 OA
ATOM     25  C   UNL     1      29.299 -25.342 -14.687  0.00  0.00    +0.253 C 
ENDBRANCH  21  24
ENDBRANCH  16  18
ENDBRANCH  15  16
ENDBRANCH   5  15
TORSDOF 5
ENDMDL
MODEL 9
REMARK VINA RESULT:     -10.3      3.689     10.079
REMARK  Name = 2079916
REMARK  5 active torsions:
REMARK  status: ('A' for Active; 'I' for Inactive)
REMARK    1  A    between atoms: C_4  and  C_10
REMARK    2  A    between atoms: C_5  and  S_15
REMARK    3  A    between atoms: S_15  and  C_16
REMARK    4  A    between atoms: C_16  and  C_18
REMARK    5  A    between atoms: C_21  and  O_24
REMARK                            x       y       z     vdW  Elec       q    Type
REMARK                         _______ _______ _______ _____ _____    ______ ____
ROOT
ATOM      1  O   UNL     1      34.655 -22.082 -18.311  0.00  0.00    -0.411 OA
ATOM      2  N   UNL     1      33.110 -23.340 -17.295  0.00  0.00    -0.106 NA
ATOM      3  N   UNL     1      32.510 -22.714 -18.373  0.00  0.00    -0.101 NA
ATOM      4  C   UNL     1      34.353 -22.941 -17.305  0.00  0.00    +0.251 A 
ATOM      5  C   UNL     1      33.449 -21.990 -18.935  0.00  0.00    +0.279 A 
ENDROOT
BRANCH   4  10
ATOM      6  O   UNL     1      36.304 -25.312 -13.494  0.00  0.00    -0.435 OA
ATOM      7  O   UNL     1      38.459 -24.283 -13.822  0.00  0.00    -0.435 OA
ATOM      8  C   UNL     1      36.313 -24.458 -14.554  0.00  0.00    +0.177 C 
ATOM      9  C   UNL     1      37.543 -23.870 -14.741  0.00  0.00    +0.176 C 
ATOM     10  C   UNL     1      35.443 -23.268 -16.417  0.00  0.00    +0.058 C 
ATOM     11  C   UNL     1      35.241 -24.178 -15.377  0.00  0.00    +0.045 C 
ATOM     12  C   UNL     1      37.770 -22.970 -15.761  0.00  0.00    +0.040 C 
ATOM     13  C   UNL     1      36.700 -22.668 -16.609  0.00  0.00    +0.008 C 
ATOM     14  C   UNL     1      37.667 -25.196 -13.035  0.00  0.00    +0.429 C 
ENDBRANCH   4  10
BRANCH   5  15
ATOM     15  S   UNL     1      33.191 -21.005 -20.344  0.00  0.00    -0.050 S 
BRANCH  15  16
ATOM     16  C   UNL     1      34.882 -20.440 -20.683  0.00  0.00    +0.093 C 
BRANCH  16  18
ATOM     17  F   UNL     1      34.079 -19.122 -25.297  0.00  0.00    -0.201 F 
ATOM     18  C   UNL     1      34.927 -19.415 -21.783  0.00  0.00    -0.008 C 
ATOM     19  C   UNL     1      34.472 -19.751 -23.051  0.00  0.00    +0.029 C 
ATOM     20  C   UNL     1      35.426 -18.147 -21.517  0.00  0.00    -0.000 C 
ATOM     21  C   UNL     1      35.016 -17.525 -23.815  0.00  0.00    +0.166 C 
ATOM     22  C   UNL     1      34.517 -18.802 -24.072  0.00  0.00    +0.174 C 
ATOM     23  C   UNL     1      35.470 -17.197 -22.537  0.00  0.00    +0.039 C 
BRANCH  21  24
ATOM     24  O   UNL     1      35.061 -16.597 -24.810  0.00  0.00    -0.469 OA
ATOM     25  C   UNL     1      33.839 -15.938 -25.140  0.00  0.00    +0.253 C 
ENDBRANCH  21  24
ENDBRANCH  16  18
ENDBRANCH  15  16
ENDBRANCH   5  15
TORSDOF 5
ENDMDL
