MODEL 1
REMARK VINA RESULT:     -12.3      0.000      0.000
REMARK  Name = 24821094
REMARK  5 active torsions:
REMARK  status: ('A' for Active; 'I' for Inactive)
REMARK    1  A    between atoms: N_1  and  C_12
REMARK    2  A    between atoms: C_7  and  C_20
REMARK    3  A    between atoms: C_17  and  C_18
REMARK    4  A    between atoms: C_25  and  O_26
REMARK    5  A    between atoms: O_26  and  C_27
REMARK                            x       y       z     vdW  Elec       q    Type
REMARK                         _______ _______ _______ _____ _____    ______ ____
ROOT
ATOM      1  N   UNL     1      34.172 -15.028 -22.876  0.00  0.00    -0.198 N 
ATOM      2  N   UNL     1      34.681 -15.852 -21.942  0.00  0.00    -0.181 NA
ATOM      3  N   UNL     1      33.518 -15.049 -25.207  0.00  0.00    -0.231 NA
ATOM      4  N   UNL     1      33.876 -17.236 -26.225  0.00  0.00    -0.234 NA
ATOM      5  C   UNL     1      34.003 -15.619 -24.093  0.00  0.00    +0.137 C 
ATOM      6  C   UNL     1      34.431 -16.926 -23.944  0.00  0.00    +0.150 C 
ATOM      7  C   UNL     1      34.837 -17.007 -22.599  0.00  0.00    +0.090 C 
ATOM      8  C   UNL     1      34.356 -17.747 -25.065  0.00  0.00    +0.112 C 
ATOM      9  C   UNL     1      33.493 -15.938 -26.224  0.00  0.00    +0.252 C 
ATOM     10  N   UNL     1      34.766 -19.091 -25.014  0.00  0.00    -0.346 N 
ATOM     11  H   UNL     1      34.704 -19.655 -25.819  0.00  0.00    +0.143 HD
ATOM     12  H   UNL     1      35.114 -19.469 -24.175  0.00  0.00    +0.143 HD
ENDROOT
BRANCH   1  15
ATOM     13  O   UNL     1      33.792  -9.042 -23.335  0.00  0.00    -0.270 OA
ATOM     14  N   UNL     1      33.352 -11.326 -23.346  0.00  0.00    -0.274 N 
ATOM     15  C   UNL     1      33.852 -13.591 -22.510  0.00  0.00    +0.117 C 
ATOM     16  C   UNL     1      32.628 -13.496 -21.578  0.00  0.00    +0.025 C 
ATOM     17  C   UNL     1      33.648 -12.708 -23.753  0.00  0.00    +0.115 C 
ATOM     18  C   UNL     1      32.302 -12.038 -21.243  0.00  0.00    +0.023 C 
ATOM     19  C   UNL     1      32.159 -11.194 -22.507  0.00  0.00    +0.094 C 
ATOM     20  C   UNL     1      34.077 -10.187 -23.688  0.00  0.00    +0.249 C 
BRANCH  20  21
ATOM     21  C   UNL     1      35.277 -10.364 -24.529  0.00  0.00    +0.058 C 
ATOM     22  C   UNL     1      35.122 -10.692 -25.813  0.00  0.00    +0.005 C 
ENDBRANCH  20  21
ENDBRANCH   1  15
BRANCH   7  23
ATOM     23  C   UNL     1      35.371 -18.156 -21.912  0.00  0.00    +0.016 C 
ATOM     24  C   UNL     1      34.515 -19.167 -21.476  0.00  0.00    +0.004 C 
ATOM     25  C   UNL     1      36.743 -18.258 -21.686  0.00  0.00    +0.004 C 
ATOM     26  C   UNL     1      35.032 -20.279 -20.811  0.00  0.00    +0.038 C 
ATOM     27  C   UNL     1      37.260 -19.371 -21.022  0.00  0.00    +0.038 C 
ATOM     28  C   UNL     1      36.404 -20.381 -20.585  0.00  0.00    +0.145 C 
BRANCH  28  29
ATOM     29  O   UNL     1      36.908 -21.465 -19.934  0.00  0.00    -0.453 OA
BRANCH  29  30
ATOM     30  C   UNL     1      36.178 -21.977 -18.874  0.00  0.00    +0.145 C 
ATOM     31  C   UNL     1      36.758 -22.071 -17.609  0.00  0.00    +0.037 C 
ATOM     32  C   UNL     1      34.864 -22.400 -19.072  0.00  0.00    +0.037 C 
ATOM     33  C   UNL     1      36.023 -22.588 -16.541  0.00  0.00    +0.003 C 
ATOM     34  C   UNL     1      34.128 -22.915 -18.005  0.00  0.00    +0.003 C 
ATOM     35  C   UNL     1      34.709 -23.010 -16.740  0.00  0.00    +0.000 C 
ENDBRANCH  29  30
ENDBRANCH  28  29
ENDBRANCH   7  23
TORSDOF 5
ENDMDL
MODEL 2
REMARK VINA RESULT:     -11.9      5.362     11.847
REMARK  Name = 24821094
REMARK  5 active torsions:
REMARK  status: ('A' for Active; 'I' for Inactive)
REMARK    1  A    between atoms: N_1  and  C_12
REMARK    2  A    between atoms: C_7  and  C_20
REMARK    3  A    between atoms: C_17  and  C_18
REMARK    4  A    between atoms: C_25  and  O_26
REMARK    5  A    between atoms: O_26  and  C_27
REMARK                            x       y       z     vdW  Elec       q    Type
REMARK                         _______ _______ _______ _____ _____    ______ ____
ROOT
ATOM      1  N   UNL     1      34.828 -23.919 -15.572  0.00  0.00    -0.198 N 
ATOM      2  N   UNL     1      35.531 -23.324 -16.552  0.00  0.00    -0.181 NA
ATOM      3  N   UNL     1      32.531 -24.307 -14.913  0.00  0.00    -0.231 NA
ATOM      4  N   UNL     1      30.960 -23.325 -16.499  0.00  0.00    -0.234 NA
ATOM      5  C   UNL     1      33.478 -23.815 -15.727  0.00  0.00    +0.137 C 
ATOM      6  C   UNL     1      33.283 -23.099 -16.895  0.00  0.00    +0.150 C 
ATOM      7  C   UNL     1      34.584 -22.826 -17.355  0.00  0.00    +0.090 C 
ATOM      8  C   UNL     1      31.966 -22.857 -17.275  0.00  0.00    +0.112 C 
ATOM      9  C   UNL     1      31.299 -24.011 -15.382  0.00  0.00    +0.252 C 
ATOM     10  N   UNL     1      31.665 -22.140 -18.448  0.00  0.00    -0.346 N 
ATOM     11  H   UNL     1      30.727 -21.981 -18.699  0.00  0.00    +0.143 HD
ATOM     12  H   UNL     1      32.392 -21.799 -19.017  0.00  0.00    +0.143 HD
ENDROOT
BRANCH   1  15
ATOM     13  O   UNL     1      39.319 -26.496 -12.511  0.00  0.00    -0.270 OA
ATOM     14  N   UNL     1      37.739 -25.011 -13.351  0.00  0.00    -0.274 N 
ATOM     15  C   UNL     1      35.563 -24.615 -14.441  0.00  0.00    +0.117 C 
ATOM     16  C   UNL     1      34.958 -24.271 -13.066  0.00  0.00    +0.025 C 
ATOM     17  C   UNL     1      37.070 -24.307 -14.455  0.00  0.00    +0.115 C 
ATOM     18  C   UNL     1      35.731 -24.958 -11.937  0.00  0.00    +0.023 C 
ATOM     19  C   UNL     1      37.226 -24.661 -12.024  0.00  0.00    +0.094 C 
ATOM     20  C   UNL     1      38.777 -25.932 -13.462  0.00  0.00    +0.249 C 
BRANCH  20  21
ATOM     21  C   UNL     1      39.260 -26.262 -14.817  0.00  0.00    +0.058 C 
ATOM     22  C   UNL     1      40.517 -25.959 -15.145  0.00  0.00    +0.005 C 
ENDBRANCH  20  21
ENDBRANCH   1  15
BRANCH   7  23
ATOM     23  C   UNL     1      34.960 -22.102 -18.544  0.00  0.00    +0.016 C 
ATOM     24  C   UNL     1      33.979 -21.672 -19.437  0.00  0.00    +0.004 C 
ATOM     25  C   UNL     1      36.303 -21.829 -18.799  0.00  0.00    +0.004 C 
ATOM     26  C   UNL     1      34.342 -20.971 -20.587  0.00  0.00    +0.038 C 
ATOM     27  C   UNL     1      36.667 -21.127 -19.949  0.00  0.00    +0.038 C 
ATOM     28  C   UNL     1      35.686 -20.698 -20.842  0.00  0.00    +0.145 C 
BRANCH  28  29
ATOM     29  O   UNL     1      36.040 -20.017 -21.966  0.00  0.00    -0.453 OA
BRANCH  29  30
ATOM     30  C   UNL     1      35.653 -18.691 -22.064  0.00  0.00    +0.145 C 
ATOM     31  C   UNL     1      35.350 -18.144 -23.311  0.00  0.00    +0.037 C 
ATOM     32  C   UNL     1      35.567 -17.902 -20.917  0.00  0.00    +0.037 C 
ATOM     33  C   UNL     1      34.960 -16.807 -23.410  0.00  0.00    +0.003 C 
ATOM     34  C   UNL     1      35.177 -16.567 -21.015  0.00  0.00    +0.003 C 
ATOM     35  C   UNL     1      34.875 -16.020 -22.262  0.00  0.00    +0.000 C 
ENDBRANCH  29  30
ENDBRANCH  28  29
ENDBRANCH   7  23
TORSDOF 5
ENDMDL
MODEL 3
REMARK VINA RESULT:     -11.6      1.566      2.231
REMARK  Name = 24821094
REMARK  5 active torsions:
REMARK  status: ('A' for Active; 'I' for Inactive)
REMARK    1  A    between atoms: N_1  and  C_12
REMARK    2  A    between atoms: C_7  and  C_20
REMARK    3  A    between atoms: C_17  and  C_18
REMARK    4  A    between atoms: C_25  and  O_26
REMARK    5  A    between atoms: O_26  and  C_27
REMARK                            x       y       z     vdW  Elec       q    Type
REMARK                         _______ _______ _______ _____ _____    ______ ____
ROOT
ATOM      1  N   UNL     1      33.463 -13.283 -23.026  0.00  0.00    -0.198 N 
ATOM      2  N   UNL     1      33.950 -14.252 -22.229  0.00  0.00    -0.181 NA
ATOM      3  N   UNL     1      33.013 -12.861 -25.366  0.00  0.00    -0.231 NA
ATOM      4  N   UNL     1      33.618 -14.769 -26.759  0.00  0.00    -0.234 NA
ATOM      5  C   UNL     1      33.442 -13.620 -24.346  0.00  0.00    +0.137 C 
ATOM      6  C   UNL     1      33.952 -14.904 -24.420  0.00  0.00    +0.150 C 
ATOM      7  C   UNL     1      34.246 -15.237 -23.085  0.00  0.00    +0.090 C 
ATOM      8  C   UNL     1      34.034 -15.479 -25.684  0.00  0.00    +0.112 C 
ATOM      9  C   UNL     1      33.140 -13.522 -26.538  0.00  0.00    +0.252 C 
ATOM     10  N   UNL     1      34.537 -16.781 -25.862  0.00  0.00    -0.346 N 
ATOM     11  H   UNL     1      34.585 -17.170 -26.765  0.00  0.00    +0.143 HD
ATOM     12  H   UNL     1      34.839 -17.303 -25.084  0.00  0.00    +0.143 HD
ENDROOT
BRANCH   1  15
ATOM     13  O   UNL     1      32.717  -7.359 -22.292  0.00  0.00    -0.270 OA
ATOM     14  N   UNL     1      32.440  -9.607 -22.822  0.00  0.00    -0.274 N 
ATOM     15  C   UNL     1      33.007 -11.972 -22.413  0.00  0.00    +0.117 C 
ATOM     16  C   UNL     1      31.688 -12.132 -21.631  0.00  0.00    +0.025 C 
ATOM     17  C   UNL     1      32.873 -10.857 -23.465  0.00  0.00    +0.115 C 
ATOM     18  C   UNL     1      31.229 -10.795 -21.046  0.00  0.00    +0.023 C 
ATOM     19  C   UNL     1      31.160  -9.710 -22.119  0.00  0.00    +0.094 C 
ATOM     20  C   UNL     1      33.116  -8.390 -22.837  0.00  0.00    +0.249 C 
BRANCH  20  21
ATOM     21  C   UNL     1      34.407  -8.329 -23.550  0.00  0.00    +0.058 C 
ATOM     22  C   UNL     1      34.933  -7.135 -23.832  0.00  0.00    +0.005 C 
ENDBRANCH  20  21
ENDBRANCH   1  15
BRANCH   7  23
ATOM     23  C   UNL     1      34.804 -16.471 -22.591  0.00  0.00    +0.016 C 
ATOM     24  C   UNL     1      34.995 -17.545 -23.460  0.00  0.00    +0.004 C 
ATOM     25  C   UNL     1      35.154 -16.590 -21.247  0.00  0.00    +0.004 C 
ATOM     26  C   UNL     1      35.535 -18.740 -22.983  0.00  0.00    +0.038 C 
ATOM     27  C   UNL     1      35.695 -17.785 -20.770  0.00  0.00    +0.038 C 
ATOM     28  C   UNL     1      35.885 -18.859 -21.638  0.00  0.00    +0.145 C 
BRANCH  28  29
ATOM     29  O   UNL     1      36.409 -20.026 -21.172  0.00  0.00    -0.453 OA
BRANCH  29  30
ATOM     30  C   UNL     1      35.611 -20.811 -20.359  0.00  0.00    +0.145 C 
ATOM     31  C   UNL     1      36.191 -21.608 -19.372  0.00  0.00    +0.037 C 
ATOM     32  C   UNL     1      34.226 -20.808 -20.527  0.00  0.00    +0.037 C 
ATOM     33  C   UNL     1      35.386 -22.400 -18.552  0.00  0.00    +0.003 C 
ATOM     34  C   UNL     1      33.421 -21.599 -19.709  0.00  0.00    +0.003 C 
ATOM     35  C   UNL     1      34.001 -22.396 -18.722  0.00  0.00    +0.000 C 
ENDBRANCH  29  30
ENDBRANCH  28  29
ENDBRANCH   7  23
TORSDOF 5
ENDMDL
MODEL 4
REMARK VINA RESULT:     -11.3      5.142     11.801
REMARK  Name = 24821094
REMARK  5 active torsions:
REMARK  status: ('A' for Active; 'I' for Inactive)
REMARK    1  A    between atoms: N_1  and  C_12
REMARK    2  A    between atoms: C_7  and  C_20
REMARK    3  A    between atoms: C_17  and  C_18
REMARK    4  A    between atoms: C_25  and  O_26
REMARK    5  A    between atoms: O_26  and  C_27
REMARK                            x       y       z     vdW  Elec       q    Type
REMARK                         _______ _______ _______ _____ _____    ______ ____
ROOT
ATOM      1  N   UNL     1      36.105 -23.210 -16.368  0.00  0.00    -0.198 N 
ATOM      2  N   UNL     1      36.556 -22.465 -17.394  0.00  0.00    -0.181 NA
ATOM      3  N   UNL     1      34.027 -24.086 -15.489  0.00  0.00    -0.231 NA
ATOM      4  N   UNL     1      32.121 -23.439 -16.867  0.00  0.00    -0.234 NA
ATOM      5  C   UNL     1      34.754 -23.393 -16.378  0.00  0.00    +0.137 C 
ATOM      6  C   UNL     1      34.287 -22.718 -17.493  0.00  0.00    +0.150 C 
ATOM      7  C   UNL     1      35.444 -22.169 -18.076  0.00  0.00    +0.090 C 
ATOM      8  C   UNL     1      32.916 -22.757 -17.725  0.00  0.00    +0.112 C 
ATOM      9  C   UNL     1      32.716 -24.052 -15.817  0.00  0.00    +0.252 C 
ATOM     10  N   UNL     1      32.345 -22.103 -18.833  0.00  0.00    -0.346 N 
ATOM     11  H   UNL     1      31.371 -22.143 -18.979  0.00  0.00    +0.143 HD
ATOM     12  H   UNL     1      32.917 -21.607 -19.461  0.00  0.00    +0.143 HD
ENDROOT
BRANCH   1  15
ATOM     13  O   UNL     1      38.177 -26.046 -11.485  0.00  0.00    -0.270 OA
ATOM     14  N   UNL     1      37.536 -25.479 -13.648  0.00  0.00    -0.274 N 
ATOM     15  C   UNL     1      37.089 -23.749 -15.347  0.00  0.00    +0.117 C 
ATOM     16  C   UNL     1      38.467 -24.038 -15.976  0.00  0.00    +0.025 C 
ATOM     17  C   UNL     1      36.554 -25.003 -14.633  0.00  0.00    +0.115 C 
ATOM     18  C   UNL     1      39.437 -24.609 -14.938  0.00  0.00    +0.023 C 
ATOM     19  C   UNL     1      38.840 -25.819 -14.223  0.00  0.00    +0.094 C 
ATOM     20  C   UNL     1      37.331 -25.634 -12.280  0.00  0.00    +0.249 C 
BRANCH  20  21
ATOM     21  C   UNL     1      36.005 -25.274 -11.739  0.00  0.00    +0.058 C 
ATOM     22  C   UNL     1      35.940 -24.504 -10.651  0.00  0.00    +0.005 C 
ENDBRANCH  20  21
ENDBRANCH   1  15
BRANCH   7  23
ATOM     23  C   UNL     1      35.527 -21.364 -19.269  0.00  0.00    +0.016 C 
ATOM     24  C   UNL     1      36.767 -20.912 -19.719  0.00  0.00    +0.004 C 
ATOM     25  C   UNL     1      34.368 -21.041 -19.975  0.00  0.00    +0.004 C 
ATOM     26  C   UNL     1      36.848 -20.134 -20.874  0.00  0.00    +0.038 C 
ATOM     27  C   UNL     1      34.449 -20.264 -21.131  0.00  0.00    +0.038 C 
ATOM     28  C   UNL     1      35.689 -19.810 -21.579  0.00  0.00    +0.145 C 
BRANCH  28  29
ATOM     29  O   UNL     1      35.768 -19.049 -22.705  0.00  0.00    -0.453 OA
BRANCH  29  30
ATOM     30  C   UNL     1      35.374 -17.724 -22.616  0.00  0.00    +0.145 C 
ATOM     31  C   UNL     1      35.334 -17.092 -21.373  0.00  0.00    +0.037 C 
ATOM     32  C   UNL     1      35.017 -17.022 -23.767  0.00  0.00    +0.037 C 
ATOM     33  C   UNL     1      34.937 -15.757 -21.282  0.00  0.00    +0.003 C 
ATOM     34  C   UNL     1      34.621 -15.689 -23.677  0.00  0.00    +0.003 C 
ATOM     35  C   UNL     1      34.580 -15.057 -22.434  0.00  0.00    +0.000 C 
ENDBRANCH  29  30
ENDBRANCH  28  29
ENDBRANCH   7  23
TORSDOF 5
ENDMDL
MODEL 5
REMARK VINA RESULT:     -11.2      5.428     11.908
REMARK  Name = 24821094
REMARK  5 active torsions:
REMARK  status: ('A' for Active; 'I' for Inactive)
REMARK    1  A    between atoms: N_1  and  C_12
REMARK    2  A    between atoms: C_7  and  C_20
REMARK    3  A    between atoms: C_17  and  C_18
REMARK    4  A    between atoms: C_25  and  O_26
REMARK    5  A    between atoms: O_26  and  C_27
REMARK                            x       y       z     vdW  Elec       q    Type
REMARK                         _______ _______ _______ _____ _____    ______ ____
ROOT
ATOM      1  N   UNL     1      35.327 -23.942 -15.954  0.00  0.00    -0.198 N 
ATOM      2  N   UNL     1      35.803 -23.280 -17.024  0.00  0.00    -0.181 NA
ATOM      3  N   UNL     1      33.218 -24.471 -14.890  0.00  0.00    -0.231 NA
ATOM      4  N   UNL     1      31.330 -23.524 -16.109  0.00  0.00    -0.234 NA
ATOM      5  C   UNL     1      33.969 -23.904 -15.847  0.00  0.00    +0.137 C 
ATOM      6  C   UNL     1      33.522 -23.163 -16.927  0.00  0.00    +0.150 C 
ATOM      7  C   UNL     1      34.698 -22.808 -17.613  0.00  0.00    +0.090 C 
ATOM      8  C   UNL     1      32.148 -22.979 -17.041  0.00  0.00    +0.112 C 
ATOM      9  C   UNL     1      31.907 -24.226 -15.105  0.00  0.00    +0.252 C 
ATOM     10  N   UNL     1      31.596 -22.242 -18.105  0.00  0.00    -0.346 N 
ATOM     11  H   UNL     1      30.620 -22.125 -18.168  0.00  0.00    +0.143 HD
ATOM     12  H   UNL     1      32.185 -21.845 -18.787  0.00  0.00    +0.143 HD
ENDROOT
BRANCH   1  15
ATOM     13  O   UNL     1      38.336 -25.230 -10.907  0.00  0.00    -0.270 OA
ATOM     14  N   UNL     1      36.822 -25.206 -12.672  0.00  0.00    -0.274 N 
ATOM     15  C   UNL     1      36.295 -24.634 -15.013  0.00  0.00    +0.117 C 
ATOM     16  C   UNL     1      36.522 -26.107 -15.404  0.00  0.00    +0.025 C 
ATOM     17  C   UNL     1      35.848 -24.532 -13.544  0.00  0.00    +0.115 C 
ATOM     18  C   UNL     1      37.477 -26.796 -14.426  0.00  0.00    +0.023 C 
ATOM     19  C   UNL     1      37.016 -26.624 -12.981  0.00  0.00    +0.094 C 
ATOM     20  C   UNL     1      37.532 -24.630 -11.623  0.00  0.00    +0.249 C 
BRANCH  20  21
ATOM     21  C   UNL     1      37.313 -23.196 -11.349  0.00  0.00    +0.058 C 
ATOM     22  C   UNL     1      38.019 -22.294 -12.034  0.00  0.00    +0.005 C 
ENDBRANCH  20  21
ENDBRANCH   1  15
BRANCH   7  23
ATOM     23  C   UNL     1      34.806 -22.027 -18.820  0.00  0.00    +0.016 C 
ATOM     24  C   UNL     1      33.654 -21.626 -19.496  0.00  0.00    +0.004 C 
ATOM     25  C   UNL     1      36.063 -21.673 -19.311  0.00  0.00    +0.004 C 
ATOM     26  C   UNL     1      33.759 -20.870 -20.664  0.00  0.00    +0.038 C 
ATOM     27  C   UNL     1      36.168 -20.916 -20.479  0.00  0.00    +0.038 C 
ATOM     28  C   UNL     1      35.016 -20.516 -21.155  0.00  0.00    +0.145 C 
BRANCH  28  29
ATOM     29  O   UNL     1      35.118 -19.781 -22.296  0.00  0.00    -0.453 OA
BRANCH  29  30
ATOM     30  C   UNL     1      35.093 -18.402 -22.179  0.00  0.00    +0.145 C 
ATOM     31  C   UNL     1      35.056 -17.605 -23.323  0.00  0.00    +0.037 C 
ATOM     32  C   UNL     1      35.104 -17.808 -20.916  0.00  0.00    +0.037 C 
ATOM     33  C   UNL     1      35.031 -16.215 -23.205  0.00  0.00    +0.003 C 
ATOM     34  C   UNL     1      35.079 -16.419 -20.798  0.00  0.00    +0.003 C 
ATOM     35  C   UNL     1      35.043 -15.623 -21.943  0.00  0.00    +0.000 C 
ENDBRANCH  29  30
ENDBRANCH  28  29
ENDBRANCH   7  23
TORSDOF 5
ENDMDL
MODEL 6
REMARK VINA RESULT:     -11.2      4.090     12.277
REMARK  Name = 24821094
REMARK  5 active torsions:
REMARK  status: ('A' for Active; 'I' for Inactive)
REMARK    1  A    between atoms: N_1  and  C_12
REMARK    2  A    between atoms: C_7  and  C_20
REMARK    3  A    between atoms: C_17  and  C_18
REMARK    4  A    between atoms: C_25  and  O_26
REMARK    5  A    between atoms: O_26  and  C_27
REMARK                            x       y       z     vdW  Elec       q    Type
REMARK                         _______ _______ _______ _____ _____    ______ ____
ROOT
ATOM      1  N   UNL     1      33.298 -11.841 -23.798  0.00  0.00    -0.198 N 
ATOM      2  N   UNL     1      33.433 -10.637 -24.385  0.00  0.00    -0.181 NA
ATOM      3  N   UNL     1      32.498 -12.815 -21.732  0.00  0.00    -0.231 NA
ATOM      4  N   UNL     1      31.662 -11.114 -20.197  0.00  0.00    -0.234 NA
ATOM      5  C   UNL     1      32.751 -11.783 -22.551  0.00  0.00    +0.137 C 
ATOM      6  C   UNL     1      32.510 -10.443 -22.303  0.00  0.00    +0.150 C 
ATOM      7  C   UNL     1      32.951  -9.790 -23.468  0.00  0.00    +0.090 C 
ATOM      8  C   UNL     1      31.944 -10.121 -21.074  0.00  0.00    +0.112 C 
ATOM      9  C   UNL     1      31.953 -12.381 -20.574  0.00  0.00    +0.252 C 
ATOM     10  N   UNL     1      31.659  -8.787 -20.729  0.00  0.00    -0.346 N 
ATOM     11  H   UNL     1      31.258  -8.580 -19.853  0.00  0.00    +0.143 HD
ATOM     12  H   UNL     1      31.860  -8.060 -21.362  0.00  0.00    +0.143 HD
ENDROOT
BRANCH   1  15
ATOM     13  O   UNL     1      35.060 -17.515 -24.738  0.00  0.00    -0.270 OA
ATOM     14  N   UNL     1      33.830 -15.552 -24.538  0.00  0.00    -0.274 N 
ATOM     15  C   UNL     1      33.745 -13.087 -24.539  0.00  0.00    +0.117 C 
ATOM     16  C   UNL     1      33.196 -13.125 -25.979  0.00  0.00    +0.025 C 
ATOM     17  C   UNL     1      33.366 -14.375 -23.788  0.00  0.00    +0.115 C 
ATOM     18  C   UNL     1      33.633 -14.403 -26.701  0.00  0.00    +0.023 C 
ATOM     19  C   UNL     1      33.279 -15.649 -25.892  0.00  0.00    +0.094 C 
ATOM     20  C   UNL     1      34.701 -16.537 -24.082  0.00  0.00    +0.249 C 
BRANCH  20  21
ATOM     21  C   UNL     1      35.239 -16.397 -22.714  0.00  0.00    +0.058 C 
ATOM     22  C   UNL     1      35.563 -17.499 -22.033  0.00  0.00    +0.005 C 
ENDBRANCH  20  21
ENDBRANCH   1  15
BRANCH   7  23
ATOM     23  C   UNL     1      32.928  -8.375 -23.742  0.00  0.00    +0.016 C 
ATOM     24  C   UNL     1      31.720  -7.740 -24.030  0.00  0.00    +0.004 C 
ATOM     25  C   UNL     1      34.113  -7.640 -23.718  0.00  0.00    +0.004 C 
ATOM     26  C   UNL     1      31.698  -6.371 -24.295  0.00  0.00    +0.038 C 
ATOM     27  C   UNL     1      34.091  -6.270 -23.982  0.00  0.00    +0.038 C 
ATOM     28  C   UNL     1      32.883  -5.636 -24.270  0.00  0.00    +0.145 C 
BRANCH  28  29
ATOM     29  O   UNL     1      32.862  -4.301 -24.532  0.00  0.00    -0.453 OA
BRANCH  29  30
ATOM     30  C   UNL     1      32.951  -3.902 -25.854  0.00  0.00    +0.145 C 
ATOM     31  C   UNL     1      33.827  -4.553 -26.722  0.00  0.00    +0.037 C 
ATOM     32  C   UNL     1      32.164  -2.847 -26.320  0.00  0.00    +0.037 C 
ATOM     33  C   UNL     1      33.918  -4.151 -28.055  0.00  0.00    +0.003 C 
ATOM     34  C   UNL     1      32.254  -2.445 -27.652  0.00  0.00    +0.003 C 
ATOM     35  C   UNL     1      33.131  -3.097 -28.519  0.00  0.00    +0.000 C 
ENDBRANCH  29  30
ENDBRANCH  28  29
ENDBRANCH   7  23
TORSDOF 5
ENDMDL
MODEL 7
REMARK VINA RESULT:     -11.0      5.642     12.877
REMARK  Name = 24821094
REMARK  5 active torsions:
REMARK  status: ('A' for Active; 'I' for Inactive)
REMARK    1  A    between atoms: N_1  and  C_12
REMARK    2  A    between atoms: C_7  and  C_20
REMARK    3  A    between atoms: C_17  and  C_18
REMARK    4  A    between atoms: C_25  and  O_26
REMARK    5  A    between atoms: O_26  and  C_27
REMARK                            x       y       z     vdW  Elec       q    Type
REMARK                         _______ _______ _______ _____ _____    ______ ____
ROOT
ATOM      1  N   UNL     1      32.535 -10.009 -22.629  0.00  0.00    -0.198 N 
ATOM      2  N   UNL     1      32.868  -9.220 -23.667  0.00  0.00    -0.181 NA
ATOM      3  N   UNL     1      31.911  -9.837 -20.297  0.00  0.00    -0.231 NA
ATOM      4  N   UNL     1      31.856  -7.516 -19.547  0.00  0.00    -0.234 NA
ATOM      5  C   UNL     1      32.267  -9.321 -21.483  0.00  0.00    +0.137 C 
ATOM      6  C   UNL     1      32.437  -7.983 -21.793  0.00  0.00    +0.150 C 
ATOM      7  C   UNL     1      32.807  -7.986 -23.151  0.00  0.00    +0.090 C 
ATOM      8  C   UNL     1      32.218  -7.065 -20.771  0.00  0.00    +0.112 C 
ATOM      9  C   UNL     1      31.727  -8.855 -19.387  0.00  0.00    +0.252 C 
ATOM     10  N   UNL     1      32.364  -5.683 -20.988  0.00  0.00    -0.346 N 
ATOM     11  H   UNL     1      32.203  -5.050 -20.251  0.00  0.00    +0.143 HD
ATOM     12  H   UNL     1      32.625  -5.348 -21.876  0.00  0.00    +0.143 HD
ENDROOT
BRANCH   1  15
ATOM     13  O   UNL     1      33.204 -15.383 -25.245  0.00  0.00    -0.270 OA
ATOM     14  N   UNL     1      33.477 -13.464 -23.962  0.00  0.00    -0.274 N 
ATOM     15  C   UNL     1      32.491 -11.513 -22.819  0.00  0.00    +0.117 C 
ATOM     16  C   UNL     1      32.607 -12.264 -21.478  0.00  0.00    +0.025 C 
ATOM     17  C   UNL     1      33.568 -12.005 -23.803  0.00  0.00    +0.115 C 
ATOM     18  C   UNL     1      32.591 -13.780 -21.692  0.00  0.00    +0.023 C 
ATOM     19  C   UNL     1      33.643 -14.210 -22.713  0.00  0.00    +0.094 C 
ATOM     20  C   UNL     1      33.266 -14.157 -25.150  0.00  0.00    +0.249 C 
BRANCH  20  21
ATOM     21  C   UNL     1      33.096 -13.367 -26.386  0.00  0.00    +0.058 C 
ATOM     22  C   UNL     1      34.094 -13.333 -27.271  0.00  0.00    +0.005 C 
ENDBRANCH  20  21
ENDBRANCH   1  15
BRANCH   7  23
ATOM     23  C   UNL     1      33.105  -6.847 -23.981  0.00  0.00    +0.016 C 
ATOM     24  C   UNL     1      32.080  -5.992 -24.386  0.00  0.00    +0.004 C 
ATOM     25  C   UNL     1      34.418  -6.597 -24.378  0.00  0.00    +0.004 C 
ATOM     26  C   UNL     1      32.368  -4.889 -25.189  0.00  0.00    +0.038 C 
ATOM     27  C   UNL     1      34.707  -5.493 -25.180  0.00  0.00    +0.038 C 
ATOM     28  C   UNL     1      33.682  -4.639 -25.586  0.00  0.00    +0.145 C 
BRANCH  28  29
ATOM     29  O   UNL     1      33.963  -3.564 -26.372  0.00  0.00    -0.453 OA
BRANCH  29  30
ATOM     30  C   UNL     1      34.622  -3.795 -27.568  0.00  0.00    +0.145 C 
ATOM     31  C   UNL     1      33.898  -4.148 -28.706  0.00  0.00    +0.037 C 
ATOM     32  C   UNL     1      36.011  -3.675 -27.634  0.00  0.00    +0.037 C 
ATOM     33  C   UNL     1      34.562  -4.382 -29.911  0.00  0.00    +0.003 C 
ATOM     34  C   UNL     1      36.674  -3.908 -28.838  0.00  0.00    +0.003 C 
ATOM     35  C   UNL     1      35.950  -4.262 -29.976  0.00  0.00    +0.000 C 
ENDBRANCH  29  30
ENDBRANCH  28  29
ENDBRANCH   7  23
TORSDOF 5
ENDMDL
MODEL 8
REMARK VINA RESULT:     -10.8      3.233      6.105
REMARK  Name = 24821094
REMARK  5 active torsions:
REMARK  status: ('A' for Active; 'I' for Inactive)
REMARK    1  A    between atoms: N_1  and  C_12
REMARK    2  A    between atoms: C_7  and  C_20
REMARK    3  A    between atoms: C_17  and  C_18
REMARK    4  A    between atoms: C_25  and  O_26
REMARK    5  A    between atoms: O_26  and  C_27
REMARK                            x       y       z     vdW  Elec       q    Type
REMARK                         _______ _______ _______ _____ _____    ______ ____
ROOT
ATOM      1  N   UNL     1      33.032 -10.178 -23.262  0.00  0.00    -0.198 N 
ATOM      2  N   UNL     1      33.611 -11.245 -23.841  0.00  0.00    -0.181 NA
ATOM      3  N   UNL     1      31.669  -9.626 -21.339  0.00  0.00    -0.231 NA
ATOM      4  N   UNL     1      31.161 -11.598 -19.997  0.00  0.00    -0.234 NA
ATOM      5  C   UNL     1      32.343 -10.479 -22.125  0.00  0.00    +0.137 C 
ATOM      6  C   UNL     1      32.483 -11.844 -21.945  0.00  0.00    +0.150 C 
ATOM      7  C   UNL     1      33.274 -12.257 -23.034  0.00  0.00    +0.090 C 
ATOM      8  C   UNL     1      31.860 -12.402 -20.833  0.00  0.00    +0.112 C 
ATOM      9  C   UNL     1      31.109 -10.279 -20.297  0.00  0.00    +0.252 C 
ATOM     10  N   UNL     1      31.946 -13.780 -20.564  0.00  0.00    -0.346 N 
ATOM     11  H   UNL     1      31.498 -14.155 -19.771  0.00  0.00    +0.143 HD
ATOM     12  H   UNL     1      32.453 -14.370 -21.167  0.00  0.00    +0.143 HD
ENDROOT
BRANCH   1  15
ATOM     13  O   UNL     1      32.284  -4.285 -24.209  0.00  0.00    -0.270 OA
ATOM     14  N   UNL     1      33.083  -6.368 -23.553  0.00  0.00    -0.274 N 
ATOM     15  C   UNL     1      33.188  -8.808 -23.895  0.00  0.00    +0.117 C 
ATOM     16  C   UNL     1      34.569  -8.637 -24.557  0.00  0.00    +0.025 C 
ATOM     17  C   UNL     1      32.931  -7.672 -22.890  0.00  0.00    +0.115 C 
ATOM     18  C   UNL     1      34.719  -7.239 -25.165  0.00  0.00    +0.023 C 
ATOM     19  C   UNL     1      34.406  -6.150 -24.142  0.00  0.00    +0.094 C 
ATOM     20  C   UNL     1      32.117  -5.371 -23.651  0.00  0.00    +0.249 C 
BRANCH  20  21
ATOM     21  C   UNL     1      30.794  -5.633 -23.051  0.00  0.00    +0.058 C 
ATOM     22  C   UNL     1      30.496  -5.073 -21.877  0.00  0.00    +0.005 C 
ENDBRANCH  20  21
ENDBRANCH   1  15
BRANCH   7  23
ATOM     23  C   UNL     1      33.722 -13.594 -23.334  0.00  0.00    +0.016 C 
ATOM     24  C   UNL     1      34.537 -14.275 -22.429  0.00  0.00    +0.004 C 
ATOM     25  C   UNL     1      33.340 -14.207 -24.527  0.00  0.00    +0.004 C 
ATOM     26  C   UNL     1      34.971 -15.568 -22.720  0.00  0.00    +0.038 C 
ATOM     27  C   UNL     1      33.774 -15.501 -24.817  0.00  0.00    +0.038 C 
ATOM     28  C   UNL     1      34.589 -16.181 -23.913  0.00  0.00    +0.145 C 
BRANCH  28  29
ATOM     29  O   UNL     1      35.015 -17.442 -24.197  0.00  0.00    -0.453 OA
BRANCH  29  30
ATOM     30  C   UNL     1      35.257 -18.296 -23.134  0.00  0.00    +0.145 C 
ATOM     31  C   UNL     1      34.282 -19.211 -22.738  0.00  0.00    +0.037 C 
ATOM     32  C   UNL     1      36.476 -18.240 -22.457  0.00  0.00    +0.037 C 
ATOM     33  C   UNL     1      34.525 -20.070 -21.666  0.00  0.00    +0.003 C 
ATOM     34  C   UNL     1      36.720 -19.099 -21.386  0.00  0.00    +0.003 C 
ATOM     35  C   UNL     1      35.744 -20.013 -20.990  0.00  0.00    +0.000 C 
ENDBRANCH  29  30
ENDBRANCH  28  29
ENDBRANCH   7  23
TORSDOF 5
ENDMDL
MODEL 9
REMARK VINA RESULT:     -10.8      1.789      9.818
REMARK  Name = 24821094
REMARK  5 active torsions:
REMARK  status: ('A' for Active; 'I' for Inactive)
REMARK    1  A    between atoms: N_1  and  C_12
REMARK    2  A    between atoms: C_7  and  C_20
REMARK    3  A    between atoms: C_17  and  C_18
REMARK    4  A    between atoms: C_25  and  O_26
REMARK    5  A    between atoms: O_26  and  C_27
REMARK                            x       y       z     vdW  Elec       q    Type
REMARK                         _______ _______ _______ _____ _____    ______ ____
ROOT
ATOM      1  N   UNL     1      34.709 -16.745 -22.602  0.00  0.00    -0.198 N 
ATOM      2  N   UNL     1      34.390 -15.564 -22.043  0.00  0.00    -0.181 NA
ATOM      3  N   UNL     1      34.597 -17.873 -24.741  0.00  0.00    -0.231 NA
ATOM      4  N   UNL     1      33.596 -16.457 -26.456  0.00  0.00    -0.234 NA
ATOM      5  C   UNL     1      34.397 -16.826 -23.926  0.00  0.00    +0.137 C 
ATOM      6  C   UNL     1      33.832 -15.607 -24.259  0.00  0.00    +0.150 C 
ATOM      7  C   UNL     1      33.856 -14.874 -23.058  0.00  0.00    +0.090 C 
ATOM      8  C   UNL     1      33.424 -15.439 -25.578  0.00  0.00    +0.112 C 
ATOM      9  C   UNL     1      34.164 -17.594 -25.990  0.00  0.00    +0.252 C 
ATOM     10  N   UNL     1      32.840 -14.236 -26.014  0.00  0.00    -0.346 N 
ATOM     11  H   UNL     1      32.558 -14.138 -26.953  0.00  0.00    +0.143 HD
ATOM     12  H   UNL     1      32.713 -13.492 -25.382  0.00  0.00    +0.143 HD
ENDROOT
BRANCH   1  15
ATOM     13  O   UNL     1      35.336 -21.878 -19.529  0.00  0.00    -0.270 OA
ATOM     14  N   UNL     1      35.385 -20.217 -21.156  0.00  0.00    -0.274 N 
ATOM     15  C   UNL     1      35.353 -17.824 -21.751  0.00  0.00    +0.117 C 
ATOM     16  C   UNL     1      36.881 -17.872 -21.946  0.00  0.00    +0.025 C 
ATOM     17  C   UNL     1      34.737 -19.210 -22.010  0.00  0.00    +0.115 C 
ATOM     18  C   UNL     1      37.509 -18.985 -21.103  0.00  0.00    +0.023 C 
ATOM     19  C   UNL     1      36.831 -20.329 -21.359  0.00  0.00    +0.094 C 
ATOM     20  C   UNL     1      34.760 -21.038 -20.221  0.00  0.00    +0.249 C 
BRANCH  20  21
ATOM     21  C   UNL     1      33.302 -20.889 -20.042  0.00  0.00    +0.058 C 
ATOM     22  C   UNL     1      32.678 -21.673 -19.161  0.00  0.00    +0.005 C 
ENDBRANCH  20  21
ENDBRANCH   1  15
BRANCH   7  23
ATOM     23  C   UNL     1      33.384 -13.530 -22.841  0.00  0.00    +0.016 C 
ATOM     24  C   UNL     1      32.456 -13.271 -21.833  0.00  0.00    +0.004 C 
ATOM     25  C   UNL     1      33.856 -12.488 -23.638  0.00  0.00    +0.004 C 
ATOM     26  C   UNL     1      31.999 -11.970 -21.623  0.00  0.00    +0.038 C 
ATOM     27  C   UNL     1      33.401 -11.186 -23.428  0.00  0.00    +0.038 C 
ATOM     28  C   UNL     1      32.472 -10.928 -22.420  0.00  0.00    +0.145 C 
BRANCH  28  29
ATOM     29  O   UNL     1      32.024  -9.658 -22.217  0.00  0.00    -0.453 OA
BRANCH  29  30
ATOM     30  C   UNL     1      32.707  -8.627 -22.840  0.00  0.00    +0.145 C 
ATOM     31  C   UNL     1      34.070  -8.452 -22.606  0.00  0.00    +0.037 C 
ATOM     32  C   UNL     1      32.031  -7.763 -23.702  0.00  0.00    +0.037 C 
ATOM     33  C   UNL     1      34.758  -7.413 -23.234  0.00  0.00    +0.003 C 
ATOM     34  C   UNL     1      32.718  -6.724 -24.329  0.00  0.00    +0.003 C 
ATOM     35  C   UNL     1      34.081  -6.549 -24.094  0.00  0.00    +0.000 C 
ENDBRANCH  29  30
ENDBRANCH  28  29
ENDBRANCH   7  23
TORSDOF 5
ENDMDL
