MODEL 1
REMARK VINA RESULT:     -10.9      0.000      0.000
REMARK  Name = 446345
REMARK  6 active torsions:
REMARK  status: ('A' for Active; 'I' for Inactive)
REMARK    1  A    between atoms: N_2  and  C_20
REMARK    2  A    between atoms: N_3  and  S_8
REMARK    3  A    between atoms: S_8  and  C_11
REMARK    4  A    between atoms: C_12  and  C_14
REMARK    5  A    between atoms: C_20  and  C_22
REMARK    6  A    between atoms: N_21  and  C_28
REMARK                            x       y       z     vdW  Elec       q    Type
REMARK                         _______ _______ _______ _____ _____    ______ ____
ROOT
ATOM      1  O   UNL     1      37.776 -19.638 -20.586  0.00  0.00    -0.273 OA
ATOM      2  N   UNL     1      35.669 -19.070 -21.370  0.00  0.00    -0.277 N 
ATOM      3  N   UNL     1      34.564 -21.119 -19.818  0.00  0.00    -0.144 NA
ATOM      4  C   UNL     1      34.224 -19.256 -21.300  0.00  0.00    +0.113 C 
ATOM      5  C   UNL     1      33.836 -20.695 -21.033  0.00  0.00    +0.118 C 
ATOM      6  C   UNL     1      36.566 -19.868 -20.665  0.00  0.00    +0.244 C 
ATOM      7  C   UNL     1      36.023 -21.128 -20.037  0.00  0.00    +0.181 C 
ENDROOT
BRANCH   3   8
ATOM      8  S   UNL     1      33.929 -22.487 -19.007  0.00  0.00    +0.065 S 
ATOM      9  O   UNL     1      34.225 -23.657 -19.816  0.00  0.00    -0.153 OA
ATOM     10  O   UNL     1      32.556 -22.190 -18.640  0.00  0.00    -0.153 OA
BRANCH   8  11
ATOM     11  C   UNL     1      34.863 -22.590 -17.552  0.00  0.00    +0.141 C 
ATOM     12  C   UNL     1      34.368 -23.341 -16.561  0.00  0.00    +0.021 C 
BRANCH  12  14
ATOM     13 CL   UNL     1      37.029 -24.201 -11.292  0.00  0.00    -0.082 Cl
ATOM     14  C   UNL     1      35.025 -23.553 -15.260  0.00  0.00    +0.001 C 
ATOM     15  C   UNL     1      36.351 -23.182 -15.100  0.00  0.00    +0.001 C 
ATOM     16  C   UNL     1      34.305 -24.120 -14.220  0.00  0.00    +0.001 C 
ATOM     17  C   UNL     1      36.973 -23.383 -13.868  0.00  0.00    +0.011 C 
ATOM     18  C   UNL     1      34.928 -24.321 -12.988  0.00  0.00    +0.011 C 
ATOM     19  C   UNL     1      36.262 -23.952 -12.812  0.00  0.00    +0.058 C 
ENDBRANCH  12  14
ENDBRANCH   8  11
ENDBRANCH   3   8
BRANCH   2  20
ATOM     20  C   UNL     1      36.131 -17.856 -22.029  0.00  0.00    +0.094 C 
BRANCH  20  22
ATOM     21  N   UNL     1      34.010 -14.146 -22.565  0.00  0.00    -0.307 N 
ATOM     22  C   UNL     1      35.006 -16.837 -22.181  0.00  0.00    +0.023 C 
ATOM     23  C   UNL     1      35.083 -16.137 -23.542  0.00  0.00    +0.023 C 
ATOM     24  C   UNL     1      35.061 -15.790 -21.064  0.00  0.00    +0.023 C 
ATOM     25  C   UNL     1      33.984 -15.087 -23.693  0.00  0.00    +0.091 C 
ATOM     26  C   UNL     1      33.964 -14.737 -21.224  0.00  0.00    +0.091 C 
BRANCH  21  28
ATOM     27  N   UNL     1      32.377 -10.306 -23.201  0.00  0.00    -0.242 NA
ATOM     28  C   UNL     1      33.468 -12.872 -22.776  0.00  0.00    +0.051 C 
ATOM     29  C   UNL     1      32.410 -12.396 -21.986  0.00  0.00    +0.035 C 
ATOM     30  C   UNL     1      33.965 -12.032 -23.785  0.00  0.00    +0.035 C 
ATOM     31  C   UNL     1      31.909 -11.128 -22.234  0.00  0.00    +0.100 C 
ATOM     32  C   UNL     1      33.395 -10.781 -23.954  0.00  0.00    +0.100 C 
ENDBRANCH  21  28
ENDBRANCH  20  22
ENDBRANCH   2  20
TORSDOF 6
ENDMDL
MODEL 2
REMARK VINA RESULT:     -10.7      4.060     11.352
REMARK  Name = 446345
REMARK  6 active torsions:
REMARK  status: ('A' for Active; 'I' for Inactive)
REMARK    1  A    between atoms: N_2  and  C_20
REMARK    2  A    between atoms: N_3  and  S_8
REMARK    3  A    between atoms: S_8  and  C_11
REMARK    4  A    between atoms: C_12  and  C_14
REMARK    5  A    between atoms: C_20  and  C_22
REMARK    6  A    between atoms: N_21  and  C_28
REMARK                            x       y       z     vdW  Elec       q    Type
REMARK                         _______ _______ _______ _____ _____    ______ ____
ROOT
ATOM      1  O   UNL     1      32.380 -21.315 -19.920  0.00  0.00    -0.273 OA
ATOM      2  N   UNL     1      34.464 -22.124 -19.304  0.00  0.00    -0.277 N 
ATOM      3  N   UNL     1      35.668 -20.007 -20.683  0.00  0.00    -0.144 NA
ATOM      4  C   UNL     1      35.911 -21.935 -19.265  0.00  0.00    +0.113 C 
ATOM      5  C   UNL     1      36.441 -21.256 -20.510  0.00  0.00    +0.118 C 
ATOM      6  C   UNL     1      33.612 -21.267 -19.995  0.00  0.00    +0.244 C 
ATOM      7  C   UNL     1      34.243 -20.285 -20.950  0.00  0.00    +0.181 C 
ENDROOT
BRANCH   3   8
ATOM      8  S   UNL     1      36.388 -18.815 -21.678  0.00  0.00    +0.065 S 
ATOM      9  O   UNL     1      36.175 -19.205 -23.061  0.00  0.00    -0.153 OA
ATOM     10  O   UNL     1      37.737 -18.584 -21.192  0.00  0.00    -0.153 OA
BRANCH   8  11
ATOM     11  C   UNL     1      35.457 -17.387 -21.373  0.00  0.00    +0.141 C 
ATOM     12  C   UNL     1      35.208 -16.586 -22.416  0.00  0.00    +0.021 C 
BRANCH  12  14
ATOM     13 CL   UNL     1      32.053 -11.530 -22.145  0.00  0.00    -0.082 Cl
ATOM     14  C   UNL     1      34.429 -15.338 -22.349  0.00  0.00    +0.001 C 
ATOM     15  C   UNL     1      34.210 -14.611 -23.509  0.00  0.00    +0.001 C 
ATOM     16  C   UNL     1      33.930 -14.913 -21.128  0.00  0.00    +0.001 C 
ATOM     17  C   UNL     1      33.472 -13.429 -23.446  0.00  0.00    +0.011 C 
ATOM     18  C   UNL     1      33.192 -13.731 -21.065  0.00  0.00    +0.011 C 
ATOM     19  C   UNL     1      32.963 -12.989 -22.224  0.00  0.00    +0.058 C 
ENDBRANCH  12  14
ENDBRANCH   8  11
ENDBRANCH   3   8
BRANCH   2  20
ATOM     20  C   UNL     1      33.920 -23.119 -18.391  0.00  0.00    +0.094 C 
BRANCH  20  22
ATOM     21  N   UNL     1      35.513 -23.598 -14.418  0.00  0.00    -0.307 N 
ATOM     22  C   UNL     1      34.328 -22.838 -16.948  0.00  0.00    +0.023 C 
ATOM     23  C   UNL     1      35.845 -22.964 -16.775  0.00  0.00    +0.023 C 
ATOM     24  C   UNL     1      33.622 -23.797 -15.983  0.00  0.00    +0.023 C 
ATOM     25  C   UNL     1      36.265 -22.722 -15.326  0.00  0.00    +0.091 C 
ATOM     26  C   UNL     1      34.052 -23.557 -14.536  0.00  0.00    +0.091 C 
BRANCH  21  28
ATOM     27  N   UNL     1      37.273 -24.498 -10.689  0.00  0.00    -0.242 NA
ATOM     28  C   UNL     1      36.096 -23.897 -13.180  0.00  0.00    +0.051 C 
ATOM     29  C   UNL     1      35.305 -24.180 -12.057  0.00  0.00    +0.035 C 
ATOM     30  C   UNL     1      37.491 -23.920 -13.026  0.00  0.00    +0.035 C 
ATOM     31  C   UNL     1      35.931 -24.470 -10.855  0.00  0.00    +0.100 C 
ATOM     32  C   UNL     1      38.020 -24.221 -11.781  0.00  0.00    +0.100 C 
ENDBRANCH  21  28
ENDBRANCH  20  22
ENDBRANCH   2  20
TORSDOF 6
ENDMDL
MODEL 3
REMARK VINA RESULT:     -10.1      3.248      5.378
REMARK  Name = 446345
REMARK  6 active torsions:
REMARK  status: ('A' for Active; 'I' for Inactive)
REMARK    1  A    between atoms: N_2  and  C_20
REMARK    2  A    between atoms: N_3  and  S_8
REMARK    3  A    between atoms: S_8  and  C_11
REMARK    4  A    between atoms: C_12  and  C_14
REMARK    5  A    between atoms: C_20  and  C_22
REMARK    6  A    between atoms: N_21  and  C_28
REMARK                            x       y       z     vdW  Elec       q    Type
REMARK                         _______ _______ _______ _____ _____    ______ ____
ROOT
ATOM      1  O   UNL     1      34.380 -14.046 -22.017  0.00  0.00    -0.273 OA
ATOM      2  N   UNL     1      33.799 -14.968 -24.063  0.00  0.00    -0.277 N 
ATOM      3  N   UNL     1      34.919 -17.403 -23.259  0.00  0.00    -0.144 NA
ATOM      4  C   UNL     1      33.704 -16.150 -24.914  0.00  0.00    +0.113 C 
ATOM      5  C   UNL     1      34.858 -17.108 -24.707  0.00  0.00    +0.118 C 
ATOM      6  C   UNL     1      34.419 -14.986 -22.817  0.00  0.00    +0.244 C 
ATOM      7  C   UNL     1      35.250 -16.197 -22.475  0.00  0.00    +0.181 C 
ENDROOT
BRANCH   3   8
ATOM      8  S   UNL     1      35.766 -18.824 -22.822  0.00  0.00    +0.065 S 
ATOM      9  O   UNL     1      37.058 -18.424 -22.289  0.00  0.00    -0.153 OA
ATOM     10  O   UNL     1      35.701 -19.745 -23.943  0.00  0.00    -0.153 OA
BRANCH   8  11
ATOM     11  C   UNL     1      34.835 -19.493 -21.524  0.00  0.00    +0.141 C 
ATOM     12  C   UNL     1      35.239 -20.667 -21.024  0.00  0.00    +0.021 C 
BRANCH  12  14
ATOM     13 CL   UNL     1      32.565 -23.557 -16.542  0.00  0.00    -0.082 Cl
ATOM     14  C   UNL     1      34.579 -21.380 -19.917  0.00  0.00    +0.001 C 
ATOM     15  C   UNL     1      35.352 -22.067 -18.994  0.00  0.00    +0.001 C 
ATOM     16  C   UNL     1      33.196 -21.353 -19.819  0.00  0.00    +0.001 C 
ATOM     17  C   UNL     1      34.727 -22.742 -17.946  0.00  0.00    +0.011 C 
ATOM     18  C   UNL     1      32.572 -22.028 -18.771  0.00  0.00    +0.011 C 
ATOM     19  C   UNL     1      33.337 -22.723 -17.835  0.00  0.00    +0.058 C 
ENDBRANCH  12  14
ENDBRANCH   8  11
ENDBRANCH   3   8
BRANCH   2  20
ATOM     20  C   UNL     1      33.008 -13.815 -24.472  0.00  0.00    +0.094 C 
BRANCH  20  22
ATOM     21  N   UNL     1      32.912  -9.835 -22.829  0.00  0.00    -0.307 N 
ATOM     22  C   UNL     1      33.326 -12.588 -23.622  0.00  0.00    +0.023 C 
ATOM     23  C   UNL     1      32.105 -12.162 -22.800  0.00  0.00    +0.023 C 
ATOM     24  C   UNL     1      33.784 -11.419 -24.500  0.00  0.00    +0.023 C 
ATOM     25  C   UNL     1      32.396 -10.912 -21.972  0.00  0.00    +0.091 C 
ATOM     26  C   UNL     1      34.067 -10.167 -23.669  0.00  0.00    +0.091 C 
BRANCH  21  28
ATOM     27  N   UNL     1      32.395  -5.867 -21.484  0.00  0.00    -0.242 NA
ATOM     28  C   UNL     1      32.740  -8.518 -22.382  0.00  0.00    +0.051 C 
ATOM     29  C   UNL     1      32.430  -8.243 -21.042  0.00  0.00    +0.035 C 
ATOM     30  C   UNL     1      32.872  -7.433 -23.262  0.00  0.00    +0.035 C 
ATOM     31  C   UNL     1      32.271  -6.924 -20.650  0.00  0.00    +0.100 C 
ATOM     32  C   UNL     1      32.693  -6.150 -22.772  0.00  0.00    +0.100 C 
ENDBRANCH  21  28
ENDBRANCH  20  22
ENDBRANCH   2  20
TORSDOF 6
ENDMDL
MODEL 4
REMARK VINA RESULT:      -9.9      4.831      7.261
REMARK  Name = 446345
REMARK  6 active torsions:
REMARK  status: ('A' for Active; 'I' for Inactive)
REMARK    1  A    between atoms: N_2  and  C_20
REMARK    2  A    between atoms: N_3  and  S_8
REMARK    3  A    between atoms: S_8  and  C_11
REMARK    4  A    between atoms: C_12  and  C_14
REMARK    5  A    between atoms: C_20  and  C_22
REMARK    6  A    between atoms: N_21  and  C_28
REMARK                            x       y       z     vdW  Elec       q    Type
REMARK                         _______ _______ _______ _____ _____    ______ ____
ROOT
ATOM      1  O   UNL     1      34.693 -14.247 -21.179  0.00  0.00    -0.273 OA
ATOM      2  N   UNL     1      33.345 -13.349 -22.838  0.00  0.00    -0.277 N 
ATOM      3  N   UNL     1      33.711 -15.670 -24.359  0.00  0.00    -0.144 NA
ATOM      4  C   UNL     1      32.640 -13.532 -24.103  0.00  0.00    +0.113 C 
ATOM      5  C   UNL     1      33.402 -14.411 -25.071  0.00  0.00    +0.118 C 
ATOM      6  C   UNL     1      34.206 -14.309 -22.311  0.00  0.00    +0.244 C 
ATOM      7  C   UNL     1      34.622 -15.438 -23.221  0.00  0.00    +0.181 C 
ENDROOT
BRANCH   3   8
ATOM      8  S   UNL     1      34.091 -17.014 -25.348  0.00  0.00    +0.065 S 
ATOM      9  O   UNL     1      35.336 -16.718 -26.037  0.00  0.00    -0.153 OA
ATOM     10  O   UNL     1      32.905 -17.354 -26.114  0.00  0.00    -0.153 OA
BRANCH   8  11
ATOM     11  C   UNL     1      34.391 -18.298 -24.226  0.00  0.00    +0.141 C 
ATOM     12  C   UNL     1      35.118 -18.004 -23.141  0.00  0.00    +0.021 C 
BRANCH  12  14
ATOM     13 CL   UNL     1      36.521 -21.882 -18.831  0.00  0.00    -0.082 Cl
ATOM     14  C   UNL     1      35.464 -18.962 -22.077  0.00  0.00    +0.001 C 
ATOM     15  C   UNL     1      34.481 -19.795 -21.566  0.00  0.00    +0.001 C 
ATOM     16  C   UNL     1      36.767 -19.012 -21.606  0.00  0.00    +0.001 C 
ATOM     17  C   UNL     1      34.809 -20.702 -20.559  0.00  0.00    +0.011 C 
ATOM     18  C   UNL     1      37.095 -19.919 -20.598  0.00  0.00    +0.011 C 
ATOM     19  C   UNL     1      36.115 -20.764 -20.075  0.00  0.00    +0.058 C 
ENDBRANCH  12  14
ENDBRANCH   8  11
ENDBRANCH   3   8
BRANCH   2  20
ATOM     20  C   UNL     1      32.930 -12.214 -22.027  0.00  0.00    +0.094 C 
BRANCH  20  22
ATOM     21  N   UNL     1      32.402  -8.170 -23.413  0.00  0.00    -0.307 N 
ATOM     22  C   UNL     1      32.557 -11.013 -22.892  0.00  0.00    +0.023 C 
ATOM     23  C   UNL     1      33.799 -10.191 -23.251  0.00  0.00    +0.023 C 
ATOM     24  C   UNL     1      31.541 -10.117 -22.177  0.00  0.00    +0.023 C 
ATOM     25  C   UNL     1      33.437  -8.965 -24.087  0.00  0.00    +0.091 C 
ATOM     26  C   UNL     1      31.187  -8.887 -23.012  0.00  0.00    +0.091 C 
BRANCH  21  28
ATOM     27  N   UNL     1      32.168  -4.068 -24.381  0.00  0.00    -0.242 NA
ATOM     28  C   UNL     1      32.324  -6.809 -23.734  0.00  0.00    +0.051 C 
ATOM     29  C   UNL     1      31.267  -6.014 -23.266  0.00  0.00    +0.035 C 
ATOM     30  C   UNL     1      33.301  -6.198 -24.535  0.00  0.00    +0.035 C 
ATOM     31  C   UNL     1      31.236  -4.672 -23.611  0.00  0.00    +0.100 C 
ATOM     32  C   UNL     1      33.179  -4.849 -24.825  0.00  0.00    +0.100 C 
ENDBRANCH  21  28
ENDBRANCH  20  22
ENDBRANCH   2  20
TORSDOF 6
ENDMDL
MODEL 5
REMARK VINA RESULT:      -9.6      4.161     11.458
REMARK  Name = 446345
REMARK  6 active torsions:
REMARK  status: ('A' for Active; 'I' for Inactive)
REMARK    1  A    between atoms: N_2  and  C_20
REMARK    2  A    between atoms: N_3  and  S_8
REMARK    3  A    between atoms: S_8  and  C_11
REMARK    4  A    between atoms: C_12  and  C_14
REMARK    5  A    between atoms: C_20  and  C_22
REMARK    6  A    between atoms: N_21  and  C_28
REMARK                            x       y       z     vdW  Elec       q    Type
REMARK                         _______ _______ _______ _____ _____    ______ ____
ROOT
ATOM      1  O   UNL     1      32.026 -20.907 -19.792  0.00  0.00    -0.273 OA
ATOM      2  N   UNL     1      33.975 -21.939 -19.075  0.00  0.00    -0.277 N 
ATOM      3  N   UNL     1      35.468 -20.107 -20.574  0.00  0.00    -0.144 NA
ATOM      4  C   UNL     1      35.433 -21.941 -19.018  0.00  0.00    +0.113 C 
ATOM      5  C   UNL     1      36.065 -21.431 -20.296  0.00  0.00    +0.118 C 
ATOM      6  C   UNL     1      33.253 -21.029 -19.844  0.00  0.00    +0.244 C 
ATOM      7  C   UNL     1      34.022 -20.213 -20.852  0.00  0.00    +0.181 C 
ENDROOT
BRANCH   3   8
ATOM      8  S   UNL     1      36.354 -19.097 -21.635  0.00  0.00    +0.065 S 
ATOM      9  O   UNL     1      36.217 -19.637 -22.977  0.00  0.00    -0.153 OA
ATOM     10  O   UNL     1      37.675 -18.902 -21.066  0.00  0.00    -0.153 OA
BRANCH   8  11
ATOM     11  C   UNL     1      35.516 -17.582 -21.579  0.00  0.00    +0.141 C 
ATOM     12  C   UNL     1      35.480 -16.862 -22.707  0.00  0.00    +0.021 C 
BRANCH  12  14
ATOM     13 CL   UNL     1      32.759 -11.585 -23.283  0.00  0.00    -0.082 Cl
ATOM     14  C   UNL     1      34.809 -15.559 -22.849  0.00  0.00    +0.001 C 
ATOM     15  C   UNL     1      34.865 -14.648 -21.806  0.00  0.00    +0.001 C 
ATOM     16  C   UNL     1      34.132 -15.268 -24.023  0.00  0.00    +0.001 C 
ATOM     17  C   UNL     1      34.229 -13.414 -21.941  0.00  0.00    +0.011 C 
ATOM     18  C   UNL     1      33.496 -14.034 -24.158  0.00  0.00    +0.011 C 
ATOM     19  C   UNL     1      33.544 -13.107 -23.116  0.00  0.00    +0.058 C 
ENDBRANCH  12  14
ENDBRANCH   8  11
ENDBRANCH   3   8
BRANCH   2  20
ATOM     20  C   UNL     1      33.291 -22.783 -18.106  0.00  0.00    +0.094 C 
BRANCH  20  22
ATOM     21  N   UNL     1      35.550 -23.690 -14.552  0.00  0.00    -0.307 N 
ATOM     22  C   UNL     1      34.275 -23.436 -17.139  0.00  0.00    +0.023 C 
ATOM     23  C   UNL     1      33.540 -24.034 -15.934  0.00  0.00    +0.023 C 
ATOM     24  C   UNL     1      35.316 -22.424 -16.651  0.00  0.00    +0.023 C 
ATOM     25  C   UNL     1      34.515 -24.659 -14.938  0.00  0.00    +0.091 C 
ATOM     26  C   UNL     1      36.285 -23.051 -15.648  0.00  0.00    +0.091 C 
BRANCH  21  28
ATOM     27  N   UNL     1      37.454 -24.262 -10.829  0.00  0.00    -0.242 NA
ATOM     28  C   UNL     1      36.182 -23.880 -13.317  0.00  0.00    +0.051 C 
ATOM     29  C   UNL     1      37.578 -23.799 -13.198  0.00  0.00    +0.035 C 
ATOM     30  C   UNL     1      35.439 -24.158 -12.159  0.00  0.00    +0.035 C 
ATOM     31  C   UNL     1      38.155 -23.995 -11.954  0.00  0.00    +0.100 C 
ATOM     32  C   UNL     1      36.110 -24.338 -10.961  0.00  0.00    +0.100 C 
ENDBRANCH  21  28
ENDBRANCH  20  22
ENDBRANCH   2  20
TORSDOF 6
ENDMDL
MODEL 6
REMARK VINA RESULT:      -9.6      4.709     10.941
REMARK  Name = 446345
REMARK  6 active torsions:
REMARK  status: ('A' for Active; 'I' for Inactive)
REMARK    1  A    between atoms: N_2  and  C_20
REMARK    2  A    between atoms: N_3  and  S_8
REMARK    3  A    between atoms: S_8  and  C_11
REMARK    4  A    between atoms: C_12  and  C_14
REMARK    5  A    between atoms: C_20  and  C_22
REMARK    6  A    between atoms: N_21  and  C_28
REMARK                            x       y       z     vdW  Elec       q    Type
REMARK                         _______ _______ _______ _____ _____    ______ ____
ROOT
ATOM      1  O   UNL     1      35.724 -17.250 -20.667  0.00  0.00    -0.273 OA
ATOM      2  N   UNL     1      35.641 -19.122 -22.032  0.00  0.00    -0.277 N 
ATOM      3  N   UNL     1      34.705 -17.524 -24.129  0.00  0.00    -0.144 NA
ATOM      4  C   UNL     1      35.434 -19.684 -23.363  0.00  0.00    +0.113 C 
ATOM      5  C   UNL     1      34.352 -18.960 -24.136  0.00  0.00    +0.118 C 
ATOM      6  C   UNL     1      35.413 -17.781 -21.737  0.00  0.00    +0.244 C 
ATOM      7  C   UNL     1      34.668 -16.964 -22.764  0.00  0.00    +0.181 C 
ENDROOT
BRANCH   3   8
ATOM      8  S   UNL     1      33.964 -16.567 -25.340  0.00  0.00    +0.065 S 
ATOM      9  O   UNL     1      32.886 -17.348 -25.923  0.00  0.00    -0.153 OA
ATOM     10  O   UNL     1      35.012 -16.035 -26.192  0.00  0.00    -0.153 OA
BRANCH   8  11
ATOM     11  C   UNL     1      33.259 -15.248 -24.468  0.00  0.00    +0.141 C 
ATOM     12  C   UNL     1      33.877 -14.063 -24.548  0.00  0.00    +0.021 C 
BRANCH  12  14
ATOM     13 CL   UNL     1      32.027  -9.072 -21.854  0.00  0.00    -0.082 Cl
ATOM     14  C   UNL     1      33.420 -12.831 -23.883  0.00  0.00    +0.001 C 
ATOM     15  C   UNL     1      33.789 -11.601 -24.404  0.00  0.00    +0.001 C 
ATOM     16  C   UNL     1      32.629 -12.924 -22.748  0.00  0.00    +0.001 C 
ATOM     17  C   UNL     1      33.357 -10.434 -23.774  0.00  0.00    +0.011 C 
ATOM     18  C   UNL     1      32.197 -11.757 -22.119  0.00  0.00    +0.011 C 
ATOM     19  C   UNL     1      32.561 -10.511 -22.632  0.00  0.00    +0.058 C 
ENDBRANCH  12  14
ENDBRANCH   8  11
ENDBRANCH   3   8
BRANCH   2  20
ATOM     20  C   UNL     1      36.325 -19.977 -21.072  0.00  0.00    +0.094 C 
BRANCH  20  22
ATOM     21  N   UNL     1      33.716 -22.211 -18.472  0.00  0.00    -0.307 N 
ATOM     22  C   UNL     1      35.400 -21.062 -20.528  0.00  0.00    +0.023 C 
ATOM     23  C   UNL     1      34.015 -20.489 -20.208  0.00  0.00    +0.023 C 
ATOM     24  C   UNL     1      35.990 -21.705 -19.269  0.00  0.00    +0.023 C 
ATOM     25  C   UNL     1      33.088 -21.555 -19.628  0.00  0.00    +0.091 C 
ATOM     26  C   UNL     1      35.056 -22.766 -18.687  0.00  0.00    +0.091 C 
BRANCH  21  28
ATOM     27  N   UNL     1      31.160 -23.995 -15.626  0.00  0.00    -0.242 NA
ATOM     28  C   UNL     1      32.867 -22.803 -17.528  0.00  0.00    +0.051 C 
ATOM     29  C   UNL     1      31.479 -22.610 -17.582  0.00  0.00    +0.035 C 
ATOM     30  C   UNL     1      33.381 -23.606 -16.498  0.00  0.00    +0.035 C 
ATOM     31  C   UNL     1      30.682 -23.218 -16.625  0.00  0.00    +0.100 C 
ATOM     32  C   UNL     1      32.501 -24.169 -15.589  0.00  0.00    +0.100 C 
ENDBRANCH  21  28
ENDBRANCH  20  22
ENDBRANCH   2  20
TORSDOF 6
ENDMDL
MODEL 7
REMARK VINA RESULT:      -9.5      7.510     14.043
REMARK  Name = 446345
REMARK  6 active torsions:
REMARK  status: ('A' for Active; 'I' for Inactive)
REMARK    1  A    between atoms: N_2  and  C_20
REMARK    2  A    between atoms: N_3  and  S_8
REMARK    3  A    between atoms: S_8  and  C_11
REMARK    4  A    between atoms: C_12  and  C_14
REMARK    5  A    between atoms: C_20  and  C_22
REMARK    6  A    between atoms: N_21  and  C_28
REMARK                            x       y       z     vdW  Elec       q    Type
REMARK                         _______ _______ _______ _____ _____    ______ ____
ROOT
ATOM      1  O   UNL     1      34.589 -11.605 -25.427  0.00  0.00    -0.273 OA
ATOM      2  N   UNL     1      33.147 -12.459 -23.824  0.00  0.00    -0.277 N 
ATOM      3  N   UNL     1      32.772  -9.874 -22.819  0.00  0.00    -0.144 NA
ATOM      4  C   UNL     1      32.194 -12.208 -22.748  0.00  0.00    +0.113 C 
ATOM      5  C   UNL     1      32.579 -11.016 -21.898  0.00  0.00    +0.118 C 
ATOM      6  C   UNL     1      33.894 -11.445 -24.420  0.00  0.00    +0.244 C 
ATOM      7  C   UNL     1      33.908 -10.103 -23.732  0.00  0.00    +0.181 C 
ENDROOT
BRANCH   3   8
ATOM      8  S   UNL     1      32.696  -8.320 -22.106  0.00  0.00    +0.065 S 
ATOM      9  O   UNL     1      33.414  -8.376 -20.844  0.00  0.00    -0.153 OA
ATOM     10  O   UNL     1      31.311  -7.885 -22.131  0.00  0.00    -0.153 OA
BRANCH   8  11
ATOM     11  C   UNL     1      33.595  -7.311 -23.190  0.00  0.00    +0.141 C 
ATOM     12  C   UNL     1      32.896  -6.470 -23.962  0.00  0.00    +0.021 C 
BRANCH  12  14
ATOM     13 CL   UNL     1      35.292  -2.679 -27.897  0.00  0.00    -0.082 Cl
ATOM     14  C   UNL     1      33.488  -5.534 -24.933  0.00  0.00    +0.001 C 
ATOM     15  C   UNL     1      32.788  -4.392 -25.289  0.00  0.00    +0.001 C 
ATOM     16  C   UNL     1      34.733  -5.813 -25.474  0.00  0.00    +0.001 C 
ATOM     17  C   UNL     1      33.348  -3.505 -26.209  0.00  0.00    +0.011 C 
ATOM     18  C   UNL     1      35.293  -4.927 -26.394  0.00  0.00    +0.011 C 
ATOM     19  C   UNL     1      34.600  -3.772 -26.761  0.00  0.00    +0.058 C 
ENDBRANCH  12  14
ENDBRANCH   8  11
ENDBRANCH   3   8
BRANCH   2  20
ATOM     20  C   UNL     1      33.115 -13.789 -24.416  0.00  0.00    +0.094 C 
BRANCH  20  22
ATOM     21  N   UNL     1      34.985 -17.088 -22.371  0.00  0.00    -0.307 N 
ATOM     22  C   UNL     1      34.169 -14.703 -23.796  0.00  0.00    +0.023 C 
ATOM     23  C   UNL     1      34.152 -16.084 -24.461  0.00  0.00    +0.023 C 
ATOM     24  C   UNL     1      33.941 -14.859 -22.290  0.00  0.00    +0.023 C 
ATOM     25  C   UNL     1      35.177 -17.023 -23.827  0.00  0.00    +0.091 C 
ATOM     26  C   UNL     1      34.963 -15.806 -21.660  0.00  0.00    +0.091 C 
BRANCH  21  28
ATOM     27  N   UNL     1      36.366 -20.545 -20.382  0.00  0.00    -0.242 NA
ATOM     28  C   UNL     1      35.444 -18.235 -21.711  0.00  0.00    +0.051 C 
ATOM     29  C   UNL     1      36.806 -18.408 -21.423  0.00  0.00    +0.035 C 
ATOM     30  C   UNL     1      34.554 -19.247 -21.319  0.00  0.00    +0.035 C 
ATOM     31  C   UNL     1      37.209 -19.560 -20.768  0.00  0.00    +0.100 C 
ATOM     32  C   UNL     1      35.057 -20.362 -20.669  0.00  0.00    +0.100 C 
ENDBRANCH  21  28
ENDBRANCH  20  22
ENDBRANCH   2  20
TORSDOF 6
ENDMDL
MODEL 8
REMARK VINA RESULT:      -9.4      1.201      1.836
REMARK  Name = 446345
REMARK  6 active torsions:
REMARK  status: ('A' for Active; 'I' for Inactive)
REMARK    1  A    between atoms: N_2  and  C_20
REMARK    2  A    between atoms: N_3  and  S_8
REMARK    3  A    between atoms: S_8  and  C_11
REMARK    4  A    between atoms: C_12  and  C_14
REMARK    5  A    between atoms: C_20  and  C_22
REMARK    6  A    between atoms: N_21  and  C_28
REMARK                            x       y       z     vdW  Elec       q    Type
REMARK                         _______ _______ _______ _____ _____    ______ ____
ROOT
ATOM      1  O   UNL     1      33.630 -19.436 -22.581  0.00  0.00    -0.273 OA
ATOM      2  N   UNL     1      35.674 -19.771 -21.540  0.00  0.00    -0.277 N 
ATOM      3  N   UNL     1      34.505 -21.737 -19.927  0.00  0.00    -0.144 NA
ATOM      4  C   UNL     1      36.483 -20.550 -20.608  0.00  0.00    +0.113 C 
ATOM      5  C   UNL     1      35.692 -21.023 -19.408  0.00  0.00    +0.118 C 
ATOM      6  C   UNL     1      34.306 -19.971 -21.697  0.00  0.00    +0.244 C 
ATOM      7  C   UNL     1      33.609 -20.828 -20.669  0.00  0.00    +0.181 C 
ENDROOT
BRANCH   3   8
ATOM      8  S   UNL     1      33.735 -22.801 -18.831  0.00  0.00    +0.065 S 
ATOM      9  O   UNL     1      33.810 -24.141 -19.387  0.00  0.00    -0.153 OA
ATOM     10  O   UNL     1      32.443 -22.232 -18.489  0.00  0.00    -0.153 OA
BRANCH   8  11
ATOM     11  C   UNL     1      34.734 -22.751 -17.416  0.00  0.00    +0.141 C 
ATOM     12  C   UNL     1      34.345 -23.487 -16.368  0.00  0.00    +0.021 C 
BRANCH  12  14
ATOM     13 CL   UNL     1      37.286 -23.847 -11.190  0.00  0.00    -0.082 Cl
ATOM     14  C   UNL     1      35.071 -23.575 -15.089  0.00  0.00    +0.001 C 
ATOM     15  C   UNL     1      36.368 -23.094 -15.010  0.00  0.00    +0.001 C 
ATOM     16  C   UNL     1      34.444 -24.139 -13.989  0.00  0.00    +0.001 C 
ATOM     17  C   UNL     1      37.056 -23.178 -13.799  0.00  0.00    +0.011 C 
ATOM     18  C   UNL     1      35.131 -24.223 -12.779  0.00  0.00    +0.011 C 
ATOM     19  C   UNL     1      36.438 -23.742 -12.684  0.00  0.00    +0.058 C 
ENDBRANCH  12  14
ENDBRANCH   8  11
ENDBRANCH   3   8
BRANCH   2  20
ATOM     20  C   UNL     1      36.404 -18.929 -22.477  0.00  0.00    +0.094 C 
BRANCH  20  22
ATOM     21  N   UNL     1      34.258 -15.220 -22.029  0.00  0.00    -0.307 N 
ATOM     22  C   UNL     1      36.089 -17.450 -22.264  0.00  0.00    +0.023 C 
ATOM     23  C   UNL     1      35.218 -17.252 -21.019  0.00  0.00    +0.023 C 
ATOM     24  C   UNL     1      35.378 -16.860 -23.485  0.00  0.00    +0.023 C 
ATOM     25  C   UNL     1      34.864 -15.780 -20.813  0.00  0.00    +0.091 C 
ATOM     26  C   UNL     1      35.018 -15.390 -23.272  0.00  0.00    +0.091 C 
BRANCH  21  28
ATOM     27  N   UNL     1      31.738 -11.865 -21.578  0.00  0.00    -0.242 NA
ATOM     28  C   UNL     1      33.422 -14.107 -21.879  0.00  0.00    +0.051 C 
ATOM     29  C   UNL     1      32.681 -13.912 -20.704  0.00  0.00    +0.035 C 
ATOM     30  C   UNL     1      33.298 -13.153 -22.900  0.00  0.00    +0.035 C 
ATOM     31  C   UNL     1      31.868 -12.794 -20.604  0.00  0.00    +0.100 C 
ATOM     32  C   UNL     1      32.458 -12.069 -22.704  0.00  0.00    +0.100 C 
ENDBRANCH  21  28
ENDBRANCH  20  22
ENDBRANCH   2  20
TORSDOF 6
ENDMDL
MODEL 9
REMARK VINA RESULT:      -9.3      7.127     13.182
REMARK  Name = 446345
REMARK  6 active torsions:
REMARK  status: ('A' for Active; 'I' for Inactive)
REMARK    1  A    between atoms: N_2  and  C_20
REMARK    2  A    between atoms: N_3  and  S_8
REMARK    3  A    between atoms: S_8  and  C_11
REMARK    4  A    between atoms: C_12  and  C_14
REMARK    5  A    between atoms: C_20  and  C_22
REMARK    6  A    between atoms: N_21  and  C_28
REMARK                            x       y       z     vdW  Elec       q    Type
REMARK                         _______ _______ _______ _____ _____    ______ ____
ROOT
ATOM      1  O   UNL     1      34.309 -11.909 -25.401  0.00  0.00    -0.273 OA
ATOM      2  N   UNL     1      33.310 -13.492 -24.033  0.00  0.00    -0.277 N 
ATOM      3  N   UNL     1      32.183 -11.432 -22.511  0.00  0.00    -0.144 NA
ATOM      4  C   UNL     1      32.389 -13.789 -22.941  0.00  0.00    +0.113 C 
ATOM      5  C   UNL     1      32.418 -12.736 -21.854  0.00  0.00    +0.118 C 
ATOM      6  C   UNL     1      33.657 -12.192 -24.392  0.00  0.00    +0.244 C 
ATOM      7  C   UNL     1      33.279 -11.087 -23.437  0.00  0.00    +0.181 C 
ENDROOT
BRANCH   3   8
ATOM      8  S   UNL     1      31.653 -10.166 -21.489  0.00  0.00    +0.065 S 
ATOM      9  O   UNL     1      32.712  -9.898 -20.530  0.00  0.00    -0.153 OA
ATOM     10  O   UNL     1      30.320 -10.500 -21.019  0.00  0.00    -0.153 OA
BRANCH   8  11
ATOM     11  C   UNL     1      31.523  -8.795 -22.540  0.00  0.00    +0.141 C 
ATOM     12  C   UNL     1      31.999  -7.630 -22.086  0.00  0.00    +0.021 C 
BRANCH  12  14
ATOM     13 CL   UNL     1      31.939  -2.507 -25.142  0.00  0.00    -0.082 Cl
ATOM     14  C   UNL     1      31.983  -6.365 -22.840  0.00  0.00    +0.001 C 
ATOM     15  C   UNL     1      32.437  -6.350 -24.150  0.00  0.00    +0.001 C 
ATOM     16  C   UNL     1      31.517  -5.213 -22.227  0.00  0.00    +0.001 C 
ATOM     17  C   UNL     1      32.423  -5.152 -24.865  0.00  0.00    +0.011 C 
ATOM     18  C   UNL     1      31.503  -4.016 -22.942  0.00  0.00    +0.011 C 
ATOM     19  C   UNL     1      31.956  -3.985 -24.261  0.00  0.00    +0.058 C 
ENDBRANCH  12  14
ENDBRANCH   8  11
ENDBRANCH   3   8
BRANCH   2  20
ATOM     20  C   UNL     1      33.673 -14.610 -24.892  0.00  0.00    +0.094 C 
BRANCH  20  22
ATOM     21  N   UNL     1      35.138 -17.797 -22.390  0.00  0.00    -0.307 N 
ATOM     22  C   UNL     1      34.609 -15.583 -24.180  0.00  0.00    +0.023 C 
ATOM     23  C   UNL     1      34.296 -17.030 -24.575  0.00  0.00    +0.023 C 
ATOM     24  C   UNL     1      34.500 -15.434 -22.659  0.00  0.00    +0.023 C 
ATOM     25  C   UNL     1      35.201 -18.018 -23.841  0.00  0.00    +0.091 C 
ATOM     26  C   UNL     1      35.400 -16.430 -21.928  0.00  0.00    +0.091 C 
BRANCH  21  28
ATOM     27  N   UNL     1      36.094 -21.055 -19.884  0.00  0.00    -0.242 NA
ATOM     28  C   UNL     1      35.455 -18.878 -21.558  0.00  0.00    +0.051 C 
ATOM     29  C   UNL     1      34.478 -19.812 -21.182  0.00  0.00    +0.035 C 
ATOM     30  C   UNL     1      36.759 -19.060 -21.075  0.00  0.00    +0.035 C 
ATOM     31  C   UNL     1      34.842 -20.865 -20.358  0.00  0.00    +0.100 C 
ATOM     32  C   UNL     1      37.022 -20.145 -20.255  0.00  0.00    +0.100 C 
ENDBRANCH  21  28
ENDBRANCH  20  22
ENDBRANCH   2  20
TORSDOF 6
ENDMDL
