MODEL 1
REMARK VINA RESULT:     -11.4      0.000      0.000
REMARK  Name = 447734
REMARK  5 active torsions:
REMARK  status: ('A' for Active; 'I' for Inactive)
REMARK    1  A    between atoms: C_3  and  C_19
REMARK    2  A    between atoms: C_9  and  C_13
REMARK    3  A    between atoms: N_18  and  C_24
REMARK    4  A    between atoms: C_21  and  O_27
REMARK    5  A    between atoms: O_27  and  C_28
REMARK                            x       y       z     vdW  Elec       q    Type
REMARK                         _______ _______ _______ _____ _____    ______ ____
ROOT
ATOM      1  C   UNL     1      35.233 -20.496 -20.558  0.00  0.00    +0.000 C 
ATOM      2  C   UNL     1      34.018 -20.086 -21.158  0.00  0.00    +0.000 C 
ATOM      3  C   UNL     1      33.999 -22.049 -19.150  0.00  0.00    +0.054 C 
ATOM      4  C   UNL     1      35.206 -21.478 -19.555  0.00  0.00    +0.005 C 
ATOM      5  C   UNL     1      32.813 -20.671 -20.738  0.00  0.00    +0.000 C 
ATOM      6  C   UNL     1      32.805 -21.646 -19.740  0.00  0.00    +0.005 C 
ATOM      7  C   UNL     1      34.046 -19.103 -22.162  0.00  0.00    +0.003 C 
ATOM      8  C   UNL     1      36.438 -19.910 -20.978  0.00  0.00    +0.000 C 
ATOM      9  C   UNL     1      35.252 -18.533 -22.567  0.00  0.00    +0.031 C 
ATOM     10  C   UNL     1      36.447 -18.936 -21.977  0.00  0.00    +0.003 C 
ENDROOT
BRANCH   9  13
ATOM     11  N   UNL     1      34.705 -17.757 -24.862  0.00  0.00    -0.343 N 
ATOM     12  N   UNL     1      35.815 -16.340 -23.372  0.00  0.00    -0.285 NA
ATOM     13  C   UNL     1      35.263 -17.516 -23.607  0.00  0.00    +0.117 C 
ATOM     14  H   UNL     1      34.723 -17.054 -25.551  0.00  0.00    +0.144 HD
ATOM     15  H   UNL     1      34.292 -18.629 -25.058  0.00  0.00    +0.144 HD
ATOM     16  H   UNL     1      35.823 -15.650 -24.074  0.00  0.00    +0.188 HD
ENDBRANCH   9  13
BRANCH   3  19
ATOM     17  O   UNL     1      33.865 -24.258 -18.432  0.00  0.00    -0.270 OA
ATOM     18  N   UNL     1      34.146 -22.598 -16.797  0.00  0.00    -0.280 N 
ATOM     19  C   UNL     1      33.988 -23.065 -18.109  0.00  0.00    +0.249 C 
ATOM     20  H   UNL     1      34.231 -21.623 -16.697  0.00  0.00    +0.155 HD
BRANCH  18  24
ATOM     21  C   UNL     1      35.479 -24.342 -13.829  0.00  0.00    +0.140 C 
ATOM     22  C   UNL     1      35.427 -23.604 -15.011  0.00  0.00    +0.052 C 
ATOM     23  C   UNL     1      34.301 -24.812 -13.249  0.00  0.00    +0.037 C 
ATOM     24  C   UNL     1      34.198 -23.347 -15.595  0.00  0.00    +0.054 C 
ATOM     25  C   UNL     1      33.071 -24.545 -13.851  0.00  0.00    +0.004 C 
ATOM     26  C   UNL     1      33.020 -23.806 -15.033  0.00  0.00    +0.015 C 
BRANCH  21  27
ATOM     27  O   UNL     1      36.678 -24.604 -13.242  0.00  0.00    -0.479 OA
BRANCH  27  28
ATOM     28  C   UNL     1      37.033 -25.971 -13.077  0.00  0.00    +0.166 C 
ATOM     29  C   UNL     1      38.399 -26.062 -12.415  0.00  0.00    +0.044 C 
ATOM     30  C   UNL     1      37.263 -26.625 -14.431  0.00  0.00    +0.044 C 
ATOM     31  C   UNL     1      39.393 -25.816 -13.551  0.00  0.00    +0.004 C 
ATOM     32  C   UNL     1      38.653 -26.148 -14.846  0.00  0.00    +0.004 C 
ENDBRANCH  27  28
ENDBRANCH  21  27
ENDBRANCH  18  24
ENDBRANCH   3  19
TORSDOF 5
ENDMDL
MODEL 2
REMARK VINA RESULT:     -11.2      1.216      1.853
REMARK  Name = 447734
REMARK  5 active torsions:
REMARK  status: ('A' for Active; 'I' for Inactive)
REMARK    1  A    between atoms: C_3  and  C_19
REMARK    2  A    between atoms: C_9  and  C_13
REMARK    3  A    between atoms: N_18  and  C_24
REMARK    4  A    between atoms: C_21  and  O_27
REMARK    5  A    between atoms: O_27  and  C_28
REMARK                            x       y       z     vdW  Elec       q    Type
REMARK                         _______ _______ _______ _____ _____    ______ ____
ROOT
ATOM      1  C   UNL     1      35.139 -20.476 -20.502  0.00  0.00    +0.000 C 
ATOM      2  C   UNL     1      33.926 -20.121 -21.138  0.00  0.00    +0.000 C 
ATOM      3  C   UNL     1      33.908 -21.939 -18.998  0.00  0.00    +0.054 C 
ATOM      4  C   UNL     1      35.113 -21.387 -19.433  0.00  0.00    +0.005 C 
ATOM      5  C   UNL     1      32.722 -20.686 -20.687  0.00  0.00    +0.000 C 
ATOM      6  C   UNL     1      32.715 -21.589 -19.624  0.00  0.00    +0.005 C 
ATOM      7  C   UNL     1      33.953 -19.210 -22.208  0.00  0.00    +0.003 C 
ATOM      8  C   UNL     1      36.343 -19.911 -20.954  0.00  0.00    +0.000 C 
ATOM      9  C   UNL     1      35.158 -18.658 -22.644  0.00  0.00    +0.031 C 
ATOM     10  C   UNL     1      36.351 -19.008 -22.018  0.00  0.00    +0.003 C 
ENDROOT
BRANCH   9  13
ATOM     11  N   UNL     1      34.602 -18.041 -24.984  0.00  0.00    -0.343 N 
ATOM     12  N   UNL     1      35.727 -16.529 -23.602  0.00  0.00    -0.285 NA
ATOM     13  C   UNL     1      35.168 -17.717 -23.752  0.00  0.00    +0.117 C 
ATOM     14  H   UNL     1      34.620 -17.388 -25.721  0.00  0.00    +0.144 HD
ATOM     15  H   UNL     1      34.184 -18.923 -25.117  0.00  0.00    +0.144 HD
ATOM     16  H   UNL     1      35.735 -15.890 -24.350  0.00  0.00    +0.188 HD
ENDBRANCH   9  13
BRANCH   3  19
ATOM     17  O   UNL     1      34.877 -23.624 -17.720  0.00  0.00    -0.270 OA
ATOM     18  N   UNL     1      32.760 -22.847 -17.070  0.00  0.00    -0.280 N 
ATOM     19  C   UNL     1      33.897 -22.880 -17.889  0.00  0.00    +0.249 C 
ATOM     20  H   UNL     1      32.063 -22.203 -17.331  0.00  0.00    +0.155 HD
BRANCH  18  24
ATOM     21  C   UNL     1      33.193 -24.539 -13.819  0.00  0.00    +0.140 C 
ATOM     22  C   UNL     1      33.466 -23.777 -14.954  0.00  0.00    +0.052 C 
ATOM     23  C   UNL     1      31.941 -25.134 -13.663  0.00  0.00    +0.037 C 
ATOM     24  C   UNL     1      32.483 -23.621 -15.917  0.00  0.00    +0.054 C 
ATOM     25  C   UNL     1      30.963 -24.968 -14.643  0.00  0.00    +0.004 C 
ATOM     26  C   UNL     1      31.235 -24.205 -15.778  0.00  0.00    +0.015 C 
BRANCH  21  27
ATOM     27  O   UNL     1      34.147 -24.703 -12.863  0.00  0.00    -0.479 OA
BRANCH  27  28
ATOM     28  C   UNL     1      35.420 -24.119 -13.113  0.00  0.00    +0.166 C 
ATOM     29  C   UNL     1      36.397 -25.203 -13.544  0.00  0.00    +0.044 C 
ATOM     30  C   UNL     1      36.029 -23.603 -11.819  0.00  0.00    +0.044 C 
ATOM     31  C   UNL     1      36.827 -25.873 -12.239  0.00  0.00    +0.004 C 
ATOM     32  C   UNL     1      36.561 -24.857 -11.128  0.00  0.00    +0.004 C 
ENDBRANCH  27  28
ENDBRANCH  21  27
ENDBRANCH  18  24
ENDBRANCH   3  19
TORSDOF 5
ENDMDL
MODEL 3
REMARK VINA RESULT:     -11.0      8.119     12.523
REMARK  Name = 447734
REMARK  5 active torsions:
REMARK  status: ('A' for Active; 'I' for Inactive)
REMARK    1  A    between atoms: C_3  and  C_19
REMARK    2  A    between atoms: C_9  and  C_13
REMARK    3  A    between atoms: N_18  and  C_24
REMARK    4  A    between atoms: C_21  and  O_27
REMARK    5  A    between atoms: O_27  and  C_28
REMARK                            x       y       z     vdW  Elec       q    Type
REMARK                         _______ _______ _______ _____ _____    ______ ____
ROOT
ATOM      1  C   UNL     1      33.086  -8.311 -23.587  0.00  0.00    +0.000 C 
ATOM      2  C   UNL     1      32.051  -8.407 -22.626  0.00  0.00    +0.000 C 
ATOM      3  C   UNL     1      33.217 -10.739 -23.671  0.00  0.00    +0.054 C 
ATOM      4  C   UNL     1      33.658  -9.487 -24.099  0.00  0.00    +0.005 C 
ATOM      5  C   UNL     1      31.619  -9.675 -22.206  0.00  0.00    +0.000 C 
ATOM      6  C   UNL     1      32.199 -10.833 -22.726  0.00  0.00    +0.005 C 
ATOM      7  C   UNL     1      31.478  -7.231 -22.114  0.00  0.00    +0.003 C 
ATOM      8  C   UNL     1      33.517  -7.043 -24.008  0.00  0.00    +0.000 C 
ATOM      9  C   UNL     1      31.919  -5.979 -22.544  0.00  0.00    +0.031 C 
ATOM     10  C   UNL     1      32.937  -5.885 -23.489  0.00  0.00    +0.003 C 
ENDROOT
BRANCH   9  13
ATOM     11  N   UNL     1      31.601  -3.516 -22.539  0.00  0.00    -0.343 N 
ATOM     12  N   UNL     1      30.484  -4.852 -20.981  0.00  0.00    -0.285 NA
ATOM     13  C   UNL     1      31.316  -4.771 -22.003  0.00  0.00    +0.117 C 
ATOM     14  H   UNL     1      31.181  -2.711 -22.158  0.00  0.00    +0.144 HD
ATOM     15  H   UNL     1      32.222  -3.435 -23.300  0.00  0.00    +0.144 HD
ATOM     16  H   UNL     1      30.073  -4.035 -20.614  0.00  0.00    +0.188 HD
ENDBRANCH   9  13
BRANCH   3  19
ATOM     17  O   UNL     1      34.702 -11.845 -25.079  0.00  0.00    -0.270 OA
ATOM     18  N   UNL     1      33.359 -13.155 -23.670  0.00  0.00    -0.280 N 
ATOM     19  C   UNL     1      33.821 -11.947 -24.210  0.00  0.00    +0.249 C 
ATOM     20  H   UNL     1      32.654 -13.077 -22.988  0.00  0.00    +0.155 HD
BRANCH  18  24
ATOM     21  C   UNL     1      34.949 -16.472 -23.365  0.00  0.00    +0.140 C 
ATOM     22  C   UNL     1      34.539 -15.175 -23.061  0.00  0.00    +0.052 C 
ATOM     23  C   UNL     1      34.587 -17.050 -24.582  0.00  0.00    +0.037 C 
ATOM     24  C   UNL     1      33.774 -14.474 -23.978  0.00  0.00    +0.054 C 
ATOM     25  C   UNL     1      33.817 -16.330 -25.495  0.00  0.00    +0.004 C 
ATOM     26  C   UNL     1      33.407 -15.033 -25.191  0.00  0.00    +0.015 C 
BRANCH  21  27
ATOM     27  O   UNL     1      35.701 -17.175 -22.475  0.00  0.00    -0.479 OA
BRANCH  27  28
ATOM     28  C   UNL     1      36.095 -18.488 -22.856  0.00  0.00    +0.166 C 
ATOM     29  C   UNL     1      34.979 -19.467 -22.524  0.00  0.00    +0.044 C 
ATOM     30  C   UNL     1      37.245 -18.969 -21.985  0.00  0.00    +0.044 C 
ATOM     31  C   UNL     1      35.131 -19.726 -21.025  0.00  0.00    +0.004 C 
ATOM     32  C   UNL     1      36.577 -19.377 -20.674  0.00  0.00    +0.004 C 
ENDBRANCH  27  28
ENDBRANCH  21  27
ENDBRANCH  18  24
ENDBRANCH   3  19
TORSDOF 5
ENDMDL
MODEL 4
REMARK VINA RESULT:     -11.0      3.444     11.010
REMARK  Name = 447734
REMARK  5 active torsions:
REMARK  status: ('A' for Active; 'I' for Inactive)
REMARK    1  A    between atoms: C_3  and  C_19
REMARK    2  A    between atoms: C_9  and  C_13
REMARK    3  A    between atoms: N_18  and  C_24
REMARK    4  A    between atoms: C_21  and  O_27
REMARK    5  A    between atoms: O_27  and  C_28
REMARK                            x       y       z     vdW  Elec       q    Type
REMARK                         _______ _______ _______ _____ _____    ______ ____
ROOT
ATOM      1  C   UNL     1      33.975 -22.400 -18.311  0.00  0.00    +0.000 C 
ATOM      2  C   UNL     1      35.361 -22.449 -18.029  0.00  0.00    +0.000 C 
ATOM      3  C   UNL     1      34.427 -20.967 -20.224  0.00  0.00    +0.054 C 
ATOM      4  C   UNL     1      33.525 -21.655 -19.412  0.00  0.00    +0.005 C 
ATOM      5  C   UNL     1      36.256 -21.751 -18.856  0.00  0.00    +0.000 C 
ATOM      6  C   UNL     1      35.790 -21.015 -19.946  0.00  0.00    +0.005 C 
ATOM      7  C   UNL     1      35.812 -23.195 -16.927  0.00  0.00    +0.003 C 
ATOM      8  C   UNL     1      33.081 -23.099 -17.483  0.00  0.00    +0.000 C 
ATOM      9  C   UNL     1      34.910 -23.883 -16.116  0.00  0.00    +0.031 C 
ATOM     10  C   UNL     1      33.547 -23.835 -16.393  0.00  0.00    +0.003 C 
ENDROOT
BRANCH   9  13
ATOM     11  N   UNL     1      35.544 -24.068 -13.722  0.00  0.00    -0.343 N 
ATOM     12  N   UNL     1      35.705 -25.926 -15.131  0.00  0.00    -0.285 NA
ATOM     13  C   UNL     1      35.393 -24.651 -14.979  0.00  0.00    +0.117 C 
ATOM     14  H   UNL     1      35.872 -24.607 -12.966  0.00  0.00    +0.144 HD
ATOM     15  H   UNL     1      35.320 -23.118 -13.590  0.00  0.00    +0.144 HD
ATOM     16  H   UNL     1      36.032 -26.448 -14.362  0.00  0.00    +0.188 HD
ENDBRANCH   9  13
BRANCH   3  19
ATOM     17  O   UNL     1      32.726 -20.184 -21.605  0.00  0.00    -0.270 OA
ATOM     18  N   UNL     1      34.919 -19.501 -22.086  0.00  0.00    -0.280 N 
ATOM     19  C   UNL     1      33.944 -20.198 -21.360  0.00  0.00    +0.249 C 
ATOM     20  H   UNL     1      35.845 -19.610 -21.772  0.00  0.00    +0.155 HD
BRANCH  18  24
ATOM     21  C   UNL     1      34.598 -16.459 -24.151  0.00  0.00    +0.140 C 
ATOM     22  C   UNL     1      34.771 -17.286 -23.042  0.00  0.00    +0.052 C 
ATOM     23  C   UNL     1      34.404 -17.018 -25.415  0.00  0.00    +0.037 C 
ATOM     24  C   UNL     1      34.746 -18.660 -23.213  0.00  0.00    +0.054 C 
ATOM     25  C   UNL     1      34.381 -18.404 -25.568  0.00  0.00    +0.004 C 
ATOM     26  C   UNL     1      34.553 -19.231 -24.459  0.00  0.00    +0.015 C 
BRANCH  21  27
ATOM     27  O   UNL     1      34.620 -15.107 -24.002  0.00  0.00    -0.479 OA
BRANCH  27  28
ATOM     28  C   UNL     1      33.364 -14.445 -23.910  0.00  0.00    +0.166 C 
ATOM     29  C   UNL     1      32.966 -13.924 -25.282  0.00  0.00    +0.044 C 
ATOM     30  C   UNL     1      33.494 -13.175 -23.084  0.00  0.00    +0.044 C 
ATOM     31  C   UNL     1      33.768 -12.634 -25.450  0.00  0.00    +0.004 C 
ATOM     32  C   UNL     1      34.134 -12.171 -24.040  0.00  0.00    +0.004 C 
ENDBRANCH  27  28
ENDBRANCH  21  27
ENDBRANCH  18  24
ENDBRANCH   3  19
TORSDOF 5
ENDMDL
MODEL 5
REMARK VINA RESULT:     -10.7      6.950     11.468
REMARK  Name = 447734
REMARK  5 active torsions:
REMARK  status: ('A' for Active; 'I' for Inactive)
REMARK    1  A    between atoms: C_3  and  C_19
REMARK    2  A    between atoms: C_9  and  C_13
REMARK    3  A    between atoms: N_18  and  C_24
REMARK    4  A    between atoms: C_21  and  O_27
REMARK    5  A    between atoms: O_27  and  C_28
REMARK                            x       y       z     vdW  Elec       q    Type
REMARK                         _______ _______ _______ _____ _____    ______ ____
ROOT
ATOM      1  C   UNL     1      32.574 -10.037 -22.739  0.00  0.00    +0.000 C 
ATOM      2  C   UNL     1      33.480  -9.404 -23.622  0.00  0.00    +0.000 C 
ATOM      3  C   UNL     1      33.491 -12.201 -23.368  0.00  0.00    +0.054 C 
ATOM      4  C   UNL     1      32.592 -11.437 -22.624  0.00  0.00    +0.005 C 
ATOM      5  C   UNL     1      34.378 -10.188 -24.364  0.00  0.00    +0.000 C 
ATOM      6  C   UNL     1      34.382 -11.577 -24.237  0.00  0.00    +0.005 C 
ATOM      7  C   UNL     1      33.461  -8.003 -23.737  0.00  0.00    +0.003 C 
ATOM      8  C   UNL     1      31.675  -9.252 -21.997  0.00  0.00    +0.000 C 
ATOM      9  C   UNL     1      32.563  -7.239 -22.992  0.00  0.00    +0.031 C 
ATOM     10  C   UNL     1      31.672  -7.863 -22.124  0.00  0.00    +0.003 C 
ENDROOT
BRANCH   9  13
ATOM     11  N   UNL     1      32.087  -4.973 -22.097  0.00  0.00    -0.343 N 
ATOM     12  N   UNL     1      32.998  -5.229 -24.234  0.00  0.00    -0.285 NA
ATOM     13  C   UNL     1      32.557  -5.791 -23.123  0.00  0.00    +0.117 C 
ATOM     14  H   UNL     1      32.093  -3.994 -22.207  0.00  0.00    +0.144 HD
ATOM     15  H   UNL     1      31.752  -5.373 -21.263  0.00  0.00    +0.144 HD
ATOM     16  H   UNL     1      32.995  -4.249 -24.325  0.00  0.00    +0.188 HD
ENDBRANCH   9  13
BRANCH   3  19
ATOM     17  O   UNL     1      33.061 -14.163 -22.195  0.00  0.00    -0.270 OA
ATOM     18  N   UNL     1      33.985 -14.360 -24.343  0.00  0.00    -0.280 N 
ATOM     19  C   UNL     1      33.496 -13.649 -23.239  0.00  0.00    +0.249 C 
ATOM     20  H   UNL     1      34.297 -13.814 -25.100  0.00  0.00    +0.155 HD
BRANCH  18  24
ATOM     21  C   UNL     1      35.023 -17.867 -23.843  0.00  0.00    +0.140 C 
ATOM     22  C   UNL     1      34.920 -16.487 -23.676  0.00  0.00    +0.052 C 
ATOM     23  C   UNL     1      34.291 -18.503 -24.846  0.00  0.00    +0.037 C 
ATOM     24  C   UNL     1      34.088 -15.763 -24.513  0.00  0.00    +0.054 C 
ATOM     25  C   UNL     1      33.458 -17.759 -25.681  0.00  0.00    +0.004 C 
ATOM     26  C   UNL     1      33.355 -16.379 -25.513  0.00  0.00    +0.015 C 
BRANCH  21  27
ATOM     27  O   UNL     1      35.836 -18.593 -23.030  0.00  0.00    -0.479 OA
BRANCH  27  28
ATOM     28  C   UNL     1      35.742 -18.345 -21.632  0.00  0.00    +0.166 C 
ATOM     29  C   UNL     1      36.863 -19.079 -20.912  0.00  0.00    +0.044 C 
ATOM     30  C   UNL     1      34.488 -18.989 -21.062  0.00  0.00    +0.044 C 
ATOM     31  C   UNL     1      36.371 -20.523 -20.810  0.00  0.00    +0.004 C 
ATOM     32  C   UNL     1      34.849 -20.467 -20.938  0.00  0.00    +0.004 C 
ENDBRANCH  27  28
ENDBRANCH  21  27
ENDBRANCH  18  24
ENDBRANCH   3  19
TORSDOF 5
ENDMDL
MODEL 6
REMARK VINA RESULT:     -10.6      5.377     12.384
REMARK  Name = 447734
REMARK  5 active torsions:
REMARK  status: ('A' for Active; 'I' for Inactive)
REMARK    1  A    between atoms: C_3  and  C_19
REMARK    2  A    between atoms: C_9  and  C_13
REMARK    3  A    between atoms: N_18  and  C_24
REMARK    4  A    between atoms: C_21  and  O_27
REMARK    5  A    between atoms: O_27  and  C_28
REMARK                            x       y       z     vdW  Elec       q    Type
REMARK                         _______ _______ _______ _____ _____    ______ ____
ROOT
ATOM      1  C   UNL     1      34.142 -19.848 -21.233  0.00  0.00    +0.000 C 
ATOM      2  C   UNL     1      35.437 -20.147 -20.746  0.00  0.00    +0.000 C 
ATOM      3  C   UNL     1      35.092 -18.131 -22.670  0.00  0.00    +0.054 C 
ATOM      4  C   UNL     1      33.987 -18.837 -22.195  0.00  0.00    +0.005 C 
ATOM      5  C   UNL     1      36.538 -19.425 -21.234  0.00  0.00    +0.000 C 
ATOM      6  C   UNL     1      36.365 -18.424 -22.191  0.00  0.00    +0.005 C 
ATOM      7  C   UNL     1      35.592 -21.158 -19.783  0.00  0.00    +0.003 C 
ATOM      8  C   UNL     1      33.041 -20.570 -20.744  0.00  0.00    +0.000 C 
ATOM      9  C   UNL     1      34.488 -21.866 -19.309  0.00  0.00    +0.031 C 
ATOM     10  C   UNL     1      33.214 -21.572 -19.788  0.00  0.00    +0.003 C 
ENDROOT
BRANCH   9  13
ATOM     11  N   UNL     1      35.623 -22.795 -17.306  0.00  0.00    -0.343 N 
ATOM     12  N   UNL     1      33.915 -23.996 -18.356  0.00  0.00    -0.285 NA
ATOM     13  C   UNL     1      34.666 -22.910 -18.312  0.00  0.00    +0.117 C 
ATOM     14  H   UNL     1      35.726 -23.514 -16.641  0.00  0.00    +0.144 HD
ATOM     15  H   UNL     1      36.195 -21.995 -17.259  0.00  0.00    +0.144 HD
ATOM     16  H   UNL     1      34.033 -24.704 -17.682  0.00  0.00    +0.188 HD
ENDBRANCH   9  13
BRANCH   3  19
ATOM     17  O   UNL     1      35.262 -17.304 -24.838  0.00  0.00    -0.270 OA
ATOM     18  N   UNL     1      34.325 -15.899 -23.208  0.00  0.00    -0.280 N 
ATOM     19  C   UNL     1      34.914 -17.086 -23.666  0.00  0.00    +0.249 C 
ATOM     20  H   UNL     1      34.103 -15.873 -22.250  0.00  0.00    +0.155 HD
BRANCH  18  24
ATOM     21  C   UNL     1      33.897 -12.340 -24.089  0.00  0.00    +0.140 C 
ATOM     22  C   UNL     1      34.210 -13.489 -23.364  0.00  0.00    +0.052 C 
ATOM     23  C   UNL     1      33.389 -12.449 -25.384  0.00  0.00    +0.037 C 
ATOM     24  C   UNL     1      34.009 -14.731 -23.945  0.00  0.00    +0.054 C 
ATOM     25  C   UNL     1      33.193 -13.707 -25.953  0.00  0.00    +0.004 C 
ATOM     26  C   UNL     1      33.505 -14.856 -25.228  0.00  0.00    +0.015 C 
BRANCH  21  27
ATOM     27  O   UNL     1      34.088 -11.112 -23.534  0.00  0.00    -0.479 OA
BRANCH  27  28
ATOM     28  C   UNL     1      33.405 -10.018 -24.134  0.00  0.00    +0.166 C 
ATOM     29  C   UNL     1      34.322  -8.804 -24.162  0.00  0.00    +0.044 C 
ATOM     30  C   UNL     1      32.257  -9.561 -23.249  0.00  0.00    +0.044 C 
ATOM     31  C   UNL     1      34.243  -8.233 -22.746  0.00  0.00    +0.004 C 
ATOM     32  C   UNL     1      32.932  -8.745 -22.150  0.00  0.00    +0.004 C 
ENDBRANCH  27  28
ENDBRANCH  21  27
ENDBRANCH  18  24
ENDBRANCH   3  19
TORSDOF 5
ENDMDL
MODEL 7
REMARK VINA RESULT:     -10.5      9.602     15.397
REMARK  Name = 447734
REMARK  5 active torsions:
REMARK  status: ('A' for Active; 'I' for Inactive)
REMARK    1  A    between atoms: C_3  and  C_19
REMARK    2  A    between atoms: C_9  and  C_13
REMARK    3  A    between atoms: N_18  and  C_24
REMARK    4  A    between atoms: C_21  and  O_27
REMARK    5  A    between atoms: O_27  and  C_28
REMARK                            x       y       z     vdW  Elec       q    Type
REMARK                         _______ _______ _______ _____ _____    ______ ____
ROOT
ATOM      1  C   UNL     1      34.328 -14.770 -23.715  0.00  0.00    +0.000 C 
ATOM      2  C   UNL     1      33.779 -15.206 -24.944  0.00  0.00    +0.000 C 
ATOM      3  C   UNL     1      33.745 -12.477 -24.280  0.00  0.00    +0.054 C 
ATOM      4  C   UNL     1      34.303 -13.402 -23.398  0.00  0.00    +0.005 C 
ATOM      5  C   UNL     1      33.222 -14.261 -25.821  0.00  0.00    +0.000 C 
ATOM      6  C   UNL     1      33.205 -12.906 -25.489  0.00  0.00    +0.005 C 
ATOM      7  C   UNL     1      33.804 -16.575 -25.261  0.00  0.00    +0.003 C 
ATOM      8  C   UNL     1      34.886 -15.716 -22.838  0.00  0.00    +0.000 C 
ATOM      9  C   UNL     1      34.362 -17.500 -24.378  0.00  0.00    +0.031 C 
ATOM     10  C   UNL     1      34.902 -17.071 -23.169  0.00  0.00    +0.003 C 
ENDROOT
BRANCH   9  13
ATOM     11  N   UNL     1      34.891 -19.865 -23.842  0.00  0.00    -0.343 N 
ATOM     12  N   UNL     1      33.910 -19.312 -25.889  0.00  0.00    -0.285 NA
ATOM     13  C   UNL     1      34.380 -18.913 -24.721  0.00  0.00    +0.117 C 
ATOM     14  H   UNL     1      34.893 -20.818 -24.095  0.00  0.00    +0.144 HD
ATOM     15  H   UNL     1      35.250 -19.587 -22.968  0.00  0.00    +0.144 HD
ATOM     16  H   UNL     1      33.920 -20.269 -26.124  0.00  0.00    +0.188 HD
ENDBRANCH   9  13
BRANCH   3  19
ATOM     17  O   UNL     1      34.630 -10.328 -24.370  0.00  0.00    -0.270 OA
ATOM     18  N   UNL     1      32.651 -10.639 -23.147  0.00  0.00    -0.280 N 
ATOM     19  C   UNL     1      33.728 -11.064 -23.937  0.00  0.00    +0.249 C 
ATOM     20  H   UNL     1      32.014 -11.340 -22.879  0.00  0.00    +0.155 HD
BRANCH  18  24
ATOM     21  C   UNL     1      31.915  -7.023 -23.142  0.00  0.00    +0.140 C 
ATOM     22  C   UNL     1      32.199  -8.309 -23.599  0.00  0.00    +0.052 C 
ATOM     23  C   UNL     1      31.795  -6.781 -21.773  0.00  0.00    +0.037 C 
ATOM     24  C   UNL     1      32.360  -9.333 -22.682  0.00  0.00    +0.054 C 
ATOM     25  C   UNL     1      31.960  -7.824 -20.863  0.00  0.00    +0.004 C 
ATOM     26  C   UNL     1      32.245  -9.110 -21.320  0.00  0.00    +0.015 C 
BRANCH  21  27
ATOM     27  O   UNL     1      31.754  -6.004 -24.029  0.00  0.00    -0.479 OA
BRANCH  27  28
ATOM     28  C   UNL     1      32.731  -4.971 -24.013  0.00  0.00    +0.166 C 
ATOM     29  C   UNL     1      32.352  -3.900 -25.025  0.00  0.00    +0.044 C 
ATOM     30  C   UNL     1      34.059  -5.490 -24.542  0.00  0.00    +0.044 C 
ATOM     31  C   UNL     1      32.802  -4.470 -26.371  0.00  0.00    +0.004 C 
ATOM     32  C   UNL     1      33.875  -5.512 -26.058  0.00  0.00    +0.004 C 
ENDBRANCH  27  28
ENDBRANCH  21  27
ENDBRANCH  18  24
ENDBRANCH   3  19
TORSDOF 5
ENDMDL
MODEL 8
REMARK VINA RESULT:     -10.3      4.566     11.899
REMARK  Name = 447734
REMARK  5 active torsions:
REMARK  status: ('A' for Active; 'I' for Inactive)
REMARK    1  A    between atoms: C_3  and  C_19
REMARK    2  A    between atoms: C_9  and  C_13
REMARK    3  A    between atoms: N_18  and  C_24
REMARK    4  A    between atoms: C_21  and  O_27
REMARK    5  A    between atoms: O_27  and  C_28
REMARK                            x       y       z     vdW  Elec       q    Type
REMARK                         _______ _______ _______ _____ _____    ______ ____
ROOT
ATOM      1  C   UNL     1      34.586 -20.879 -20.243  0.00  0.00    +0.000 C 
ATOM      2  C   UNL     1      35.927 -20.883 -19.792  0.00  0.00    +0.000 C 
ATOM      3  C   UNL     1      35.199 -19.333 -22.018  0.00  0.00    +0.054 C 
ATOM      4  C   UNL     1      34.238 -20.098 -21.357  0.00  0.00    +0.005 C 
ATOM      5  C   UNL     1      36.882 -20.106 -20.469  0.00  0.00    +0.000 C 
ATOM      6  C   UNL     1      36.518 -19.337 -21.575  0.00  0.00    +0.005 C 
ATOM      7  C   UNL     1      36.275 -21.664 -18.677  0.00  0.00    +0.003 C 
ATOM      8  C   UNL     1      33.631 -21.655 -19.565  0.00  0.00    +0.000 C 
ATOM      9  C   UNL     1      35.314 -22.430 -18.017  0.00  0.00    +0.031 C 
ATOM     10  C   UNL     1      33.995 -22.426 -18.460  0.00  0.00    +0.003 C 
ENDROOT
BRANCH   9  13
ATOM     11  N   UNL     1      34.747 -23.979 -16.161  0.00  0.00    -0.343 N 
ATOM     12  N   UNL     1      36.949 -23.259 -16.463  0.00  0.00    -0.285 NA
ATOM     13  C   UNL     1      35.691 -23.233 -16.864  0.00  0.00    +0.117 C 
ATOM     14  H   UNL     1      35.024 -24.516 -15.384  0.00  0.00    +0.144 HD
ATOM     15  H   UNL     1      33.803 -23.970 -16.443  0.00  0.00    +0.144 HD
ATOM     16  H   UNL     1      37.206 -23.802 -15.683  0.00  0.00    +0.188 HD
ENDBRANCH   9  13
BRANCH   3  19
ATOM     17  O   UNL     1      34.648 -19.088 -24.265  0.00  0.00    -0.270 OA
ATOM     18  N   UNL     1      34.661 -17.157 -22.932  0.00  0.00    -0.280 N 
ATOM     19  C   UNL     1      34.822 -18.529 -23.170  0.00  0.00    +0.249 C 
ATOM     20  H   UNL     1      34.835 -16.859 -22.011  0.00  0.00    +0.155 HD
BRANCH  18  24
ATOM     21  C   UNL     1      33.869 -13.828 -24.316  0.00  0.00    +0.140 C 
ATOM     22  C   UNL     1      34.245 -14.826 -23.418  0.00  0.00    +0.052 C 
ATOM     23  C   UNL     1      33.532 -14.162 -25.628  0.00  0.00    +0.037 C 
ATOM     24  C   UNL     1      34.280 -16.143 -23.845  0.00  0.00    +0.054 C 
ATOM     25  C   UNL     1      33.571 -15.494 -26.041  0.00  0.00    +0.004 C 
ATOM     26  C   UNL     1      33.948 -16.491 -25.143  0.00  0.00    +0.015 C 
BRANCH  21  27
ATOM     27  O   UNL     1      33.829 -12.529 -23.914  0.00  0.00    -0.479 OA
BRANCH  27  28
ATOM     28  C   UNL     1      33.504 -11.556 -24.899  0.00  0.00    +0.166 C 
ATOM     29  C   UNL     1      34.782 -11.049 -25.551  0.00  0.00    +0.044 C 
ATOM     30  C   UNL     1      32.934 -10.308 -24.244  0.00  0.00    +0.044 C 
ATOM     31  C   UNL     1      35.340 -10.031 -24.557  0.00  0.00    +0.004 C 
ATOM     32  C   UNL     1      34.160  -9.579 -23.697  0.00  0.00    +0.004 C 
ENDBRANCH  27  28
ENDBRANCH  21  27
ENDBRANCH  18  24
ENDBRANCH   3  19
TORSDOF 5
ENDMDL
MODEL 9
REMARK VINA RESULT:     -10.2      1.533      3.480
REMARK  Name = 447734
REMARK  5 active torsions:
REMARK  status: ('A' for Active; 'I' for Inactive)
REMARK    1  A    between atoms: C_3  and  C_19
REMARK    2  A    between atoms: C_9  and  C_13
REMARK    3  A    between atoms: N_18  and  C_24
REMARK    4  A    between atoms: C_21  and  O_27
REMARK    5  A    between atoms: O_27  and  C_28
REMARK                            x       y       z     vdW  Elec       q    Type
REMARK                         _______ _______ _______ _____ _____    ______ ____
ROOT
ATOM      1  C   UNL     1      35.390 -20.190 -20.910  0.00  0.00    +0.000 C 
ATOM      2  C   UNL     1      34.150 -19.804 -21.473  0.00  0.00    +0.000 C 
ATOM      3  C   UNL     1      34.237 -21.820 -19.519  0.00  0.00    +0.054 C 
ATOM      4  C   UNL     1      35.415 -21.200 -19.934  0.00  0.00    +0.005 C 
ATOM      5  C   UNL     1      32.973 -20.439 -21.044  0.00  0.00    +0.000 C 
ATOM      6  C   UNL     1      33.018 -21.440 -20.074  0.00  0.00    +0.005 C 
ATOM      7  C   UNL     1      34.125 -18.794 -22.449  0.00  0.00    +0.003 C 
ATOM      8  C   UNL     1      36.567 -19.555 -21.339  0.00  0.00    +0.000 C 
ATOM      9  C   UNL     1      35.303 -18.175 -22.865  0.00  0.00    +0.031 C 
ATOM     10  C   UNL     1      36.523 -18.555 -22.310  0.00  0.00    +0.003 C 
ENDROOT
BRANCH   9  13
ATOM     11  N   UNL     1      34.851 -17.403 -25.180  0.00  0.00    -0.343 N 
ATOM     12  N   UNL     1      35.617 -15.898 -23.565  0.00  0.00    -0.285 NA
ATOM     13  C   UNL     1      35.259 -17.131 -23.876  0.00  0.00    +0.117 C 
ATOM     14  H   UNL     1      34.828 -16.681 -25.850  0.00  0.00    +0.144 HD
ATOM     15  H   UNL     1      34.584 -18.317 -25.433  0.00  0.00    +0.144 HD
ATOM     16  H   UNL     1      35.588 -15.190 -24.249  0.00  0.00    +0.188 HD
ENDBRANCH   9  13
BRANCH   3  19
ATOM     17  O   UNL     1      33.902 -24.008 -18.804  0.00  0.00    -0.270 OA
ATOM     18  N   UNL     1      34.783 -22.480 -17.256  0.00  0.00    -0.280 N 
ATOM     19  C   UNL     1      34.281 -22.863 -18.507  0.00  0.00    +0.249 C 
ATOM     20  H   UNL     1      35.043 -21.535 -17.170  0.00  0.00    +0.155 HD
BRANCH  18  24
ATOM     21  C   UNL     1      34.032 -24.557 -14.298  0.00  0.00    +0.140 C 
ATOM     22  C   UNL     1      33.854 -23.775 -15.438  0.00  0.00    +0.052 C 
ATOM     23  C   UNL     1      35.320 -24.829 -13.834  0.00  0.00    +0.037 C 
ATOM     24  C   UNL     1      34.965 -23.276 -16.098  0.00  0.00    +0.054 C 
ATOM     25  C   UNL     1      36.427 -24.319 -14.510  0.00  0.00    +0.004 C 
ATOM     26  C   UNL     1      36.249 -23.537 -15.651  0.00  0.00    +0.015 C 
BRANCH  21  27
ATOM     27  O   UNL     1      32.952 -25.054 -13.637  0.00  0.00    -0.479 OA
BRANCH  27  28
ATOM     28  C   UNL     1      31.867 -24.164 -13.407  0.00  0.00    +0.166 C 
ATOM     29  C   UNL     1      30.644 -24.958 -12.974  0.00  0.00    +0.044 C 
ATOM     30  C   UNL     1      31.419 -23.526 -14.712  0.00  0.00    +0.044 C 
ATOM     31  C   UNL     1      30.068 -25.513 -14.276  0.00  0.00    +0.004 C 
ATOM     32  C   UNL     1      30.591 -24.613 -15.395  0.00  0.00    +0.004 C 
ENDBRANCH  27  28
ENDBRANCH  21  27
ENDBRANCH  18  24
ENDBRANCH   3  19
TORSDOF 5
ENDMDL
