MODEL 1
REMARK VINA RESULT:     -12.3      0.000      0.000
REMARK  Name = 135565042
REMARK  5 active torsions:
REMARK  status: ('A' for Active; 'I' for Inactive)
REMARK    1  A    between atoms: C_3  and  O_21
REMARK    2  A    between atoms: C_6  and  C_7
REMARK    3  A    between atoms: C_8  and  O_19
REMARK    4  A    between atoms: C_10  and  C_15
REMARK    5  A    between atoms: O_21  and  C_27
REMARK                            x       y       z     vdW  Elec       q    Type
REMARK                         _______ _______ _______ _____ _____    ______ ____
ROOT
ATOM      1  N   UNL     1      35.332 -23.203 -17.040  0.00  0.00    -0.110 NA
ATOM      2  N   UNL     1      35.359 -22.398 -18.136  0.00  0.00    -0.145 NA
ATOM      3  C   UNL     1      34.142 -23.641 -16.574  0.00  0.00    +0.244 C 
ATOM      4  C   UNL     1      32.939 -23.307 -17.161  0.00  0.00    +0.061 C 
ATOM      5  C   UNL     1      32.966 -22.487 -18.277  0.00  0.00    +0.026 C 
ATOM      6  C   UNL     1      34.196 -22.055 -18.730  0.00  0.00    +0.106 C 
ENDROOT
BRANCH   6   7
ATOM      7  C   UNL     1      34.319 -21.202 -19.885  0.00  0.00    +0.053 C 
ATOM      8  C   UNL     1      35.571 -20.782 -20.335  0.00  0.00    +0.135 C 
ATOM      9  C   UNL     1      33.165 -20.796 -20.555  0.00  0.00    +0.005 C 
ATOM     10  C   UNL     1      34.515 -19.550 -22.125  0.00  0.00    +0.006 C 
ATOM     11  C   UNL     1      35.669 -19.957 -21.455  0.00  0.00    +0.037 C 
ATOM     12  C   UNL     1      33.262 -19.970 -21.675  0.00  0.00    +0.000 C 
BRANCH  10  15
ATOM     13  N   UNL     1      35.144 -17.017 -24.565  0.00  0.00    -0.235 N 
ATOM     14  N   UNL     1      34.429 -17.815 -25.376  0.00  0.00    -0.180 NA
ATOM     15  C   UNL     1      34.615 -18.701 -23.279  0.00  0.00    +0.037 C 
ATOM     16  C   UNL     1      35.285 -17.503 -23.299  0.00  0.00    +0.081 C 
ATOM     17  C   UNL     1      34.108 -18.843 -24.585  0.00  0.00    +0.119 C 
ATOM     18  H   UNL     1      35.531 -16.160 -24.859  0.00  0.00    +0.174 HD
ENDBRANCH  10  15
BRANCH   8  19
ATOM     19  O   UNL     1      36.715 -21.164 -19.699  0.00  0.00    -0.505 OA
ATOM     20  H   UNL     1      36.668 -21.698 -18.931  0.00  0.00    +0.292 HD
ENDBRANCH   8  19
ENDBRANCH   6   7
BRANCH   3  21
ATOM     21  O   UNL     1      34.159 -24.450 -15.471  0.00  0.00    -0.463 OA
BRANCH  21  27
ATOM     22  N   UNL     1      37.106 -25.639 -12.687  0.00  0.00    +0.389 N 
ATOM     23  C   UNL     1      37.402 -25.838 -14.112  0.00  0.00    -0.042 C 
ATOM     24  C   UNL     1      36.214 -24.542 -12.287  0.00  0.00    -0.042 C 
ATOM     25  C   UNL     1      36.146 -25.698 -14.993  0.00  0.00    +0.024 C 
ATOM     26  C   UNL     1      34.982 -24.427 -13.205  0.00  0.00    +0.024 C 
ATOM     27  C   UNL     1      35.348 -24.438 -14.686  0.00  0.00    +0.164 C 
ATOM     28  C   UNL     1      36.960 -23.199 -12.193  0.00  0.00    -0.021 C 
ATOM     29  C   UNL     1      37.921 -27.286 -14.235  0.00  0.00    -0.021 C 
ATOM     30  C   UNL     1      38.528 -24.909 -14.602  0.00  0.00    -0.021 C 
ATOM     31  C   UNL     1      35.728 -24.893 -10.865  0.00  0.00    -0.021 C 
ATOM     32  H   UNL     1      37.997 -25.486 -12.215  0.00  0.00    -0.084 HD
ATOM     33  H   UNL     1      36.589 -26.479 -12.427  0.00  0.00    -0.084 HD
ENDBRANCH  21  27
ENDBRANCH   3  21
TORSDOF 5
ENDMDL
MODEL 2
REMARK VINA RESULT:     -10.5      1.339      2.603
REMARK  Name = 135565042
REMARK  5 active torsions:
REMARK  status: ('A' for Active; 'I' for Inactive)
REMARK    1  A    between atoms: C_3  and  O_21
REMARK    2  A    between atoms: C_6  and  C_7
REMARK    3  A    between atoms: C_8  and  O_19
REMARK    4  A    between atoms: C_10  and  C_15
REMARK    5  A    between atoms: O_21  and  C_27
REMARK                            x       y       z     vdW  Elec       q    Type
REMARK                         _______ _______ _______ _____ _____    ______ ____
ROOT
ATOM      1  N   UNL     1      33.827 -24.278 -17.229  0.00  0.00    -0.110 NA
ATOM      2  N   UNL     1      33.912 -23.411 -18.273  0.00  0.00    -0.145 NA
ATOM      3  C   UNL     1      34.651 -24.119 -16.172  0.00  0.00    +0.244 C 
ATOM      4  C   UNL     1      35.587 -23.108 -16.097  0.00  0.00    +0.061 C 
ATOM      5  C   UNL     1      35.675 -22.225 -17.159  0.00  0.00    +0.026 C 
ATOM      6  C   UNL     1      34.820 -22.413 -18.226  0.00  0.00    +0.106 C 
ENDROOT
BRANCH   6   7
ATOM      7  C   UNL     1      34.839 -21.539 -19.374  0.00  0.00    +0.053 C 
ATOM      8  C   UNL     1      33.653 -21.074 -19.940  0.00  0.00    +0.135 C 
ATOM      9  C   UNL     1      36.067 -21.160 -19.918  0.00  0.00    +0.005 C 
ATOM     10  C   UNL     1      34.920 -19.851 -21.593  0.00  0.00    +0.006 C 
ATOM     11  C   UNL     1      33.692 -20.230 -21.049  0.00  0.00    +0.037 C 
ATOM     12  C   UNL     1      36.108 -20.317 -21.028  0.00  0.00    +0.000 C 
BRANCH  10  15
ATOM     13  N   UNL     1      35.414 -17.267 -24.011  0.00  0.00    -0.235 N 
ATOM     14  N   UNL     1      34.676 -18.061 -24.806  0.00  0.00    -0.180 NA
ATOM     15  C   UNL     1      34.961 -18.981 -22.735  0.00  0.00    +0.037 C 
ATOM     16  C   UNL     1      35.613 -17.773 -22.761  0.00  0.00    +0.081 C 
ATOM     17  C   UNL     1      34.403 -19.107 -24.021  0.00  0.00    +0.119 C 
ATOM     18  H   UNL     1      35.777 -16.400 -24.306  0.00  0.00    +0.174 HD
ENDBRANCH  10  15
BRANCH   8  19
ATOM     19  O   UNL     1      32.439 -21.428 -19.428  0.00  0.00    -0.505 OA
ATOM     20  H   UNL     1      32.171 -22.326 -19.437  0.00  0.00    +0.292 HD
ENDBRANCH   8  19
ENDBRANCH   6   7
BRANCH   3  21
ATOM     21  O   UNL     1      34.532 -25.013 -15.142  0.00  0.00    -0.463 OA
BRANCH  21  27
ATOM     22  N   UNL     1      38.276 -24.406 -13.282  0.00  0.00    +0.389 N 
ATOM     23  C   UNL     1      37.078 -24.318 -12.436  0.00  0.00    -0.042 C 
ATOM     24  C   UNL     1      38.253 -25.273 -14.468  0.00  0.00    -0.042 C 
ATOM     25  C   UNL     1      35.785 -24.209 -13.266  0.00  0.00    +0.024 C 
ATOM     26  C   UNL     1      36.936 -25.146 -15.258  0.00  0.00    +0.024 C 
ATOM     27  C   UNL     1      35.702 -25.258 -14.368  0.00  0.00    +0.164 C 
ATOM     28  C   UNL     1      38.545 -26.742 -14.114  0.00  0.00    -0.021 C 
ATOM     29  C   UNL     1      37.238 -23.020 -11.616  0.00  0.00    -0.021 C 
ATOM     30  C   UNL     1      36.994 -25.482 -11.431  0.00  0.00    -0.021 C 
ATOM     31  C   UNL     1      39.407 -24.783 -15.367  0.00  0.00    -0.021 C 
ATOM     32  H   UNL     1      39.038 -24.734 -12.687  0.00  0.00    -0.084 HD
ATOM     33  H   UNL     1      38.370 -23.467 -13.669  0.00  0.00    -0.084 HD
ENDBRANCH  21  27
ENDBRANCH   3  21
TORSDOF 5
ENDMDL
MODEL 3
REMARK VINA RESULT:      -9.6      1.257      1.769
REMARK  Name = 135565042
REMARK  5 active torsions:
REMARK  status: ('A' for Active; 'I' for Inactive)
REMARK    1  A    between atoms: C_3  and  O_21
REMARK    2  A    between atoms: C_6  and  C_7
REMARK    3  A    between atoms: C_8  and  O_19
REMARK    4  A    between atoms: C_10  and  C_15
REMARK    5  A    between atoms: O_21  and  C_27
REMARK                            x       y       z     vdW  Elec       q    Type
REMARK                         _______ _______ _______ _____ _____    ______ ____
ROOT
ATOM      1  N   UNL     1      33.196 -23.051 -17.447  0.00  0.00    -0.110 NA
ATOM      2  N   UNL     1      33.271 -22.297 -18.577  0.00  0.00    -0.145 NA
ATOM      3  C   UNL     1      34.313 -23.257 -16.718  0.00  0.00    +0.244 C 
ATOM      4  C   UNL     1      35.542 -22.734 -17.065  0.00  0.00    +0.061 C 
ATOM      5  C   UNL     1      35.619 -21.966 -18.214  0.00  0.00    +0.026 C 
ATOM      6  C   UNL     1      34.462 -21.773 -18.940  0.00  0.00    +0.106 C 
ENDROOT
BRANCH   6   7
ATOM      7  C   UNL     1      34.448 -20.985 -20.148  0.00  0.00    +0.053 C 
ATOM      8  C   UNL     1      33.251 -20.506 -20.677  0.00  0.00    +0.135 C 
ATOM      9  C   UNL     1      35.656 -20.705 -20.789  0.00  0.00    +0.005 C 
ATOM     10  C   UNL     1      34.466 -19.465 -22.487  0.00  0.00    +0.006 C 
ATOM     11  C   UNL     1      33.259 -19.746 -21.846  0.00  0.00    +0.037 C 
ATOM     12  C   UNL     1      35.665 -19.945 -21.958  0.00  0.00    +0.000 C 
BRANCH  10  15
ATOM     13  N   UNL     1      34.023 -17.999 -25.715  0.00  0.00    -0.235 N 
ATOM     14  N   UNL     1      34.903 -17.086 -25.268  0.00  0.00    -0.180 NA
ATOM     15  C   UNL     1      34.475 -18.681 -23.690  0.00  0.00    +0.037 C 
ATOM     16  C   UNL     1      33.734 -18.975 -24.808  0.00  0.00    +0.081 C 
ATOM     17  C   UNL     1      35.175 -17.508 -24.031  0.00  0.00    +0.119 C 
ATOM     18  H   UNL     1      33.624 -17.965 -26.615  0.00  0.00    +0.174 HD
ENDBRANCH  10  15
BRANCH   8  19
ATOM     19  O   UNL     1      32.056 -20.765 -20.071  0.00  0.00    -0.505 OA
ATOM     20  H   UNL     1      31.257 -20.487 -20.474  0.00  0.00    +0.292 HD
ENDBRANCH   8  19
ENDBRANCH   6   7
BRANCH   3  21
ATOM     21  O   UNL     1      34.194 -24.020 -15.588  0.00  0.00    -0.463 OA
BRANCH  21  27
ATOM     22  N   UNL     1      36.863 -25.861 -12.879  0.00  0.00    +0.389 N 
ATOM     23  C   UNL     1      36.875 -26.336 -14.269  0.00  0.00    -0.042 C 
ATOM     24  C   UNL     1      36.486 -24.467 -12.603  0.00  0.00    -0.042 C 
ATOM     25  C   UNL     1      35.647 -25.851 -15.062  0.00  0.00    +0.024 C 
ATOM     26  C   UNL     1      35.266 -24.018 -13.430  0.00  0.00    +0.024 C 
ATOM     27  C   UNL     1      35.402 -24.354 -14.910  0.00  0.00    +0.164 C 
ATOM     28  C   UNL     1      37.669 -23.501 -12.794  0.00  0.00    -0.021 C 
ATOM     29  C   UNL     1      36.819 -27.876 -14.185  0.00  0.00    -0.021 C 
ATOM     30  C   UNL     1      38.183 -25.969 -14.994  0.00  0.00    -0.021 C 
ATOM     31  C   UNL     1      36.101 -24.426 -11.109  0.00  0.00    -0.021 C 
ATOM     32  H   UNL     1      37.805 -25.993 -12.510  0.00  0.00    -0.084 HD
ATOM     33  H   UNL     1      36.119 -26.405 -12.442  0.00  0.00    -0.084 HD
ENDBRANCH  21  27
ENDBRANCH   3  21
TORSDOF 5
ENDMDL
MODEL 4
REMARK VINA RESULT:      -9.6      7.468     14.182
REMARK  Name = 135565042
REMARK  5 active torsions:
REMARK  status: ('A' for Active; 'I' for Inactive)
REMARK    1  A    between atoms: C_3  and  O_21
REMARK    2  A    between atoms: C_6  and  C_7
REMARK    3  A    between atoms: C_8  and  O_19
REMARK    4  A    between atoms: C_10  and  C_15
REMARK    5  A    between atoms: O_21  and  C_27
REMARK                            x       y       z     vdW  Elec       q    Type
REMARK                         _______ _______ _______ _____ _____    ______ ____
ROOT
ATOM      1  N   UNL     1      33.749 -11.959 -24.216  0.00  0.00    -0.110 NA
ATOM      2  N   UNL     1      34.222 -13.164 -23.799  0.00  0.00    -0.145 NA
ATOM      3  C   UNL     1      32.763 -11.360 -23.515  0.00  0.00    +0.244 C 
ATOM      4  C   UNL     1      32.204 -11.916 -22.383  0.00  0.00    +0.061 C 
ATOM      5  C   UNL     1      32.685 -13.142 -21.957  0.00  0.00    +0.026 C 
ATOM      6  C   UNL     1      33.692 -13.731 -22.694  0.00  0.00    +0.106 C 
ENDROOT
BRANCH   6   7
ATOM      7  C   UNL     1      34.255 -15.006 -22.323  0.00  0.00    +0.053 C 
ATOM      8  C   UNL     1      34.508 -15.984 -23.284  0.00  0.00    +0.135 C 
ATOM      9  C   UNL     1      34.546 -15.254 -20.981  0.00  0.00    +0.005 C 
ATOM     10  C   UNL     1      35.344 -17.459 -21.563  0.00  0.00    +0.006 C 
ATOM     11  C   UNL     1      35.053 -17.211 -22.905  0.00  0.00    +0.037 C 
ATOM     12  C   UNL     1      35.090 -16.481 -20.601  0.00  0.00    +0.000 C 
BRANCH  10  15
ATOM     13  N   UNL     1      36.066 -20.824 -20.601  0.00  0.00    -0.235 N 
ATOM     14  N   UNL     1      37.341 -20.398 -20.582  0.00  0.00    -0.180 NA
ATOM     15  C   UNL     1      35.906 -18.722 -21.172  0.00  0.00    +0.037 C 
ATOM     16  C   UNL     1      35.168 -19.858 -20.948  0.00  0.00    +0.081 C 
ATOM     17  C   UNL     1      37.237 -19.113 -20.932  0.00  0.00    +0.119 C 
ATOM     18  H   UNL     1      35.805 -21.748 -20.384  0.00  0.00    +0.174 HD
ENDBRANCH  10  15
BRANCH   8  19
ATOM     19  O   UNL     1      34.233 -15.768 -24.602  0.00  0.00    -0.505 OA
ATOM     20  H   UNL     1      34.064 -16.494 -25.170  0.00  0.00    +0.292 HD
ENDBRANCH   8  19
ENDBRANCH   6   7
BRANCH   3  21
ATOM     21  O   UNL     1      32.317 -10.148 -23.968  0.00  0.00    -0.463 OA
BRANCH  21  27
ATOM     22  N   UNL     1      33.030  -6.091 -23.027  0.00  0.00    +0.389 N 
ATOM     23  C   UNL     1      32.103  -6.833 -22.163  0.00  0.00    -0.042 C 
ATOM     24  C   UNL     1      34.110  -6.818 -23.710  0.00  0.00    -0.042 C 
ATOM     25  C   UNL     1      31.659  -8.167 -22.792  0.00  0.00    +0.024 C 
ATOM     26  C   UNL     1      33.627  -8.153 -24.309  0.00  0.00    +0.024 C 
ATOM     27  C   UNL     1      32.830  -8.991 -23.314  0.00  0.00    +0.164 C 
ATOM     28  C   UNL     1      35.329  -7.033 -22.795  0.00  0.00    -0.021 C 
ATOM     29  C   UNL     1      30.860  -5.933 -22.010  0.00  0.00    -0.021 C 
ATOM     30  C   UNL     1      32.680  -7.053 -20.752  0.00  0.00    -0.021 C 
ATOM     31  C   UNL     1      34.564  -5.904 -24.867  0.00  0.00    -0.021 C 
ATOM     32  H   UNL     1      33.472  -5.377 -22.448  0.00  0.00    -0.084 HD
ATOM     33  H   UNL     1      32.439  -5.761 -23.790  0.00  0.00    -0.084 HD
ENDBRANCH  21  27
ENDBRANCH   3  21
TORSDOF 5
ENDMDL
MODEL 5
REMARK VINA RESULT:      -9.3      9.769     16.345
REMARK  Name = 135565042
REMARK  5 active torsions:
REMARK  status: ('A' for Active; 'I' for Inactive)
REMARK    1  A    between atoms: C_3  and  O_21
REMARK    2  A    between atoms: C_6  and  C_7
REMARK    3  A    between atoms: C_8  and  O_19
REMARK    4  A    between atoms: C_10  and  C_15
REMARK    5  A    between atoms: O_21  and  C_27
REMARK                            x       y       z     vdW  Elec       q    Type
REMARK                         _______ _______ _______ _____ _____    ______ ____
ROOT
ATOM      1  N   UNL     1      34.995  -9.199 -23.980  0.00  0.00    -0.110 NA
ATOM      2  N   UNL     1      34.908 -10.533 -24.227  0.00  0.00    -0.145 NA
ATOM      3  C   UNL     1      33.996  -8.587 -23.309  0.00  0.00    +0.244 C 
ATOM      4  C   UNL     1      32.878  -9.256 -22.856  0.00  0.00    +0.061 C 
ATOM      5  C   UNL     1      32.789 -10.615 -23.106  0.00  0.00    +0.026 C 
ATOM      6  C   UNL     1      33.825 -11.213 -23.795  0.00  0.00    +0.106 C 
ENDROOT
BRANCH   6   7
ATOM      7  C   UNL     1      33.817 -12.623 -24.097  0.00  0.00    +0.053 C 
ATOM      8  C   UNL     1      33.495 -13.080 -25.374  0.00  0.00    +0.135 C 
ATOM      9  C   UNL     1      34.137 -13.534 -23.090  0.00  0.00    +0.005 C 
ATOM     10  C   UNL     1      33.814 -15.359 -24.640  0.00  0.00    +0.006 C 
ATOM     11  C   UNL     1      33.494 -14.448 -25.646  0.00  0.00    +0.037 C 
ATOM     12  C   UNL     1      34.136 -14.902 -23.361  0.00  0.00    +0.000 C 
BRANCH  10  15
ATOM     13  N   UNL     1      34.287 -18.897 -24.806  0.00  0.00    -0.235 N 
ATOM     14  N   UNL     1      33.392 -18.830 -25.807  0.00  0.00    -0.180 NA
ATOM     15  C   UNL     1      33.814 -16.768 -24.920  0.00  0.00    +0.037 C 
ATOM     16  C   UNL     1      34.573 -17.689 -24.241  0.00  0.00    +0.081 C 
ATOM     17  C   UNL     1      33.107 -17.527 -25.872  0.00  0.00    +0.119 C 
ATOM     18  H   UNL     1      34.697 -19.741 -24.507  0.00  0.00    +0.174 HD
ENDBRANCH  10  15
BRANCH   8  19
ATOM     19  O   UNL     1      33.179 -12.211 -26.377  0.00  0.00    -0.505 OA
ATOM     20  H   UNL     1      32.532 -11.548 -26.235  0.00  0.00    +0.292 HD
ENDBRANCH   8  19
ENDBRANCH   6   7
BRANCH   3  21
ATOM     21  O   UNL     1      34.123  -7.243 -23.081  0.00  0.00    -0.463 OA
BRANCH  21  27
ATOM     22  N   UNL     1      32.890  -3.727 -25.072  0.00  0.00    +0.389 N 
ATOM     23  C   UNL     1      33.732  -4.669 -25.822  0.00  0.00    -0.042 C 
ATOM     24  C   UNL     1      32.007  -4.240 -24.016  0.00  0.00    -0.042 C 
ATOM     25  C   UNL     1      34.395  -5.715 -24.906  0.00  0.00    +0.024 C 
ATOM     26  C   UNL     1      32.704  -5.296 -23.136  0.00  0.00    +0.024 C 
ATOM     27  C   UNL     1      33.405  -6.375 -23.953  0.00  0.00    +0.164 C 
ATOM     28  C   UNL     1      30.683  -4.781 -24.584  0.00  0.00    -0.021 C 
ATOM     29  C   UNL     1      34.845  -3.816 -26.466  0.00  0.00    -0.021 C 
ATOM     30  C   UNL     1      32.960  -5.347 -26.969  0.00  0.00    -0.021 C 
ATOM     31  C   UNL     1      31.661  -3.024 -23.132  0.00  0.00    -0.021 C 
ATOM     32  H   UNL     1      32.296  -3.251 -25.752  0.00  0.00    -0.084 HD
ATOM     33  H   UNL     1      33.562  -3.149 -24.568  0.00  0.00    -0.084 HD
ENDBRANCH  21  27
ENDBRANCH   3  21
TORSDOF 5
ENDMDL
