MODEL 1
REMARK VINA RESULT:     -11.4      0.000      0.000
REMARK  Name = 158376
REMARK  11 active torsions:
REMARK  status: ('A' for Active; 'I' for Inactive)
REMARK    1  A    between atoms: C_1  and  N_22
REMARK    2  A    between atoms: C_2  and  C_9
REMARK    3  A    between atoms: N_8  and  CA_11
REMARK    4  A    between atoms: CA_11  and  C_13
REMARK    5  A    between atoms: CA_11  and  CB_16
REMARK    6  A    between atoms: C_13  and  O_14
REMARK    7  A    between atoms: CB_16  and  CG_17
REMARK    8  A    between atoms: CG_17  and  CD_19
REMARK    9  A    between atoms: CD_19  and  OE1_20
REMARK   10  A    between atoms: N_22  and  C_24
REMARK   11  A    between atoms: C_24  and  C_29
REMARK                            x       y       z     vdW  Elec       q    Type
REMARK                         _______ _______ _______ _____ _____    ______ ____
ROOT
ATOM      1  C   UNL     1      35.245 -20.510 -20.683  0.00  0.00    +0.048 C 
ATOM      2  C   UNL     1      33.983 -22.245 -18.899  0.00  0.00    +0.053 C 
ATOM      3  C   UNL     1      36.007 -21.330 -19.851  0.00  0.00    +0.015 C 
ATOM      4  C   UNL     1      33.852 -20.557 -20.624  0.00  0.00    +0.015 C 
ATOM      5  C   UNL     1      35.376 -22.198 -18.960  0.00  0.00    +0.006 C 
ATOM      6  C   UNL     1      33.221 -21.425 -19.731  0.00  0.00    +0.006 C 
ENDROOT
BRANCH   2   9
ATOM      7  O   UNL     1      33.829 -24.256 -17.703  0.00  0.00    -0.270 OA
ATOM      8  N   UNL     1      32.132 -22.707 -17.383  0.00  0.00    -0.293 N 
ATOM      9  C   ACE A   0      33.311 -23.169 -17.949  0.00  0.00    +0.246 C 
ATOM     10  H   UNL     1      31.796 -21.819 -17.645  0.00  0.00    +0.150 HD
BRANCH   8  11
ATOM     11  CA  UNL     1      31.378 -23.476 -16.426  0.00  0.00    +0.172 C 
BRANCH  11  13
ATOM     12  OXT UNL     1      29.421 -22.212 -17.137  0.00  0.00    -0.248 OA
ATOM     13  C   UNL     1      29.907 -23.254 -16.715  0.00  0.00    +0.332 C 
BRANCH  13  14
ATOM     14  O   UNL     1      29.171 -24.373 -16.486  0.00  0.00    -0.479 OA
ATOM     15  H   UNL     1      29.262 -25.116 -17.048  0.00  0.00    +0.295 HD
ENDBRANCH  13  14
ENDBRANCH  11  13
BRANCH  11  16
ATOM     16  CB  UNL     1      31.776 -23.174 -14.976  0.00  0.00    +0.043 C 
BRANCH  16  17
ATOM     17  CG  UNL     1      32.169 -24.387 -14.125  0.00  0.00    +0.112 C 
BRANCH  17  19
ATOM     18  OE2 UNL     1      30.515 -26.129 -14.536  0.00  0.00    -0.250 OA
ATOM     19  CD  UNL     1      31.007 -25.296 -13.787  0.00  0.00    +0.314 C 
BRANCH  19  20
ATOM     20  OE1 UNL     1      30.529 -25.054 -12.537  0.00  0.00    -0.480 OA
ATOM     21  HE1 UNL     1      30.872 -24.341 -12.036  0.00  0.00    +0.295 HD
ENDBRANCH  19  20
ENDBRANCH  17  19
ENDBRANCH  16  17
ENDBRANCH  11  16
ENDBRANCH   8  11
ENDBRANCH   2   9
BRANCH   1  22
ATOM     22  N   UNL     1      35.882 -19.634 -21.586  0.00  0.00    -0.302 N 
ATOM     23  C   UNL     1      37.199 -19.107 -21.292  0.00  0.00    +0.112 C 
BRANCH  22  24
ATOM     24  C   UNL     1      35.233 -19.260 -22.828  0.00  0.00    +0.118 C 
BRANCH  24  29
ATOM     25  O   UNL     1      35.012 -15.575 -22.642  0.00  0.00    -0.427 OA
ATOM     26  N   UNL     1      33.919 -14.808 -24.622  0.00  0.00    -0.294 NA
ATOM     27  N   UNL     1      33.281 -16.596 -26.149  0.00  0.00    -0.317 NA
ATOM     28  N   UNL     1      32.833 -14.352 -26.643  0.00  0.00    -0.283 N 
ATOM     29  C   UNL     1      35.005 -17.794 -23.025  0.00  0.00    +0.031 C 
ATOM     30  C   UNL     1      34.380 -17.155 -24.122  0.00  0.00    +0.180 C 
ATOM     31  C   UNL     1      34.407 -15.791 -23.845  0.00  0.00    +0.281 C 
ATOM     32  C   UNL     1      35.368 -16.792 -22.154  0.00  0.00    +0.176 C 
ATOM     33  C   UNL     1      33.790 -17.540 -25.325  0.00  0.00    +0.181 C 
ATOM     34  C   UNL     1      33.377 -15.306 -25.752  0.00  0.00    +0.200 C 
ATOM     35  H   UNL     1      32.867 -13.394 -26.418  0.00  0.00    +0.156 HD
ATOM     36  H   UNL     1      32.420 -14.646 -27.486  0.00  0.00    +0.156 HD
ATOM     37  N   UNL     1      33.714 -18.895 -25.693  0.00  0.00    -0.335 N 
ATOM     38  H   UNL     1      33.294 -19.151 -26.545  0.00  0.00    +0.144 HD
ATOM     39  H   UNL     1      34.081 -19.589 -25.098  0.00  0.00    +0.144 HD
ENDBRANCH  24  29
ENDBRANCH  22  24
ENDBRANCH   1  22
TORSDOF 11
ENDMDL
MODEL 2
REMARK VINA RESULT:     -11.4      4.357     11.097
REMARK  Name = 158376
REMARK  11 active torsions:
REMARK  status: ('A' for Active; 'I' for Inactive)
REMARK    1  A    between atoms: C_1  and  N_22
REMARK    2  A    between atoms: C_2  and  C_9
REMARK    3  A    between atoms: N_8  and  CA_11
REMARK    4  A    between atoms: CA_11  and  C_13
REMARK    5  A    between atoms: CA_11  and  CB_16
REMARK    6  A    between atoms: C_13  and  O_14
REMARK    7  A    between atoms: CB_16  and  CG_17
REMARK    8  A    between atoms: CG_17  and  CD_19
REMARK    9  A    between atoms: CD_19  and  OE1_20
REMARK   10  A    between atoms: N_22  and  C_24
REMARK   11  A    between atoms: C_24  and  C_29
REMARK                            x       y       z     vdW  Elec       q    Type
REMARK                         _______ _______ _______ _____ _____    ______ ____
ROOT
ATOM      1  C   UNL     1      34.302 -23.328 -16.360  0.00  0.00    +0.048 C 
ATOM      2  C   UNL     1      35.360 -22.139 -18.651  0.00  0.00    +0.053 C 
ATOM      3  C   UNL     1      35.617 -22.863 -16.360  0.00  0.00    +0.015 C 
ATOM      4  C   UNL     1      33.516 -23.199 -17.504  0.00  0.00    +0.015 C 
ATOM      5  C   UNL     1      36.146 -22.269 -17.505  0.00  0.00    +0.006 C 
ATOM      6  C   UNL     1      34.045 -22.604 -18.650  0.00  0.00    +0.006 C 
ENDROOT
BRANCH   2   9
ATOM      7  O   UNL     1      37.028 -21.860 -20.275  0.00  0.00    -0.270 OA
ATOM      8  N   UNL     1      35.122 -20.555 -20.487  0.00  0.00    -0.293 N 
ATOM      9  C   ACE A   0      35.923 -21.506 -19.871  0.00  0.00    +0.246 C 
ATOM     10  H   UNL     1      34.250 -20.338 -20.086  0.00  0.00    +0.150 HD
BRANCH   8  11
ATOM     11  CA  UNL     1      35.518 -19.870 -21.692  0.00  0.00    +0.172 C 
BRANCH  11  13
ATOM     12  OXT UNL     1      37.670 -18.771 -21.385  0.00  0.00    -0.248 OA
ATOM     13  C   UNL     1      36.449 -18.743 -21.294  0.00  0.00    +0.332 C 
BRANCH  13  14
ATOM     14  O   UNL     1      35.767 -17.655 -20.850  0.00  0.00    -0.479 OA
ATOM     15  H   UNL     1      36.230 -16.877 -20.612  0.00  0.00    +0.295 HD
ENDBRANCH  13  14
ENDBRANCH  11  13
BRANCH  11  16
ATOM     16  CB  UNL     1      34.322 -19.417 -22.537  0.00  0.00    +0.043 C 
BRANCH  16  17
ATOM     17  CG  UNL     1      34.595 -19.225 -24.033  0.00  0.00    +0.112 C 
BRANCH  17  19
ATOM     18  OE2 UNL     1      34.838 -16.819 -23.732  0.00  0.00    -0.250 OA
ATOM     19  CD  UNL     1      34.629 -17.775 -24.466  0.00  0.00    +0.314 C 
BRANCH  19  20
ATOM     20  OE1 UNL     1      34.356 -17.642 -25.791  0.00  0.00    -0.480 OA
ATOM     21  HE1 UNL     1      34.959 -17.970 -26.429  0.00  0.00    +0.295 HD
ENDBRANCH  19  20
ENDBRANCH  17  19
ENDBRANCH  16  17
ENDBRANCH  11  16
ENDBRANCH   8  11
ENDBRANCH   2   9
BRANCH   1  22
ATOM     22  N   UNL     1      33.766 -23.928 -15.201  0.00  0.00    -0.302 N 
ATOM     23  C   UNL     1      32.537 -23.429 -14.617  0.00  0.00    +0.112 C 
BRANCH  22  24
ATOM     24  C   UNL     1      34.430 -25.062 -14.588  0.00  0.00    +0.118 C 
BRANCH  24  29
ATOM     25  O   UNL     1      37.354 -23.794 -12.715  0.00  0.00    -0.427 OA
ATOM     26  N   UNL     1      39.230 -25.160 -13.278  0.00  0.00    -0.294 NA
ATOM     27  N   UNL     1      38.714 -26.934 -14.865  0.00  0.00    -0.317 NA
ATOM     28  N   UNL     1      40.875 -26.653 -14.011  0.00  0.00    -0.283 N 
ATOM     29  C   UNL     1      35.764 -24.776 -13.970  0.00  0.00    +0.031 C 
ATOM     30  C   UNL     1      36.981 -25.468 -14.180  0.00  0.00    +0.180 C 
ATOM     31  C   UNL     1      37.931 -24.831 -13.388  0.00  0.00    +0.281 C 
ATOM     32  C   UNL     1      36.045 -23.769 -13.075  0.00  0.00    +0.176 C 
ATOM     33  C   UNL     1      37.417 -26.555 -14.933  0.00  0.00    +0.181 C 
ATOM     34  C   UNL     1      39.528 -26.223 -14.052  0.00  0.00    +0.200 C 
ATOM     35  H   UNL     1      41.524 -26.181 -13.440  0.00  0.00    +0.156 HD
ATOM     36  H   UNL     1      41.163 -27.423 -14.552  0.00  0.00    +0.156 HD
ATOM     37  N   UNL     1      36.531 -27.263 -15.765  0.00  0.00    -0.335 N 
ATOM     38  H   UNL     1      36.855 -28.029 -16.291  0.00  0.00    +0.144 HD
ATOM     39  H   UNL     1      35.586 -26.993 -15.821  0.00  0.00    +0.144 HD
ENDBRANCH  24  29
ENDBRANCH  22  24
ENDBRANCH   1  22
TORSDOF 11
ENDMDL
MODEL 3
REMARK VINA RESULT:     -11.2      1.911      2.600
REMARK  Name = 158376
REMARK  11 active torsions:
REMARK  status: ('A' for Active; 'I' for Inactive)
REMARK    1  A    between atoms: C_1  and  N_22
REMARK    2  A    between atoms: C_2  and  C_9
REMARK    3  A    between atoms: N_8  and  CA_11
REMARK    4  A    between atoms: CA_11  and  C_13
REMARK    5  A    between atoms: CA_11  and  CB_16
REMARK    6  A    between atoms: C_13  and  O_14
REMARK    7  A    between atoms: CB_16  and  CG_17
REMARK    8  A    between atoms: CG_17  and  CD_19
REMARK    9  A    between atoms: CD_19  and  OE1_20
REMARK   10  A    between atoms: N_22  and  C_24
REMARK   11  A    between atoms: C_24  and  C_29
REMARK                            x       y       z     vdW  Elec       q    Type
REMARK                         _______ _______ _______ _____ _____    ______ ____
ROOT
ATOM      1  C   UNL     1      35.782 -19.791 -20.937  0.00  0.00    +0.048 C 
ATOM      2  C   UNL     1      34.642 -21.915 -19.532  0.00  0.00    +0.053 C 
ATOM      3  C   UNL     1      36.592 -20.652 -20.197  0.00  0.00    +0.015 C 
ATOM      4  C   UNL     1      34.402 -19.991 -20.974  0.00  0.00    +0.015 C 
ATOM      5  C   UNL     1      36.022 -21.714 -19.496  0.00  0.00    +0.006 C 
ATOM      6  C   UNL     1      33.832 -21.053 -20.271  0.00  0.00    +0.006 C 
ENDROOT
BRANCH   2   9
ATOM      7  O   UNL     1      33.891 -24.129 -19.348  0.00  0.00    -0.270 OA
ATOM      8  N   UNL     1      33.691 -22.788 -17.465  0.00  0.00    -0.293 N 
ATOM      9  C   ACE A   0      34.035 -23.046 -18.785  0.00  0.00    +0.246 C 
ATOM     10  H   UNL     1      33.845 -21.886 -17.103  0.00  0.00    +0.150 HD
BRANCH   8  11
ATOM     11  CA  UNL     1      33.116 -23.790 -16.604  0.00  0.00    +0.172 C 
BRANCH  11  13
ATOM     12  OXT UNL     1      30.998 -22.724 -17.160  0.00  0.00    -0.248 OA
ATOM     13  C   UNL     1      31.650 -23.454 -16.424  0.00  0.00    +0.332 C 
BRANCH  13  14
ATOM     14  O   UNL     1      31.110 -24.094 -15.354  0.00  0.00    -0.479 OA
ATOM     15  H   UNL     1      30.445 -23.676 -14.845  0.00  0.00    +0.295 HD
ENDBRANCH  13  14
ENDBRANCH  11  13
BRANCH  11  16
ATOM     16  CB  UNL     1      33.881 -23.947 -15.284  0.00  0.00    +0.043 C 
BRANCH  16  17
ATOM     17  CG  UNL     1      35.392 -24.181 -15.412  0.00  0.00    +0.112 C 
BRANCH  17  19
ATOM     18  OE2 UNL     1      36.029 -26.509 -15.743  0.00  0.00    -0.250 OA
ATOM     19  CD  UNL     1      35.832 -25.566 -14.990  0.00  0.00    +0.314 C 
BRANCH  19  20
ATOM     20  OE1 UNL     1      35.951 -25.663 -13.639  0.00  0.00    -0.480 OA
ATOM     21  HE1 UNL     1      35.305 -26.128 -13.145  0.00  0.00    +0.295 HD
ENDBRANCH  19  20
ENDBRANCH  17  19
ENDBRANCH  16  17
ENDBRANCH  11  16
ENDBRANCH   8  11
ENDBRANCH   2   9
BRANCH   1  22
ATOM     22  N   UNL     1      36.357 -18.718 -21.647  0.00  0.00    -0.302 N 
ATOM     23  C   UNL     1      37.725 -18.799 -22.120  0.00  0.00    +0.112 C 
BRANCH  22  24
ATOM     24  C   UNL     1      35.584 -17.524 -21.929  0.00  0.00    +0.118 C 
BRANCH  24  29
ATOM     25  O   UNL     1      34.386 -18.018 -25.390  0.00  0.00    -0.427 OA
ATOM     26  N   UNL     1      33.455 -15.952 -26.143  0.00  0.00    -0.294 NA
ATOM     27  N   UNL     1      33.551 -14.168 -24.488  0.00  0.00    -0.317 NA
ATOM     28  N   UNL     1      32.616 -13.818 -26.605  0.00  0.00    -0.283 N 
ATOM     29  C   UNL     1      35.016 -17.430 -23.311  0.00  0.00    +0.031 C 
ATOM     30  C   UNL     1      34.427 -16.301 -23.930  0.00  0.00    +0.180 C 
ATOM     31  C   UNL     1      34.053 -16.708 -25.207  0.00  0.00    +0.281 C 
ATOM     32  C   UNL     1      34.967 -18.444 -24.239  0.00  0.00    +0.176 C 
ATOM     33  C   UNL     1      34.153 -14.978 -23.587  0.00  0.00    +0.181 C 
ATOM     34  C   UNL     1      33.243 -14.699 -25.693  0.00  0.00    +0.200 C 
ATOM     35  H   UNL     1      32.364 -14.136 -27.502  0.00  0.00    +0.156 HD
ATOM     36  H   UNL     1      32.432 -12.887 -26.342  0.00  0.00    +0.156 HD
ATOM     37  N   UNL     1      34.493 -14.473 -22.319  0.00  0.00    -0.335 N 
ATOM     38  H   UNL     1      34.293 -13.537 -22.092  0.00  0.00    +0.144 HD
ATOM     39  H   UNL     1      34.932 -15.056 -21.658  0.00  0.00    +0.144 HD
ENDBRANCH  24  29
ENDBRANCH  22  24
ENDBRANCH   1  22
TORSDOF 11
ENDMDL
MODEL 4
REMARK VINA RESULT:     -11.1      1.110      1.894
REMARK  Name = 158376
REMARK  11 active torsions:
REMARK  status: ('A' for Active; 'I' for Inactive)
REMARK    1  A    between atoms: C_1  and  N_22
REMARK    2  A    between atoms: C_2  and  C_9
REMARK    3  A    between atoms: N_8  and  CA_11
REMARK    4  A    between atoms: CA_11  and  C_13
REMARK    5  A    between atoms: CA_11  and  CB_16
REMARK    6  A    between atoms: C_13  and  O_14
REMARK    7  A    between atoms: CB_16  and  CG_17
REMARK    8  A    between atoms: CG_17  and  CD_19
REMARK    9  A    between atoms: CD_19  and  OE1_20
REMARK   10  A    between atoms: N_22  and  C_24
REMARK   11  A    between atoms: C_24  and  C_29
REMARK                            x       y       z     vdW  Elec       q    Type
REMARK                         _______ _______ _______ _____ _____    ______ ____
ROOT
ATOM      1  C   UNL     1      35.377 -20.460 -20.766  0.00  0.00    +0.048 C 
ATOM      2  C   UNL     1      34.119 -22.288 -19.076  0.00  0.00    +0.053 C 
ATOM      3  C   UNL     1      33.985 -20.553 -20.753  0.00  0.00    +0.015 C 
ATOM      4  C   UNL     1      36.140 -21.279 -19.934  0.00  0.00    +0.015 C 
ATOM      5  C   UNL     1      33.357 -21.467 -19.908  0.00  0.00    +0.006 C 
ATOM      6  C   UNL     1      35.510 -22.194 -19.089  0.00  0.00    +0.006 C 
ENDROOT
BRANCH   2   9
ATOM      7  O   UNL     1      33.679 -24.460 -18.310  0.00  0.00    -0.270 OA
ATOM      8  N   UNL     1      32.611 -22.719 -17.211  0.00  0.00    -0.293 N 
ATOM      9  C   ACE A   0      33.449 -23.261 -18.175  0.00  0.00    +0.246 C 
ATOM     10  H   UNL     1      32.490 -21.743 -17.182  0.00  0.00    +0.150 HD
BRANCH   8  11
ATOM     11  CA  UNL     1      31.909 -23.531 -16.248  0.00  0.00    +0.172 C 
BRANCH  11  13
ATOM     12  OXT UNL     1      29.920 -22.554 -17.259  0.00  0.00    -0.248 OA
ATOM     13  C   UNL     1      30.436 -23.195 -16.352  0.00  0.00    +0.332 C 
BRANCH  13  14
ATOM     14  O   UNL     1      29.721 -23.725 -15.325  0.00  0.00    -0.479 OA
ATOM     15  H   UNL     1      28.952 -23.290 -15.015  0.00  0.00    +0.295 HD
ENDBRANCH  13  14
ENDBRANCH  11  13
BRANCH  11  16
ATOM     16  CB  UNL     1      32.478 -23.394 -14.831  0.00  0.00    +0.043 C 
BRANCH  16  17
ATOM     17  CG  UNL     1      33.446 -24.499 -14.390  0.00  0.00    +0.112 C 
BRANCH  17  19
ATOM     18  OE2 UNL     1      35.653 -23.682 -13.758  0.00  0.00    -0.250 OA
ATOM     19  CD  UNL     1      34.903 -24.153 -14.603  0.00  0.00    +0.314 C 
BRANCH  19  20
ATOM     20  OE1 UNL     1      35.293 -24.392 -15.883  0.00  0.00    -0.480 OA
ATOM     21  HE1 UNL     1      35.792 -23.750 -16.348  0.00  0.00    +0.295 HD
ENDBRANCH  19  20
ENDBRANCH  17  19
ENDBRANCH  16  17
ENDBRANCH  11  16
ENDBRANCH   8  11
ENDBRANCH   2   9
BRANCH   1  22
ATOM     22  N   UNL     1      36.014 -19.535 -21.620  0.00  0.00    -0.302 N 
ATOM     23  C   UNL     1      37.306 -18.981 -21.269  0.00  0.00    +0.112 C 
BRANCH  22  24
ATOM     24  C   UNL     1      35.390 -19.137 -22.867  0.00  0.00    +0.118 C 
BRANCH  24  29
ATOM     25  O   UNL     1      34.879 -15.496 -22.485  0.00  0.00    -0.427 OA
ATOM     26  N   UNL     1      33.812 -14.696 -24.465  0.00  0.00    -0.294 NA
ATOM     27  N   UNL     1      33.374 -16.433 -26.116  0.00  0.00    -0.317 NA
ATOM     28  N   UNL     1      32.775 -14.203 -26.503  0.00  0.00    -0.283 N 
ATOM     29  C   UNL     1      35.058 -17.682 -22.991  0.00  0.00    +0.031 C 
ATOM     30  C   UNL     1      34.430 -17.028 -24.078  0.00  0.00    +0.180 C 
ATOM     31  C   UNL     1      34.341 -15.685 -23.724  0.00  0.00    +0.281 C 
ATOM     32  C   UNL     1      35.308 -16.710 -22.051  0.00  0.00    +0.176 C 
ATOM     33  C   UNL     1      33.920 -17.384 -25.325  0.00  0.00    +0.181 C 
ATOM     34  C   UNL     1      33.354 -15.166 -25.644  0.00  0.00    +0.200 C 
ATOM     35  H   UNL     1      32.726 -13.260 -26.224  0.00  0.00    +0.156 HD
ATOM     36  H   UNL     1      32.420 -14.476 -27.380  0.00  0.00    +0.156 HD
ATOM     37  N   UNL     1      33.963 -18.717 -25.771  0.00  0.00    -0.335 N 
ATOM     38  H   UNL     1      33.599 -18.952 -26.655  0.00  0.00    +0.144 HD
ATOM     39  H   UNL     1      34.358 -19.416 -25.201  0.00  0.00    +0.144 HD
ENDBRANCH  24  29
ENDBRANCH  22  24
ENDBRANCH   1  22
TORSDOF 11
ENDMDL
MODEL 5
REMARK VINA RESULT:     -10.9      1.297      2.094
REMARK  Name = 158376
REMARK  11 active torsions:
REMARK  status: ('A' for Active; 'I' for Inactive)
REMARK    1  A    between atoms: C_1  and  N_22
REMARK    2  A    between atoms: C_2  and  C_9
REMARK    3  A    between atoms: N_8  and  CA_11
REMARK    4  A    between atoms: CA_11  and  C_13
REMARK    5  A    between atoms: CA_11  and  CB_16
REMARK    6  A    between atoms: C_13  and  O_14
REMARK    7  A    between atoms: CB_16  and  CG_17
REMARK    8  A    between atoms: CG_17  and  CD_19
REMARK    9  A    between atoms: CD_19  and  OE1_20
REMARK   10  A    between atoms: N_22  and  C_24
REMARK   11  A    between atoms: C_24  and  C_29
REMARK                            x       y       z     vdW  Elec       q    Type
REMARK                         _______ _______ _______ _____ _____    ______ ____
ROOT
ATOM      1  C   UNL     1      35.709 -19.846 -20.894  0.00  0.00    +0.048 C 
ATOM      2  C   UNL     1      34.493 -21.938 -19.505  0.00  0.00    +0.053 C 
ATOM      3  C   UNL     1      34.325 -20.010 -20.954  0.00  0.00    +0.015 C 
ATOM      4  C   UNL     1      36.485 -20.726 -20.140  0.00  0.00    +0.015 C 
ATOM      5  C   UNL     1      33.717 -21.056 -20.260  0.00  0.00    +0.006 C 
ATOM      6  C   UNL     1      35.876 -21.773 -19.446  0.00  0.00    +0.006 C 
ENDROOT
BRANCH   2   9
ATOM      7  O   UNL     1      33.899 -24.189 -19.226  0.00  0.00    -0.270 OA
ATOM      8  N   UNL     1      33.233 -22.710 -17.567  0.00  0.00    -0.293 N 
ATOM      9  C   ACE A   0      33.845 -23.051 -18.766  0.00  0.00    +0.246 C 
ATOM     10  H   UNL     1      33.242 -21.768 -17.282  0.00  0.00    +0.150 HD
BRANCH   8  11
ATOM     11  CA  UNL     1      32.584 -23.681 -16.724  0.00  0.00    +0.172 C 
BRANCH  11  13
ATOM     12  OXT UNL     1      30.571 -22.429 -17.282  0.00  0.00    -0.248 OA
ATOM     13  C   UNL     1      31.093 -23.420 -16.786  0.00  0.00    +0.332 C 
BRANCH  13  14
ATOM     14  O   UNL     1      30.376 -24.443 -16.253  0.00  0.00    -0.479 OA
ATOM     15  H   UNL     1      29.451 -24.356 -16.135  0.00  0.00    +0.295 HD
ENDBRANCH  13  14
ENDBRANCH  11  13
BRANCH  11  16
ATOM     16  CB  UNL     1      33.150 -23.702 -15.299  0.00  0.00    +0.043 C 
BRANCH  16  17
ATOM     17  CG  UNL     1      32.215 -23.181 -14.201  0.00  0.00    +0.112 C 
BRANCH  17  19
ATOM     18  OE2 UNL     1      30.696 -24.246 -12.621  0.00  0.00    -0.250 OA
ATOM     19  CD  UNL     1      31.756 -24.249 -13.233  0.00  0.00    +0.314 C 
BRANCH  19  20
ATOM     20  OE1 UNL     1      32.692 -25.223 -13.082  0.00  0.00    -0.480 OA
ATOM     21  HE1 UNL     1      32.747 -25.698 -12.276  0.00  0.00    +0.295 HD
ENDBRANCH  19  20
ENDBRANCH  17  19
ENDBRANCH  16  17
ENDBRANCH  11  16
ENDBRANCH   8  11
ENDBRANCH   2   9
BRANCH   1  22
ATOM     22  N   UNL     1      36.324 -18.788 -21.595  0.00  0.00    -0.302 N 
ATOM     23  C   UNL     1      37.698 -18.905 -22.043  0.00  0.00    +0.112 C 
BRANCH  22  24
ATOM     24  C   UNL     1      35.586 -17.576 -21.890  0.00  0.00    +0.118 C 
BRANCH  24  29
ATOM     25  O   UNL     1      34.396 -18.068 -25.355  0.00  0.00    -0.427 OA
ATOM     26  N   UNL     1      33.463 -16.003 -26.107  0.00  0.00    -0.294 NA
ATOM     27  N   UNL     1      33.552 -14.221 -24.449  0.00  0.00    -0.317 NA
ATOM     28  N   UNL     1      32.621 -13.869 -26.567  0.00  0.00    -0.283 N 
ATOM     29  C   UNL     1      35.021 -17.481 -23.273  0.00  0.00    +0.031 C 
ATOM     30  C   UNL     1      34.431 -16.352 -23.892  0.00  0.00    +0.180 C 
ATOM     31  C   UNL     1      34.061 -16.759 -25.170  0.00  0.00    +0.281 C 
ATOM     32  C   UNL     1      34.976 -18.494 -24.203  0.00  0.00    +0.176 C 
ATOM     33  C   UNL     1      34.153 -15.031 -23.548  0.00  0.00    +0.181 C 
ATOM     34  C   UNL     1      33.248 -14.750 -25.656  0.00  0.00    +0.200 C 
ATOM     35  H   UNL     1      32.371 -14.187 -27.465  0.00  0.00    +0.156 HD
ATOM     36  H   UNL     1      32.434 -12.940 -26.304  0.00  0.00    +0.156 HD
ATOM     37  N   UNL     1      34.490 -14.527 -22.278  0.00  0.00    -0.335 N 
ATOM     38  H   UNL     1      34.287 -13.591 -22.051  0.00  0.00    +0.144 HD
ATOM     39  H   UNL     1      34.929 -15.110 -21.617  0.00  0.00    +0.144 HD
ENDBRANCH  24  29
ENDBRANCH  22  24
ENDBRANCH   1  22
TORSDOF 11
ENDMDL
MODEL 6
REMARK VINA RESULT:     -10.8      3.907     10.638
REMARK  Name = 158376
REMARK  11 active torsions:
REMARK  status: ('A' for Active; 'I' for Inactive)
REMARK    1  A    between atoms: C_1  and  N_22
REMARK    2  A    between atoms: C_2  and  C_9
REMARK    3  A    between atoms: N_8  and  CA_11
REMARK    4  A    between atoms: CA_11  and  C_13
REMARK    5  A    between atoms: CA_11  and  CB_16
REMARK    6  A    between atoms: C_13  and  O_14
REMARK    7  A    between atoms: CB_16  and  CG_17
REMARK    8  A    between atoms: CG_17  and  CD_19
REMARK    9  A    between atoms: CD_19  and  OE1_20
REMARK   10  A    between atoms: N_22  and  C_24
REMARK   11  A    between atoms: C_24  and  C_29
REMARK                            x       y       z     vdW  Elec       q    Type
REMARK                         _______ _______ _______ _____ _____    ______ ____
ROOT
ATOM      1  C   UNL     1      35.371 -17.491 -22.560  0.00  0.00    +0.048 C 
ATOM      2  C   UNL     1      34.278 -15.150 -23.613  0.00  0.00    +0.053 C 
ATOM      3  C   UNL     1      34.992 -17.441 -23.902  0.00  0.00    +0.015 C 
ATOM      4  C   UNL     1      35.203 -16.372 -21.745  0.00  0.00    +0.015 C 
ATOM      5  C   UNL     1      34.446 -16.270 -24.428  0.00  0.00    +0.006 C 
ATOM      6  C   UNL     1      34.656 -15.201 -22.272  0.00  0.00    +0.006 C 
ENDROOT
BRANCH   2   9
ATOM      7  O   UNL     1      32.868 -13.982 -25.077  0.00  0.00    -0.270 OA
ATOM      8  N   UNL     1      34.131 -12.718 -23.598  0.00  0.00    -0.293 N 
ATOM      9  C   ACE A   0      33.696 -13.903 -24.173  0.00  0.00    +0.246 C 
ATOM     10  H   UNL     1      34.800 -12.758 -22.877  0.00  0.00    +0.150 HD
BRANCH   8  11
ATOM     11  CA  UNL     1      33.641 -11.428 -24.015  0.00  0.00    +0.172 C 
BRANCH  11  13
ATOM     12  OXT UNL     1      35.093 -10.892 -25.896  0.00  0.00    -0.248 OA
ATOM     13  C   UNL     1      34.773 -10.716 -24.727  0.00  0.00    +0.332 C 
BRANCH  13  14
ATOM     14  O   UNL     1      35.389  -9.810 -23.922  0.00  0.00    -0.479 OA
ATOM     15  H   UNL     1      34.927  -9.047 -23.638  0.00  0.00    +0.295 HD
ENDBRANCH  13  14
ENDBRANCH  11  13
BRANCH  11  16
ATOM     16  CB  UNL     1      33.032 -10.623 -22.861  0.00  0.00    +0.043 C 
BRANCH  16  17
ATOM     17  CG  UNL     1      31.693 -11.140 -22.320  0.00  0.00    +0.112 C 
BRANCH  17  19
ATOM     18  OE2 UNL     1      31.974 -11.479 -19.923  0.00  0.00    -0.250 OA
ATOM     19  CD  UNL     1      31.821 -11.944 -21.044  0.00  0.00    +0.314 C 
BRANCH  19  20
ATOM     20  OE1 UNL     1      31.786 -13.281 -21.289  0.00  0.00    -0.480 OA
ATOM     21  HE1 UNL     1      32.160 -13.622 -22.077  0.00  0.00    +0.295 HD
ENDBRANCH  19  20
ENDBRANCH  17  19
ENDBRANCH  16  17
ENDBRANCH  11  16
ENDBRANCH   8  11
ENDBRANCH   2   9
BRANCH   1  22
ATOM     22  N   UNL     1      35.925 -18.674 -22.028  0.00  0.00    -0.302 N 
ATOM     23  C   UNL     1      37.330 -18.734 -21.678  0.00  0.00    +0.112 C 
BRANCH  22  24
ATOM     24  C   UNL     1      35.092 -19.841 -21.810  0.00  0.00    +0.118 C 
BRANCH  24  29
ATOM     25  O   UNL     1      36.732 -21.773 -19.119  0.00  0.00    -0.427 OA
ATOM     26  N   UNL     1      35.021 -22.831 -17.833  0.00  0.00    -0.294 NA
ATOM     27  N   UNL     1      32.765 -22.363 -18.622  0.00  0.00    -0.317 NA
ATOM     28  N   UNL     1      33.146 -23.736 -16.765  0.00  0.00    -0.283 N 
ATOM     29  C   UNL     1      35.470 -20.698 -20.642  0.00  0.00    +0.031 C 
ATOM     30  C   UNL     1      34.605 -21.401 -19.769  0.00  0.00    +0.180 C 
ATOM     31  C   UNL     1      35.423 -22.047 -18.848  0.00  0.00    +0.281 C 
ATOM     32  C   UNL     1      36.748 -20.957 -20.205  0.00  0.00    +0.176 C 
ATOM     33  C   UNL     1      33.231 -21.584 -19.625  0.00  0.00    +0.181 C 
ATOM     34  C   UNL     1      33.676 -22.930 -17.799  0.00  0.00    +0.200 C 
ATOM     35  H   UNL     1      33.752 -24.180 -16.129  0.00  0.00    +0.156 HD
ATOM     36  H   UNL     1      32.172 -23.852 -16.682  0.00  0.00    +0.156 HD
ATOM     37  N   UNL     1      32.322 -20.973 -20.508  0.00  0.00    -0.335 N 
ATOM     38  H   UNL     1      31.355 -21.112 -20.393  0.00  0.00    +0.144 HD
ATOM     39  H   UNL     1      32.653 -20.405 -21.241  0.00  0.00    +0.144 HD
ENDBRANCH  24  29
ENDBRANCH  22  24
ENDBRANCH   1  22
TORSDOF 11
ENDMDL
MODEL 7
REMARK VINA RESULT:     -10.8      2.019      2.849
REMARK  Name = 158376
REMARK  11 active torsions:
REMARK  status: ('A' for Active; 'I' for Inactive)
REMARK    1  A    between atoms: C_1  and  N_22
REMARK    2  A    between atoms: C_2  and  C_9
REMARK    3  A    between atoms: N_8  and  CA_11
REMARK    4  A    between atoms: CA_11  and  C_13
REMARK    5  A    between atoms: CA_11  and  CB_16
REMARK    6  A    between atoms: C_13  and  O_14
REMARK    7  A    between atoms: CB_16  and  CG_17
REMARK    8  A    between atoms: CG_17  and  CD_19
REMARK    9  A    between atoms: CD_19  and  OE1_20
REMARK   10  A    between atoms: N_22  and  C_24
REMARK   11  A    between atoms: C_24  and  C_29
REMARK                            x       y       z     vdW  Elec       q    Type
REMARK                         _______ _______ _______ _____ _____    ______ ____
ROOT
ATOM      1  C   UNL     1      35.609 -20.459 -20.697  0.00  0.00    +0.048 C 
ATOM      2  C   UNL     1      34.564 -22.297 -18.876  0.00  0.00    +0.053 C 
ATOM      3  C   UNL     1      36.465 -21.166 -19.851  0.00  0.00    +0.015 C 
ATOM      4  C   UNL     1      34.232 -20.672 -20.633  0.00  0.00    +0.015 C 
ATOM      5  C   UNL     1      35.942 -22.085 -18.941  0.00  0.00    +0.006 C 
ATOM      6  C   UNL     1      33.710 -21.591 -19.721  0.00  0.00    +0.006 C 
ENDROOT
BRANCH   2   9
ATOM      7  O   UNL     1      33.358 -24.231 -18.325  0.00  0.00    -0.270 OA
ATOM      8  N   UNL     1      34.297 -23.039 -16.570  0.00  0.00    -0.293 N 
ATOM      9  C   ACE A   0      34.009 -23.276 -17.907  0.00  0.00    +0.246 C 
ATOM     10  H   UNL     1      34.828 -22.244 -16.333  0.00  0.00    +0.150 HD
BRANCH   8  11
ATOM     11  CA  UNL     1      33.850 -23.911 -15.514  0.00  0.00    +0.172 C 
BRANCH  11  13
ATOM     12  OXT UNL     1      31.562 -23.077 -15.537  0.00  0.00    -0.248 OA
ATOM     13  C   UNL     1      32.595 -23.306 -14.920  0.00  0.00    +0.332 C 
BRANCH  13  14
ATOM     14  O   UNL     1      32.725 -23.074 -13.587  0.00  0.00    -0.479 OA
ATOM     15  H   UNL     1      32.802 -22.197 -13.270  0.00  0.00    +0.295 HD
ENDBRANCH  13  14
ENDBRANCH  11  13
BRANCH  11  16
ATOM     16  CB  UNL     1      34.946 -24.201 -14.481  0.00  0.00    +0.043 C 
BRANCH  16  17
ATOM     17  CG  UNL     1      36.200 -24.903 -15.017  0.00  0.00    +0.112 C 
BRANCH  17  19
ATOM     18  OE2 UNL     1      38.238 -23.958 -14.072  0.00  0.00    -0.250 OA
ATOM     19  CD  UNL     1      37.440 -24.036 -14.996  0.00  0.00    +0.314 C 
BRANCH  19  20
ATOM     20  OE1 UNL     1      37.556 -23.301 -16.134  0.00  0.00    -0.480 OA
ATOM     21  HE1 UNL     1      38.347 -23.334 -16.634  0.00  0.00    +0.295 HD
ENDBRANCH  19  20
ENDBRANCH  17  19
ENDBRANCH  16  17
ENDBRANCH  11  16
ENDBRANCH   8  11
ENDBRANCH   2   9
BRANCH   1  22
ATOM     22  N   UNL     1      36.137 -19.532 -21.618  0.00  0.00    -0.302 N 
ATOM     23  C   UNL     1      37.438 -18.934 -21.395  0.00  0.00    +0.112 C 
BRANCH  22  24
ATOM     24  C   UNL     1      35.391 -19.174 -22.809  0.00  0.00    +0.118 C 
BRANCH  24  29
ATOM     25  O   UNL     1      34.900 -15.524 -22.493  0.00  0.00    -0.427 OA
ATOM     26  N   UNL     1      33.835 -14.755 -24.487  0.00  0.00    -0.294 NA
ATOM     27  N   UNL     1      33.387 -16.518 -26.106  0.00  0.00    -0.317 NA
ATOM     28  N   UNL     1      32.799 -14.293 -26.533  0.00  0.00    -0.283 N 
ATOM     29  C   UNL     1      35.066 -17.720 -22.959  0.00  0.00    +0.031 C 
ATOM     30  C   UNL     1      34.441 -17.082 -24.058  0.00  0.00    +0.180 C 
ATOM     31  C   UNL     1      34.360 -15.732 -23.728  0.00  0.00    +0.281 C 
ATOM     32  C   UNL     1      35.323 -16.732 -22.037  0.00  0.00    +0.176 C 
ATOM     33  C   UNL     1      33.928 -17.458 -25.297  0.00  0.00    +0.181 C 
ATOM     34  C   UNL     1      33.375 -15.242 -25.657  0.00  0.00    +0.200 C 
ATOM     35  H   UNL     1      32.757 -13.345 -26.270  0.00  0.00    +0.156 HD
ATOM     36  H   UNL     1      32.443 -14.580 -27.404  0.00  0.00    +0.156 HD
ATOM     37  N   UNL     1      33.964 -18.799 -25.720  0.00  0.00    -0.335 N 
ATOM     38  H   UNL     1      33.597 -19.048 -26.598  0.00  0.00    +0.144 HD
ATOM     39  H   UNL     1      34.356 -19.489 -25.137  0.00  0.00    +0.144 HD
ENDBRANCH  24  29
ENDBRANCH  22  24
ENDBRANCH   1  22
TORSDOF 11
ENDMDL
MODEL 8
REMARK VINA RESULT:     -10.8      4.464     11.196
REMARK  Name = 158376
REMARK  11 active torsions:
REMARK  status: ('A' for Active; 'I' for Inactive)
REMARK    1  A    between atoms: C_1  and  N_22
REMARK    2  A    between atoms: C_2  and  C_9
REMARK    3  A    between atoms: N_8  and  CA_11
REMARK    4  A    between atoms: CA_11  and  C_13
REMARK    5  A    between atoms: CA_11  and  CB_16
REMARK    6  A    between atoms: C_13  and  O_14
REMARK    7  A    between atoms: CB_16  and  CG_17
REMARK    8  A    between atoms: CG_17  and  CD_19
REMARK    9  A    between atoms: CD_19  and  OE1_20
REMARK   10  A    between atoms: N_22  and  C_24
REMARK   11  A    between atoms: C_24  and  C_29
REMARK                            x       y       z     vdW  Elec       q    Type
REMARK                         _______ _______ _______ _____ _____    ______ ____
ROOT
ATOM      1  C   UNL     1      34.414 -23.204 -16.597  0.00  0.00    +0.048 C 
ATOM      2  C   UNL     1      35.454 -21.939 -18.857  0.00  0.00    +0.053 C 
ATOM      3  C   UNL     1      33.624 -23.054 -17.737  0.00  0.00    +0.015 C 
ATOM      4  C   UNL     1      35.723 -22.722 -16.586  0.00  0.00    +0.015 C 
ATOM      5  C   UNL     1      34.144 -22.422 -18.866  0.00  0.00    +0.006 C 
ATOM      6  C   UNL     1      36.242 -22.089 -17.717  0.00  0.00    +0.006 C 
ENDROOT
BRANCH   2   9
ATOM      7  O   UNL     1      37.178 -21.465 -20.373  0.00  0.00    -0.270 OA
ATOM      8  N   UNL     1      35.123 -20.462 -20.767  0.00  0.00    -0.293 N 
ATOM      9  C   ACE A   0      36.007 -21.266 -20.060  0.00  0.00    +0.246 C 
ATOM     10  H   UNL     1      34.202 -20.365 -20.435  0.00  0.00    +0.150 HD
BRANCH   8  11
ATOM     11  CA  UNL     1      35.503 -19.763 -21.968  0.00  0.00    +0.172 C 
BRANCH  11  13
ATOM     12  OXT UNL     1      35.942 -17.674 -20.796  0.00  0.00    -0.248 OA
ATOM     13  C   UNL     1      36.320 -18.555 -21.558  0.00  0.00    +0.332 C 
BRANCH  13  14
ATOM     14  O   UNL     1      37.562 -18.572 -22.109  0.00  0.00    -0.479 OA
ATOM     15  H   UNL     1      38.020 -19.382 -22.207  0.00  0.00    +0.295 HD
ENDBRANCH  13  14
ENDBRANCH  11  13
BRANCH  11  16
ATOM     16  CB  UNL     1      34.303 -19.425 -22.862  0.00  0.00    +0.043 C 
BRANCH  16  17
ATOM     17  CG  UNL     1      34.549 -18.357 -23.934  0.00  0.00    +0.112 C 
BRANCH  17  19
ATOM     18  OE2 UNL     1      34.100 -19.774 -25.864  0.00  0.00    -0.250 OA
ATOM     19  CD  UNL     1      33.966 -18.704 -25.286  0.00  0.00    +0.314 C 
BRANCH  19  20
ATOM     20  OE1 UNL     1      33.290 -17.655 -25.824  0.00  0.00    -0.480 OA
ATOM     21  HE1 UNL     1      33.159 -17.609 -26.751  0.00  0.00    +0.295 HD
ENDBRANCH  19  20
ENDBRANCH  17  19
ENDBRANCH  16  17
ENDBRANCH  11  16
ENDBRANCH   8  11
ENDBRANCH   2   9
BRANCH   1  22
ATOM     22  N   UNL     1      33.890 -23.844 -15.455  0.00  0.00    -0.302 N 
ATOM     23  C   UNL     1      32.466 -24.085 -15.338  0.00  0.00    +0.112 C 
BRANCH  22  24
ATOM     24  C   UNL     1      34.771 -24.282 -14.390  0.00  0.00    +0.118 C 
BRANCH  24  29
ATOM     25  O   UNL     1      36.658 -27.176 -15.703  0.00  0.00    -0.427 OA
ATOM     26  N   UNL     1      38.893 -27.027 -14.875  0.00  0.00    -0.294 NA
ATOM     27  N   UNL     1      39.289 -25.089 -13.455  0.00  0.00    -0.317 NA
ATOM     28  N   UNL     1      40.992 -26.625 -13.924  0.00  0.00    -0.283 N 
ATOM     29  C   UNL     1      35.769 -25.333 -14.765  0.00  0.00    +0.031 C 
ATOM     30  C   UNL     1      37.128 -25.415 -14.375  0.00  0.00    +0.180 C 
ATOM     31  C   UNL     1      37.636 -26.563 -14.976  0.00  0.00    +0.281 C 
ATOM     32  C   UNL     1      35.534 -26.426 -15.568  0.00  0.00    +0.176 C 
ATOM     33  C   UNL     1      38.010 -24.672 -13.594  0.00  0.00    +0.181 C 
ATOM     34  C   UNL     1      39.646 -26.225 -14.096  0.00  0.00    +0.200 C 
ATOM     35  H   UNL     1      41.321 -27.443 -14.362  0.00  0.00    +0.156 HD
ATOM     36  H   UNL     1      41.598 -26.086 -13.367  0.00  0.00    +0.156 HD
ATOM     37  N   UNL     1      37.589 -23.496 -12.945  0.00  0.00    -0.335 N 
ATOM     38  H   UNL     1      38.225 -22.983 -12.397  0.00  0.00    +0.144 HD
ATOM     39  H   UNL     1      36.660 -23.186 -13.041  0.00  0.00    +0.144 HD
ENDBRANCH  24  29
ENDBRANCH  22  24
ENDBRANCH   1  22
TORSDOF 11
ENDMDL
MODEL 9
REMARK VINA RESULT:     -10.6      3.318     10.914
REMARK  Name = 158376
REMARK  11 active torsions:
REMARK  status: ('A' for Active; 'I' for Inactive)
REMARK    1  A    between atoms: C_1  and  N_22
REMARK    2  A    between atoms: C_2  and  C_9
REMARK    3  A    between atoms: N_8  and  CA_11
REMARK    4  A    between atoms: CA_11  and  C_13
REMARK    5  A    between atoms: CA_11  and  CB_16
REMARK    6  A    between atoms: C_13  and  O_14
REMARK    7  A    between atoms: CB_16  and  CG_17
REMARK    8  A    between atoms: CG_17  and  CD_19
REMARK    9  A    between atoms: CD_19  and  OE1_20
REMARK   10  A    between atoms: N_22  and  C_24
REMARK   11  A    between atoms: C_24  and  C_29
REMARK                            x       y       z     vdW  Elec       q    Type
REMARK                         _______ _______ _______ _____ _____    ______ ____
ROOT
ATOM      1  C   UNL     1      34.011 -22.561 -18.205  0.00  0.00    +0.048 C 
ATOM      2  C   UNL     1      35.336 -20.896 -20.010  0.00  0.00    +0.053 C 
ATOM      3  C   UNL     1      35.399 -22.434 -18.146  0.00  0.00    +0.015 C 
ATOM      4  C   UNL     1      33.286 -21.856 -19.166  0.00  0.00    +0.015 C 
ATOM      5  C   UNL     1      36.061 -21.601 -19.048  0.00  0.00    +0.006 C 
ATOM      6  C   UNL     1      33.949 -21.024 -20.068  0.00  0.00    +0.006 C 
ENDROOT
BRANCH   2   9
ATOM      7  O   UNL     1      37.261 -19.886 -20.888  0.00  0.00    -0.270 OA
ATOM      8  N   UNL     1      35.246 -19.391 -21.924  0.00  0.00    -0.293 N 
ATOM      9  C   ACE A   0      36.042 -20.009 -20.970  0.00  0.00    +0.246 C 
ATOM     10  H   UNL     1      34.275 -19.551 -21.907  0.00  0.00    +0.150 HD
BRANCH   8  11
ATOM     11  CA  UNL     1      35.785 -18.521 -22.939  0.00  0.00    +0.172 C 
BRANCH  11  13
ATOM     12  OXT UNL     1      35.241 -16.736 -21.375  0.00  0.00    -0.248 OA
ATOM     13  C   UNL     1      35.507 -17.094 -22.515  0.00  0.00    +0.332 C 
BRANCH  13  14
ATOM     14  O   UNL     1      35.624 -16.224 -23.553  0.00  0.00    -0.479 OA
ATOM     15  H   UNL     1      36.460 -15.860 -23.766  0.00  0.00    +0.295 HD
ENDBRANCH  13  14
ENDBRANCH  11  13
BRANCH  11  16
ATOM     16  CB  UNL     1      35.273 -18.861 -24.344  0.00  0.00    +0.043 C 
BRANCH  16  17
ATOM     17  CG  UNL     1      33.755 -19.027 -24.480  0.00  0.00    +0.112 C 
BRANCH  17  19
ATOM     18  OE2 UNL     1      32.075 -18.464 -26.153  0.00  0.00    -0.250 OA
ATOM     19  CD  UNL     1      33.155 -18.239 -25.624  0.00  0.00    +0.314 C 
BRANCH  19  20
ATOM     20  OE1 UNL     1      33.988 -17.248 -26.040  0.00  0.00    -0.480 OA
ATOM     21  HE1 UNL     1      34.910 -17.405 -26.095  0.00  0.00    +0.295 HD
ENDBRANCH  19  20
ENDBRANCH  17  19
ENDBRANCH  16  17
ENDBRANCH  11  16
ENDBRANCH   8  11
ENDBRANCH   2   9
BRANCH   1  22
ATOM     22  N   UNL     1      33.341 -23.402 -17.293  0.00  0.00    -0.302 N 
ATOM     23  C   UNL     1      31.920 -23.244 -17.057  0.00  0.00    +0.112 C 
BRANCH  22  24
ATOM     24  C   UNL     1      34.062 -24.445 -16.590  0.00  0.00    +0.118 C 
BRANCH  24  29
ATOM     25  O   UNL     1      33.165 -24.418 -13.004  0.00  0.00    -0.427 OA
ATOM     26  N   UNL     1      35.162 -24.029 -11.754  0.00  0.00    -0.294 NA
ATOM     27  N   UNL     1      37.151 -23.767 -13.135  0.00  0.00    -0.317 NA
ATOM     28  N   UNL     1      37.262 -23.636 -10.800  0.00  0.00    -0.283 N 
ATOM     29  C   UNL     1      33.998 -24.383 -15.095  0.00  0.00    +0.031 C 
ATOM     30  C   UNL     1      35.065 -24.162 -14.191  0.00  0.00    +0.180 C 
ATOM     31  C   UNL     1      34.507 -24.193 -12.916  0.00  0.00    +0.281 C 
ATOM     32  C   UNL     1      32.868 -24.531 -14.324  0.00  0.00    +0.176 C 
ATOM     33  C   UNL     1      36.438 -23.940 -14.271  0.00  0.00    +0.181 C 
ATOM     34  C   UNL     1      36.478 -23.822 -11.963  0.00  0.00    +0.200 C 
ATOM     35  H   UNL     1      36.837 -23.663  -9.912  0.00  0.00    +0.156 HD
ATOM     36  H   UNL     1      38.230 -23.480 -10.879  0.00  0.00    +0.156 HD
ATOM     37  N   UNL     1      37.093 -23.891 -15.515  0.00  0.00    -0.335 N 
ATOM     38  H   UNL     1      38.064 -23.733 -15.554  0.00  0.00    +0.144 HD
ATOM     39  H   UNL     1      36.581 -24.015 -16.347  0.00  0.00    +0.144 HD
ENDBRANCH  24  29
ENDBRANCH  22  24
ENDBRANCH   1  22
TORSDOF 11
ENDMDL
