MODEL 1
REMARK VINA RESULT:     -11.8      0.000      0.000
REMARK  Name = 24883488
REMARK  8 active torsions:
REMARK  status: ('A' for Active; 'I' for Inactive)
REMARK    1  A    between atoms: N_2  and  C_11
REMARK    2  A    between atoms: C_3  and  C_19
REMARK    3  A    between atoms: C_19  and  C_20
REMARK    4  A    between atoms: C_20  and  C_23
REMARK    5  A    between atoms: N_22  and  C_25
REMARK    6  A    between atoms: C_27  and  O_31
REMARK    7  A    between atoms: O_31  and  C_32
REMARK    8  A    between atoms: C_32  and  C_34
REMARK                            x       y       z     vdW  Elec       q    Type
REMARK                         _______ _______ _______ _____ _____    ______ ____
ROOT
ATOM      1  O   UNL     1      33.844 -24.273 -17.961  0.00  0.00    -0.275 OA
ATOM      2  N   UNL     1      35.090 -22.441 -17.164  0.00  0.00    -0.284 N 
ATOM      3  C   UNL     1      34.168 -23.090 -17.994  0.00  0.00    +0.227 C 
ATOM      4  H   UNL     1      35.243 -21.488 -17.354  0.00  0.00    +0.155 HD
ENDROOT
BRANCH   2  11
ATOM      5  O   UNL     1      33.990 -24.322 -12.543  0.00  0.00    -0.282 OA
ATOM      6  O   UNL     1      39.298 -24.705 -12.942  0.00  0.00    -0.270 OA
ATOM      7  O   UNL     1      35.401 -25.334 -10.537  0.00  0.00    -0.266 OA
ATOM      8  N   UNL     1      37.363 -25.019 -11.739  0.00  0.00    -0.246 N 
ATOM      9  C   UNL     1      35.898 -23.940 -13.886  0.00  0.00    +0.049 C 
ATOM     10  C   UNL     1      37.286 -24.047 -13.974  0.00  0.00    +0.057 C 
ATOM     11  C   UNL     1      35.820 -22.975 -16.101  0.00  0.00    +0.050 C 
ATOM     12  C   UNL     1      35.162 -23.403 -14.948  0.00  0.00    +0.018 C 
ATOM     13  C   UNL     1      37.941 -23.615 -15.133  0.00  0.00    +0.006 C 
ATOM     14  C   UNL     1      37.207 -23.081 -16.194  0.00  0.00    +0.015 C 
ATOM     15  C   UNL     1      35.202 -24.390 -12.674  0.00  0.00    +0.249 C 
ATOM     16  C   UNL     1      38.077 -24.611 -12.860  0.00  0.00    +0.252 C 
ATOM     17  C   UNL     1      35.996 -24.963 -11.539  0.00  0.00    +0.291 C 
ATOM     18  H   UNL     1      37.894 -25.394 -11.000  0.00  0.00    +0.158 HD
ENDBRANCH   2  11
BRANCH   3  19
ATOM     19  C   UNL     1      33.581 -22.159 -19.043  0.00  0.00    +0.095 C 
BRANCH  19  20
ATOM     20  C   UNL     1      34.679 -21.423 -19.807  0.00  0.00    +0.095 C 
BRANCH  20  23
ATOM     21  O   UNL     1      32.882 -20.281 -20.894  0.00  0.00    -0.275 OA
ATOM     22  N   UNL     1      35.083 -19.885 -21.617  0.00  0.00    -0.284 N 
ATOM     23  C   UNL     1      34.093 -20.473 -20.839  0.00  0.00    +0.227 C 
ATOM     24  H   UNL     1      36.010 -20.148 -21.410  0.00  0.00    +0.155 HD
BRANCH  22  25
ATOM     25  C   UNL     1      34.919 -18.956 -22.669  0.00  0.00    +0.053 C 
ATOM     26  C   UNL     1      35.194 -17.605 -22.456  0.00  0.00    +0.052 C 
ATOM     27  C   UNL     1      35.031 -16.687 -23.494  0.00  0.00    +0.140 C 
ATOM     28  C   UNL     1      34.480 -19.389 -23.919  0.00  0.00    +0.015 C 
ATOM     29  C   UNL     1      34.593 -17.121 -24.745  0.00  0.00    +0.037 C 
ATOM     30  C   UNL     1      34.317 -18.472 -24.958  0.00  0.00    +0.004 C 
BRANCH  27  31
ATOM     31  O   UNL     1      35.300 -15.369 -23.287  0.00  0.00    -0.472 OA
BRANCH  31  32
ATOM     32  C   UNL     1      34.415 -14.654 -22.426  0.00  0.00    +0.243 C 
BRANCH  32  34
ATOM     33  F   UNL     1      32.952 -14.269 -24.207  0.00  0.00    -0.230 F 
ATOM     34  C   UNL     1      33.667 -13.624 -23.243  0.00  0.00    +0.240 C 
ENDBRANCH  32  34
ENDBRANCH  31  32
ENDBRANCH  27  31
ENDBRANCH  22  25
ENDBRANCH  20  23
ENDBRANCH  19  20
ENDBRANCH   3  19
TORSDOF 8
ENDMDL
MODEL 2
REMARK VINA RESULT:     -11.7      3.550      6.196
REMARK  Name = 24883488
REMARK  8 active torsions:
REMARK  status: ('A' for Active; 'I' for Inactive)
REMARK    1  A    between atoms: N_2  and  C_11
REMARK    2  A    between atoms: C_3  and  C_19
REMARK    3  A    between atoms: C_19  and  C_20
REMARK    4  A    between atoms: C_20  and  C_23
REMARK    5  A    between atoms: N_22  and  C_25
REMARK    6  A    between atoms: C_27  and  O_31
REMARK    7  A    between atoms: O_31  and  C_32
REMARK    8  A    between atoms: C_32  and  C_34
REMARK                            x       y       z     vdW  Elec       q    Type
REMARK                         _______ _______ _______ _____ _____    ______ ____
ROOT
ATOM      1  O   UNL     1      35.717 -25.125 -15.748  0.00  0.00    -0.275 OA
ATOM      2  N   UNL     1      34.572 -23.536 -14.442  0.00  0.00    -0.284 N 
ATOM      3  C   UNL     1      35.695 -24.131 -15.029  0.00  0.00    +0.227 C 
ATOM      4  H   UNL     1      34.749 -22.754 -13.871  0.00  0.00    +0.155 HD
ENDROOT
BRANCH   2  11
ATOM      5  O   UNL     1      30.687 -22.311 -17.525  0.00  0.00    -0.282 OA
ATOM      6  O   UNL     1      28.661 -25.906 -14.142  0.00  0.00    -0.270 OA
ATOM      7  O   UNL     1      28.146 -23.042 -17.733  0.00  0.00    -0.266 OA
ATOM      8  N   UNL     1      28.397 -24.482 -15.929  0.00  0.00    -0.246 N 
ATOM      9  C   UNL     1      31.097 -23.729 -15.678  0.00  0.00    +0.049 C 
ATOM     10  C   UNL     1      30.551 -24.668 -14.803  0.00  0.00    +0.057 C 
ATOM     11  C   UNL     1      33.233 -23.911 -14.562  0.00  0.00    +0.050 C 
ATOM     12  C   UNL     1      32.438 -23.348 -15.560  0.00  0.00    +0.018 C 
ATOM     13  C   UNL     1      31.354 -25.229 -13.802  0.00  0.00    +0.006 C 
ATOM     14  C   UNL     1      32.693 -24.850 -13.685  0.00  0.00    +0.015 C 
ATOM     15  C   UNL     1      30.263 -23.135 -16.731  0.00  0.00    +0.249 C 
ATOM     16  C   UNL     1      29.137 -25.079 -14.915  0.00  0.00    +0.252 C 
ATOM     17  C   UNL     1      28.826 -23.546 -16.851  0.00  0.00    +0.291 C 
ATOM     18  H   UNL     1      27.455 -24.759 -15.999  0.00  0.00    +0.158 HD
ENDBRANCH   2  11
BRANCH   3  19
ATOM     19  C   UNL     1      36.987 -23.424 -14.652  0.00  0.00    +0.095 C 
BRANCH  19  20
ATOM     20  C   UNL     1      37.832 -23.118 -15.886  0.00  0.00    +0.095 C 
BRANCH  20  23
ATOM     21  O   UNL     1      37.412 -20.884 -16.625  0.00  0.00    -0.275 OA
ATOM     22  N   UNL     1      36.329 -22.664 -17.713  0.00  0.00    -0.284 N 
ATOM     23  C   UNL     1      37.165 -22.078 -16.770  0.00  0.00    +0.227 C 
ATOM     24  H   UNL     1      36.273 -23.647 -17.692  0.00  0.00    +0.155 HD
BRANCH  22  25
ATOM     25  C   UNL     1      35.548 -22.017 -18.697  0.00  0.00    +0.053 C 
ATOM     26  C   UNL     1      36.159 -21.189 -19.640  0.00  0.00    +0.052 C 
ATOM     27  C   UNL     1      35.389 -20.550 -20.611  0.00  0.00    +0.140 C 
ATOM     28  C   UNL     1      34.167 -22.205 -18.727  0.00  0.00    +0.015 C 
ATOM     29  C   UNL     1      34.006 -20.739 -20.640  0.00  0.00    +0.037 C 
ATOM     30  C   UNL     1      33.395 -21.567 -19.698  0.00  0.00    +0.004 C 
BRANCH  27  31
ATOM     31  O   UNL     1      35.984 -19.742 -21.531  0.00  0.00    -0.472 OA
BRANCH  31  32
ATOM     32  C   UNL     1      35.367 -18.481 -21.782  0.00  0.00    +0.243 C 
BRANCH  32  34
ATOM     33  F   UNL     1      34.557 -19.470 -23.738  0.00  0.00    -0.230 F 
ATOM     34  C   UNL     1      35.147 -18.334 -23.271  0.00  0.00    +0.240 C 
ENDBRANCH  32  34
ENDBRANCH  31  32
ENDBRANCH  27  31
ENDBRANCH  22  25
ENDBRANCH  20  23
ENDBRANCH  19  20
ENDBRANCH   3  19
TORSDOF 8
ENDMDL
MODEL 3
REMARK VINA RESULT:     -11.5      2.913      4.074
REMARK  Name = 24883488
REMARK  8 active torsions:
REMARK  status: ('A' for Active; 'I' for Inactive)
REMARK    1  A    between atoms: N_2  and  C_11
REMARK    2  A    between atoms: C_3  and  C_19
REMARK    3  A    between atoms: C_19  and  C_20
REMARK    4  A    between atoms: C_20  and  C_23
REMARK    5  A    between atoms: N_22  and  C_25
REMARK    6  A    between atoms: C_27  and  O_31
REMARK    7  A    between atoms: O_31  and  C_32
REMARK    8  A    between atoms: C_32  and  C_34
REMARK                            x       y       z     vdW  Elec       q    Type
REMARK                         _______ _______ _______ _____ _____    ______ ____
ROOT
ATOM      1  O   UNL     1      36.627 -21.756 -17.890  0.00  0.00    -0.275 OA
ATOM      2  N   UNL     1      34.577 -22.534 -18.747  0.00  0.00    -0.284 N 
ATOM      3  C   UNL     1      35.863 -21.986 -18.822  0.00  0.00    +0.227 C 
ATOM      4  H   UNL     1      34.097 -22.624 -19.602  0.00  0.00    +0.155 HD
ENDROOT
BRANCH   2  11
ATOM      5  O   UNL     1      29.681 -22.782 -17.308  0.00  0.00    -0.282 OA
ATOM      6  O   UNL     1      32.417 -24.779 -13.184  0.00  0.00    -0.270 OA
ATOM      7  O   UNL     1      28.395 -23.618 -15.144  0.00  0.00    -0.266 OA
ATOM      8  N   UNL     1      30.412 -24.202 -14.152  0.00  0.00    -0.246 N 
ATOM      9  C   UNL     1      31.810 -23.323 -16.432  0.00  0.00    +0.049 C 
ATOM     10  C   UNL     1      32.509 -23.848 -15.345  0.00  0.00    +0.057 C 
ATOM     11  C   UNL     1      33.888 -22.970 -17.614  0.00  0.00    +0.050 C 
ATOM     12  C   UNL     1      32.497 -22.882 -17.568  0.00  0.00    +0.018 C 
ATOM     13  C   UNL     1      33.906 -23.933 -15.397  0.00  0.00    +0.006 C 
ATOM     14  C   UNL     1      34.592 -23.495 -16.531  0.00  0.00    +0.015 C 
ATOM     15  C   UNL     1      30.345 -23.230 -16.386  0.00  0.00    +0.249 C 
ATOM     16  C   UNL     1      31.798 -24.316 -14.138  0.00  0.00    +0.252 C 
ATOM     17  C   UNL     1      29.614 -23.702 -15.165  0.00  0.00    +0.291 C 
ATOM     18  H   UNL     1      29.943 -24.515 -13.346  0.00  0.00    +0.158 HD
ENDBRANCH   2  11
BRANCH   3  19
ATOM     19  C   UNL     1      36.258 -21.635 -20.247  0.00  0.00    +0.095 C 
BRANCH  19  20
ATOM     20  C   UNL     1      36.439 -20.129 -20.417  0.00  0.00    +0.095 C 
BRANCH  20  23
ATOM     21  O   UNL     1      34.217 -19.923 -21.275  0.00  0.00    -0.275 OA
ATOM     22  N   UNL     1      35.914 -18.570 -22.178  0.00  0.00    -0.284 N 
ATOM     23  C   UNL     1      35.383 -19.545 -21.342  0.00  0.00    +0.227 C 
ATOM     24  H   UNL     1      36.875 -18.384 -22.072  0.00  0.00    +0.155 HD
BRANCH  22  25
ATOM     25  C   UNL     1      35.238 -17.814 -23.162  0.00  0.00    +0.053 C 
ATOM     26  C   UNL     1      35.035 -16.447 -22.974  0.00  0.00    +0.052 C 
ATOM     27  C   UNL     1      34.367 -15.700 -23.945  0.00  0.00    +0.140 C 
ATOM     28  C   UNL     1      34.773 -18.435 -24.321  0.00  0.00    +0.015 C 
ATOM     29  C   UNL     1      33.903 -16.322 -25.105  0.00  0.00    +0.037 C 
ATOM     30  C   UNL     1      34.106 -17.689 -25.293  0.00  0.00    +0.004 C 
BRANCH  27  31
ATOM     31  O   UNL     1      34.168 -14.366 -23.763  0.00  0.00    -0.472 OA
BRANCH  31  32
ATOM     32  C   UNL     1      34.067 -13.904 -22.417  0.00  0.00    +0.243 C 
BRANCH  32  34
ATOM     33  F   UNL     1      32.240 -13.880 -20.962  0.00  0.00    -0.230 F 
ATOM     34  C   UNL     1      32.656 -13.418 -22.174  0.00  0.00    +0.240 C 
ENDBRANCH  32  34
ENDBRANCH  31  32
ENDBRANCH  27  31
ENDBRANCH  22  25
ENDBRANCH  20  23
ENDBRANCH  19  20
ENDBRANCH   3  19
TORSDOF 8
ENDMDL
MODEL 4
REMARK VINA RESULT:     -11.5      4.441      7.547
REMARK  Name = 24883488
REMARK  8 active torsions:
REMARK  status: ('A' for Active; 'I' for Inactive)
REMARK    1  A    between atoms: N_2  and  C_11
REMARK    2  A    between atoms: C_3  and  C_19
REMARK    3  A    between atoms: C_19  and  C_20
REMARK    4  A    between atoms: C_20  and  C_23
REMARK    5  A    between atoms: N_22  and  C_25
REMARK    6  A    between atoms: C_27  and  O_31
REMARK    7  A    between atoms: O_31  and  C_32
REMARK    8  A    between atoms: C_32  and  C_34
REMARK                            x       y       z     vdW  Elec       q    Type
REMARK                         _______ _______ _______ _____ _____    ______ ____
ROOT
ATOM      1  O   UNL     1      34.166 -18.841 -24.914  0.00  0.00    -0.275 OA
ATOM      2  N   UNL     1      35.356 -17.711 -23.226  0.00  0.00    -0.284 N 
ATOM      3  C   UNL     1      34.703 -17.836 -24.459  0.00  0.00    +0.227 C 
ATOM      4  H   UNL     1      35.752 -16.830 -23.038  0.00  0.00    +0.155 HD
ENDROOT
BRANCH   2  11
ATOM      5  O   UNL     1      32.266 -20.844 -20.630  0.00  0.00    -0.282 OA
ATOM      6  O   UNL     1      37.152 -21.878 -18.747  0.00  0.00    -0.270 OA
ATOM      7  O   UNL     1      32.599 -22.675 -18.740  0.00  0.00    -0.266 OA
ATOM      8  N   UNL     1      34.886 -22.278 -18.737  0.00  0.00    -0.246 N 
ATOM      9  C   UNL     1      34.572 -20.329 -20.742  0.00  0.00    +0.049 C 
ATOM     10  C   UNL     1      35.841 -20.612 -20.239  0.00  0.00    +0.057 C 
ATOM     11  C   UNL     1      35.516 -18.675 -22.231  0.00  0.00    +0.050 C 
ATOM     12  C   UNL     1      34.405 -19.360 -21.738  0.00  0.00    +0.018 C 
ATOM     13  C   UNL     1      36.952 -19.921 -20.737  0.00  0.00    +0.006 C 
ATOM     14  C   UNL     1      36.787 -18.955 -21.732  0.00  0.00    +0.015 C 
ATOM     15  C   UNL     1      33.400 -21.049 -20.226  0.00  0.00    +0.249 C 
ATOM     16  C   UNL     1      36.032 -21.631 -19.187  0.00  0.00    +0.252 C 
ATOM     17  C   UNL     1      33.584 -22.084 -19.158  0.00  0.00    +0.291 C 
ATOM     18  H   UNL     1      35.019 -22.956 -18.036  0.00  0.00    +0.158 HD
ENDBRANCH   2  11
BRANCH   3  19
ATOM     19  C   UNL     1      34.745 -16.550 -25.268  0.00  0.00    +0.095 C 
BRANCH  19  20
ATOM     20  C   UNL     1      33.525 -15.677 -24.985  0.00  0.00    +0.095 C 
BRANCH  20  23
ATOM     21  O   UNL     1      34.519 -14.534 -23.136  0.00  0.00    -0.275 OA
ATOM     22  N   UNL     1      33.501 -13.273 -24.837  0.00  0.00    -0.284 N 
ATOM     23  C   UNL     1      33.904 -14.436 -24.194  0.00  0.00    +0.227 C 
ATOM     24  H   UNL     1      33.035 -13.392 -25.697  0.00  0.00    +0.155 HD
BRANCH  22  25
ATOM     25  C   UNL     1      33.679 -11.939 -24.405  0.00  0.00    +0.053 C 
ATOM     26  C   UNL     1      32.855 -11.412 -23.410  0.00  0.00    +0.052 C 
ATOM     27  C   UNL     1      33.031 -10.095 -22.984  0.00  0.00    +0.140 C 
ATOM     28  C   UNL     1      34.678 -11.150 -24.974  0.00  0.00    +0.015 C 
ATOM     29  C   UNL     1      34.031  -9.306 -23.554  0.00  0.00    +0.037 C 
ATOM     30  C   UNL     1      34.855  -9.833 -24.548  0.00  0.00    +0.004 C 
BRANCH  27  31
ATOM     31  O   UNL     1      32.227  -9.580 -22.014  0.00  0.00    -0.472 OA
BRANCH  31  32
ATOM     32  C   UNL     1      31.282 -10.466 -21.417  0.00  0.00    +0.243 C 
BRANCH  32  34
ATOM     33  F   UNL     1      32.159 -11.364 -19.447  0.00  0.00    -0.230 F 
ATOM     34  C   UNL     1      31.383 -10.345 -19.913  0.00  0.00    +0.240 C 
ENDBRANCH  32  34
ENDBRANCH  31  32
ENDBRANCH  27  31
ENDBRANCH  22  25
ENDBRANCH  20  23
ENDBRANCH  19  20
ENDBRANCH   3  19
TORSDOF 8
ENDMDL
MODEL 5
REMARK VINA RESULT:     -11.2      1.248      2.281
REMARK  Name = 24883488
REMARK  8 active torsions:
REMARK  status: ('A' for Active; 'I' for Inactive)
REMARK    1  A    between atoms: N_2  and  C_11
REMARK    2  A    between atoms: C_3  and  C_19
REMARK    3  A    between atoms: C_19  and  C_20
REMARK    4  A    between atoms: C_20  and  C_23
REMARK    5  A    between atoms: N_22  and  C_25
REMARK    6  A    between atoms: C_27  and  O_31
REMARK    7  A    between atoms: O_31  and  C_32
REMARK    8  A    between atoms: C_32  and  C_34
REMARK                            x       y       z     vdW  Elec       q    Type
REMARK                         _______ _______ _______ _____ _____    ______ ____
ROOT
ATOM      1  O   UNL     1      33.887 -23.667 -18.659  0.00  0.00    -0.275 OA
ATOM      2  N   UNL     1      35.416 -22.363 -17.432  0.00  0.00    -0.284 N 
ATOM      3  C   UNL     1      34.625 -22.694 -18.539  0.00  0.00    +0.227 C 
ATOM      4  H   UNL     1      35.967 -21.553 -17.525  0.00  0.00    +0.155 HD
ENDROOT
BRANCH   2  11
ATOM      5  O   UNL     1      39.097 -24.908 -14.967  0.00  0.00    -0.282 OA
ATOM      6  O   UNL     1      34.866 -25.147 -11.723  0.00  0.00    -0.270 OA
ATOM      7  O   UNL     1      39.276 -26.180 -12.646  0.00  0.00    -0.266 OA
ATOM      8  N   UNL     1      37.061 -25.666 -12.176  0.00  0.00    -0.246 N 
ATOM      9  C   UNL     1      36.834 -24.309 -14.632  0.00  0.00    +0.049 C 
ATOM     10  C   UNL     1      35.738 -24.380 -13.771  0.00  0.00    +0.057 C 
ATOM     11  C   UNL     1      35.524 -23.036 -16.215  0.00  0.00    +0.050 C 
ATOM     12  C   UNL     1      36.730 -23.638 -15.855  0.00  0.00    +0.018 C 
ATOM     13  C   UNL     1      34.530 -23.776 -14.138  0.00  0.00    +0.006 C 
ATOM     14  C   UNL     1      34.426 -23.104 -15.358  0.00  0.00    +0.015 C 
ATOM     15  C   UNL     1      38.105 -24.941 -14.255  0.00  0.00    +0.249 C 
ATOM     16  C   UNL     1      35.833 -25.087 -12.477  0.00  0.00    +0.252 C 
ATOM     17  C   UNL     1      38.211 -25.660 -12.944  0.00  0.00    +0.291 C 
ATOM     18  H   UNL     1      37.119 -26.135 -11.313  0.00  0.00    +0.158 HD
ENDBRANCH   2  11
BRANCH   3  19
ATOM     19  C   UNL     1      34.788 -21.705 -19.682  0.00  0.00    +0.095 C 
BRANCH  19  20
ATOM     20  C   UNL     1      36.227 -21.206 -19.782  0.00  0.00    +0.095 C 
BRANCH  20  23
ATOM     21  O   UNL     1      37.268 -19.204 -20.570  0.00  0.00    -0.275 OA
ATOM     22  N   UNL     1      35.282 -19.930 -21.594  0.00  0.00    -0.284 N 
ATOM     23  C   UNL     1      36.328 -19.985 -20.681  0.00  0.00    +0.227 C 
ATOM     24  H   UNL     1      34.627 -20.664 -21.547  0.00  0.00    +0.155 HD
BRANCH  22  25
ATOM     25  C   UNL     1      35.046 -18.947 -22.581  0.00  0.00    +0.053 C 
ATOM     26  C   UNL     1      35.296 -17.603 -22.302  0.00  0.00    +0.052 C 
ATOM     27  C   UNL     1      35.063 -16.632 -23.276  0.00  0.00    +0.140 C 
ATOM     28  C   UNL     1      34.563 -19.320 -23.835  0.00  0.00    +0.015 C 
ATOM     29  C   UNL     1      34.580 -17.007 -24.531  0.00  0.00    +0.037 C 
ATOM     30  C   UNL     1      34.330 -18.350 -24.810  0.00  0.00    +0.004 C 
BRANCH  27  31
ATOM     31  O   UNL     1      35.306 -15.322 -23.004  0.00  0.00    -0.472 OA
BRANCH  31  32
ATOM     32  C   UNL     1      34.447 -14.684 -22.061  0.00  0.00    +0.243 C 
BRANCH  32  34
ATOM     33  F   UNL     1      33.964 -13.645 -24.097  0.00  0.00    -0.230 F 
ATOM     34  C   UNL     1      33.586 -13.677 -22.788  0.00  0.00    +0.240 C 
ENDBRANCH  32  34
ENDBRANCH  31  32
ENDBRANCH  27  31
ENDBRANCH  22  25
ENDBRANCH  20  23
ENDBRANCH  19  20
ENDBRANCH   3  19
TORSDOF 8
ENDMDL
MODEL 6
REMARK VINA RESULT:     -11.2      4.127     11.104
REMARK  Name = 24883488
REMARK  8 active torsions:
REMARK  status: ('A' for Active; 'I' for Inactive)
REMARK    1  A    between atoms: N_2  and  C_11
REMARK    2  A    between atoms: C_3  and  C_19
REMARK    3  A    between atoms: C_19  and  C_20
REMARK    4  A    between atoms: C_20  and  C_23
REMARK    5  A    between atoms: N_22  and  C_25
REMARK    6  A    between atoms: C_27  and  O_31
REMARK    7  A    between atoms: O_31  and  C_32
REMARK    8  A    between atoms: C_32  and  C_34
REMARK                            x       y       z     vdW  Elec       q    Type
REMARK                         _______ _______ _______ _____ _____    ______ ____
ROOT
ATOM      1  O   UNL     1      33.468 -21.090 -20.229  0.00  0.00    -0.275 OA
ATOM      2  N   UNL     1      35.616 -20.266 -20.730  0.00  0.00    -0.284 N 
ATOM      3  C   UNL     1      34.691 -21.177 -20.205  0.00  0.00    +0.227 C 
ATOM      4  H   UNL     1      36.565 -20.490 -20.594  0.00  0.00    +0.155 HD
ENDROOT
BRANCH   2  11
ATOM      5  O   UNL     1      33.815 -19.032 -25.349  0.00  0.00    -0.282 OA
ATOM      6  O   UNL     1      34.818 -14.355 -22.983  0.00  0.00    -0.270 OA
ATOM      7  O   UNL     1      33.342 -16.764 -26.641  0.00  0.00    -0.266 OA
ATOM      8  N   UNL     1      34.084 -15.547 -24.808  0.00  0.00    -0.246 N 
ATOM      9  C   UNL     1      34.598 -17.934 -23.407  0.00  0.00    +0.049 C 
ATOM     10  C   UNL     1      34.854 -16.703 -22.803  0.00  0.00    +0.057 C 
ATOM     11  C   UNL     1      35.363 -19.081 -21.421  0.00  0.00    +0.050 C 
ATOM     12  C   UNL     1      34.852 -19.125 -22.719  0.00  0.00    +0.018 C 
ATOM     13  C   UNL     1      35.368 -16.664 -21.502  0.00  0.00    +0.006 C 
ATOM     14  C   UNL     1      35.620 -17.853 -20.813  0.00  0.00    +0.015 C 
ATOM     15  C   UNL     1      34.059 -17.984 -24.772  0.00  0.00    +0.249 C 
ATOM     16  C   UNL     1      34.592 -15.436 -23.518  0.00  0.00    +0.252 C 
ATOM     17  C   UNL     1      33.791 -16.705 -25.506  0.00  0.00    +0.291 C 
ATOM     18  H   UNL     1      33.911 -14.701 -25.279  0.00  0.00    +0.158 HD
ENDBRANCH   2  11
BRANCH   3  19
ATOM     19  C   UNL     1      35.366 -22.353 -19.517  0.00  0.00    +0.095 C 
BRANCH  19  20
ATOM     20  C   UNL     1      35.076 -22.359 -18.018  0.00  0.00    +0.095 C 
BRANCH  20  23
ATOM     21  O   UNL     1      33.693 -24.261 -18.444  0.00  0.00    -0.275 OA
ATOM     22  N   UNL     1      33.428 -23.093 -16.422  0.00  0.00    -0.284 N 
ATOM     23  C   UNL     1      33.979 -23.351 -17.671  0.00  0.00    +0.227 C 
ATOM     24  H   UNL     1      33.803 -22.325 -15.932  0.00  0.00    +0.155 HD
BRANCH  22  25
ATOM     25  C   UNL     1      32.392 -23.801 -15.770  0.00  0.00    +0.053 C 
ATOM     26  C   UNL     1      31.135 -23.904 -16.366  0.00  0.00    +0.052 C 
ATOM     27  C   UNL     1      30.113 -24.602 -15.722  0.00  0.00    +0.140 C 
ATOM     28  C   UNL     1      32.627 -24.395 -14.531  0.00  0.00    +0.015 C 
ATOM     29  C   UNL     1      30.349 -25.197 -14.482  0.00  0.00    +0.037 C 
ATOM     30  C   UNL     1      31.606 -25.094 -13.886  0.00  0.00    +0.004 C 
BRANCH  27  31
ATOM     31  O   UNL     1      28.887 -24.704 -16.303  0.00  0.00    -0.472 OA
BRANCH  31  32
ATOM     32  C   UNL     1      28.334 -23.514 -16.863  0.00  0.00    +0.243 C 
BRANCH  32  34
ATOM     33  F   UNL     1      28.482 -22.050 -15.048  0.00  0.00    -0.230 F 
ATOM     34  C   UNL     1      27.586 -22.768 -15.781  0.00  0.00    +0.240 C 
ENDBRANCH  32  34
ENDBRANCH  31  32
ENDBRANCH  27  31
ENDBRANCH  22  25
ENDBRANCH  20  23
ENDBRANCH  19  20
ENDBRANCH   3  19
TORSDOF 8
ENDMDL
MODEL 7
REMARK VINA RESULT:     -11.1      3.456     11.938
REMARK  Name = 24883488
REMARK  8 active torsions:
REMARK  status: ('A' for Active; 'I' for Inactive)
REMARK    1  A    between atoms: N_2  and  C_11
REMARK    2  A    between atoms: C_3  and  C_19
REMARK    3  A    between atoms: C_19  and  C_20
REMARK    4  A    between atoms: C_20  and  C_23
REMARK    5  A    between atoms: N_22  and  C_25
REMARK    6  A    between atoms: C_27  and  O_31
REMARK    7  A    between atoms: O_31  and  C_32
REMARK    8  A    between atoms: C_32  and  C_34
REMARK                            x       y       z     vdW  Elec       q    Type
REMARK                         _______ _______ _______ _____ _____    ______ ____
ROOT
ATOM      1  O   UNL     1      33.992 -20.456 -20.661  0.00  0.00    -0.275 OA
ATOM      2  N   UNL     1      35.871 -19.426 -21.635  0.00  0.00    -0.284 N 
ATOM      3  C   UNL     1      35.205 -20.302 -20.771  0.00  0.00    +0.227 C 
ATOM      4  H   UNL     1      36.853 -19.419 -21.567  0.00  0.00    +0.155 HD
ENDROOT
BRANCH   2  11
ATOM      5  O   UNL     1      34.959 -14.406 -21.913  0.00  0.00    -0.282 OA
ATOM      6  O   UNL     1      33.242 -16.363 -26.571  0.00  0.00    -0.270 OA
ATOM      7  O   UNL     1      33.911 -12.781 -23.728  0.00  0.00    -0.266 OA
ATOM      8  N   UNL     1      33.571 -14.576 -25.161  0.00  0.00    -0.246 N 
ATOM      9  C   UNL     1      34.676 -16.331 -23.258  0.00  0.00    +0.049 C 
ATOM     10  C   UNL     1      34.223 -16.825 -24.481  0.00  0.00    +0.057 C 
ATOM     11  C   UNL     1      35.321 -18.560 -22.581  0.00  0.00    +0.050 C 
ATOM     12  C   UNL     1      35.226 -17.196 -22.305  0.00  0.00    +0.018 C 
ATOM     13  C   UNL     1      34.321 -18.195 -24.752  0.00  0.00    +0.006 C 
ATOM     14  C   UNL     1      34.871 -19.059 -23.802  0.00  0.00    +0.015 C 
ATOM     15  C   UNL     1      34.577 -14.895 -22.964  0.00  0.00    +0.249 C 
ATOM     16  C   UNL     1      33.639 -15.924 -25.496  0.00  0.00    +0.252 C 
ATOM     17  C   UNL     1      33.986 -13.973 -23.988  0.00  0.00    +0.291 C 
ATOM     18  H   UNL     1      33.181 -13.980 -25.840  0.00  0.00    +0.158 HD
ENDBRANCH   2  11
BRANCH   3  19
ATOM     19  C   UNL     1      36.164 -21.080 -19.885  0.00  0.00    +0.095 C 
BRANCH  19  20
ATOM     20  C   UNL     1      35.420 -22.088 -19.013  0.00  0.00    +0.095 C 
BRANCH  20  23
ATOM     21  O   UNL     1      37.123 -21.640 -17.397  0.00  0.00    -0.275 OA
ATOM     22  N   UNL     1      35.400 -23.141 -16.846  0.00  0.00    -0.284 N 
ATOM     23  C   UNL     1      36.099 -22.262 -17.665  0.00  0.00    +0.227 C 
ATOM     24  H   UNL     1      34.580 -23.530 -17.228  0.00  0.00    +0.155 HD
BRANCH  22  25
ATOM     25  C   UNL     1      35.727 -23.544 -15.532  0.00  0.00    +0.053 C 
ATOM     26  C   UNL     1      37.060 -23.756 -15.178  0.00  0.00    +0.052 C 
ATOM     27  C   UNL     1      37.382 -24.154 -13.880  0.00  0.00    +0.140 C 
ATOM     28  C   UNL     1      34.717 -23.730 -14.588  0.00  0.00    +0.015 C 
ATOM     29  C   UNL     1      36.371 -24.340 -12.936  0.00  0.00    +0.037 C 
ATOM     30  C   UNL     1      35.039 -24.127 -13.290  0.00  0.00    +0.004 C 
BRANCH  27  31
ATOM     31  O   UNL     1      38.682 -24.362 -13.534  0.00  0.00    -0.472 OA
BRANCH  31  32
ATOM     32  C   UNL     1      39.107 -25.716 -13.390  0.00  0.00    +0.243 C 
BRANCH  32  34
ATOM     33  F   UNL     1      40.240 -24.938 -15.279  0.00  0.00    -0.230 F 
ATOM     34  C   UNL     1      40.044 -26.056 -14.526  0.00  0.00    +0.240 C 
ENDBRANCH  32  34
ENDBRANCH  31  32
ENDBRANCH  27  31
ENDBRANCH  22  25
ENDBRANCH  20  23
ENDBRANCH  19  20
ENDBRANCH   3  19
TORSDOF 8
ENDMDL
MODEL 8
REMARK VINA RESULT:     -11.0      3.849     11.429
REMARK  Name = 24883488
REMARK  8 active torsions:
REMARK  status: ('A' for Active; 'I' for Inactive)
REMARK    1  A    between atoms: N_2  and  C_11
REMARK    2  A    between atoms: C_3  and  C_19
REMARK    3  A    between atoms: C_19  and  C_20
REMARK    4  A    between atoms: C_20  and  C_23
REMARK    5  A    between atoms: N_22  and  C_25
REMARK    6  A    between atoms: C_27  and  O_31
REMARK    7  A    between atoms: O_31  and  C_32
REMARK    8  A    between atoms: C_32  and  C_34
REMARK                            x       y       z     vdW  Elec       q    Type
REMARK                         _______ _______ _______ _____ _____    ______ ____
ROOT
ATOM      1  O   UNL     1      34.082 -20.151 -20.911  0.00  0.00    -0.275 OA
ATOM      2  N   UNL     1      35.917 -19.065 -21.909  0.00  0.00    -0.284 N 
ATOM      3  C   UNL     1      35.288 -19.965 -21.040  0.00  0.00    +0.227 C 
ATOM      4  H   UNL     1      36.900 -19.033 -21.857  0.00  0.00    +0.155 HD
ENDROOT
BRANCH   2  11
ATOM      5  O   UNL     1      34.687 -14.108 -22.050  0.00  0.00    -0.282 OA
ATOM      6  O   UNL     1      33.185 -16.022 -26.800  0.00  0.00    -0.270 OA
ATOM      7  O   UNL     1      33.569 -12.496 -23.836  0.00  0.00    -0.266 OA
ATOM      8  N   UNL     1      33.372 -14.263 -25.329  0.00  0.00    -0.246 N 
ATOM      9  C   UNL     1      34.554 -16.003 -23.459  0.00  0.00    +0.049 C 
ATOM     10  C   UNL     1      34.156 -16.486 -24.705  0.00  0.00    +0.057 C 
ATOM     11  C   UNL     1      35.330 -18.206 -22.838  0.00  0.00    +0.050 C 
ATOM     12  C   UNL     1      35.141 -16.861 -22.522  0.00  0.00    +0.018 C 
ATOM     13  C   UNL     1      34.347 -17.838 -25.017  0.00  0.00    +0.006 C 
ATOM     14  C   UNL     1      34.934 -18.694 -24.083  0.00  0.00    +0.015 C 
ATOM     15  C   UNL     1      34.357 -14.587 -23.124  0.00  0.00    +0.249 C 
ATOM     16  C   UNL     1      33.533 -15.592 -25.704  0.00  0.00    +0.252 C 
ATOM     17  C   UNL     1      33.726 -13.672 -24.130  0.00  0.00    +0.291 C 
ATOM     18  H   UNL     1      32.957 -13.672 -25.998  0.00  0.00    +0.158 HD
ENDBRANCH   2  11
BRANCH   3  19
ATOM     19  C   UNL     1      36.281 -20.725 -20.177  0.00  0.00    +0.095 C 
BRANCH  19  20
ATOM     20  C   UNL     1      35.788 -22.138 -19.877  0.00  0.00    +0.095 C 
BRANCH  20  23
ATOM     21  O   UNL     1      36.195 -21.865 -17.538  0.00  0.00    -0.275 OA
ATOM     22  N   UNL     1      34.231 -22.954 -18.230  0.00  0.00    -0.284 N 
ATOM     23  C   UNL     1      35.447 -22.305 -18.406  0.00  0.00    +0.227 C 
ATOM     24  H   UNL     1      33.756 -23.216 -19.052  0.00  0.00    +0.155 HD
BRANCH  22  25
ATOM     25  C   UNL     1      33.594 -23.282 -17.012  0.00  0.00    +0.053 C 
ATOM     26  C   UNL     1      32.222 -23.077 -16.864  0.00  0.00    +0.052 C 
ATOM     27  C   UNL     1      31.593 -23.401 -15.661  0.00  0.00    +0.140 C 
ATOM     28  C   UNL     1      34.337 -23.810 -15.956  0.00  0.00    +0.015 C 
ATOM     29  C   UNL     1      32.338 -23.930 -14.606  0.00  0.00    +0.037 C 
ATOM     30  C   UNL     1      33.710 -24.135 -14.754  0.00  0.00    +0.004 C 
BRANCH  27  31
ATOM     31  O   UNL     1      30.255 -23.201 -15.517  0.00  0.00    -0.472 OA
BRANCH  31  32
ATOM     32  C   UNL     1      29.387 -24.077 -16.234  0.00  0.00    +0.243 C 
BRANCH  32  34
ATOM     33  F   UNL     1      27.816 -22.367 -15.987  0.00  0.00    -0.230 F 
ATOM     34  C   UNL     1      28.304 -23.256 -16.896  0.00  0.00    +0.240 C 
ENDBRANCH  32  34
ENDBRANCH  31  32
ENDBRANCH  27  31
ENDBRANCH  22  25
ENDBRANCH  20  23
ENDBRANCH  19  20
ENDBRANCH   3  19
TORSDOF 8
ENDMDL
MODEL 9
REMARK VINA RESULT:     -11.0      4.847     12.298
REMARK  Name = 24883488
REMARK  8 active torsions:
REMARK  status: ('A' for Active; 'I' for Inactive)
REMARK    1  A    between atoms: N_2  and  C_11
REMARK    2  A    between atoms: C_3  and  C_19
REMARK    3  A    between atoms: C_19  and  C_20
REMARK    4  A    between atoms: C_20  and  C_23
REMARK    5  A    between atoms: N_22  and  C_25
REMARK    6  A    between atoms: C_27  and  O_31
REMARK    7  A    between atoms: O_31  and  C_32
REMARK    8  A    between atoms: C_32  and  C_34
REMARK                            x       y       z     vdW  Elec       q    Type
REMARK                         _______ _______ _______ _____ _____    ______ ____
ROOT
ATOM      1  O   UNL     1      33.574 -15.771 -24.928  0.00  0.00    -0.275 OA
ATOM      2  N   UNL     1      34.428 -15.217 -22.805  0.00  0.00    -0.284 N 
ATOM      3  C   UNL     1      34.343 -15.958 -23.990  0.00  0.00    +0.227 C 
ATOM      4  H   UNL     1      35.093 -15.530 -22.149  0.00  0.00    +0.155 HD
ENDROOT
BRANCH   2  11
ATOM      5  O   UNL     1      33.817 -10.480 -24.618  0.00  0.00    -0.282 OA
ATOM      6  O   UNL     1      30.701 -10.696 -20.291  0.00  0.00    -0.270 OA
ATOM      7  O   UNL     1      32.405  -8.354 -23.893  0.00  0.00    -0.266 OA
ATOM      8  N   UNL     1      31.546  -9.524 -22.081  0.00  0.00    -0.246 N 
ATOM      9  C   UNL     1      33.031 -11.799 -22.820  0.00  0.00    +0.049 C 
ATOM     10  C   UNL     1      32.211 -11.838 -21.692  0.00  0.00    +0.057 C 
ATOM     11  C   UNL     1      33.692 -14.091 -22.434  0.00  0.00    +0.050 C 
ATOM     12  C   UNL     1      33.773 -12.924 -23.194  0.00  0.00    +0.018 C 
ATOM     13  C   UNL     1      32.134 -13.012 -20.933  0.00  0.00    +0.006 C 
ATOM     14  C   UNL     1      32.874 -14.136 -21.307  0.00  0.00    +0.015 C 
ATOM     15  C   UNL     1      33.118 -10.571 -23.621  0.00  0.00    +0.249 C 
ATOM     16  C   UNL     1      31.422 -10.657 -21.284  0.00  0.00    +0.252 C 
ATOM     17  C   UNL     1      32.321  -9.368 -23.215  0.00  0.00    +0.291 C 
ATOM     18  H   UNL     1      31.018  -8.741 -21.805  0.00  0.00    +0.158 HD
ENDBRANCH   2  11
BRANCH   3  19
ATOM     19  C   UNL     1      35.321 -17.121 -24.015  0.00  0.00    +0.095 C 
BRANCH  19  20
ATOM     20  C   UNL     1      34.633 -18.431 -23.640  0.00  0.00    +0.095 C 
BRANCH  20  23
ATOM     21  O   UNL     1      35.606 -18.103 -21.481  0.00  0.00    -0.275 OA
ATOM     22  N   UNL     1      34.533 -20.142 -21.946  0.00  0.00    -0.284 N 
ATOM     23  C   UNL     1      34.998 -18.863 -22.229  0.00  0.00    +0.227 C 
ATOM     24  H   UNL     1      34.041 -20.595 -22.670  0.00  0.00    +0.155 HD
BRANCH  22  25
ATOM     25  C   UNL     1      34.681 -20.870 -20.744  0.00  0.00    +0.053 C 
ATOM     26  C   UNL     1      33.558 -21.388 -20.098  0.00  0.00    +0.052 C 
ATOM     27  C   UNL     1      33.705 -22.106 -18.911  0.00  0.00    +0.140 C 
ATOM     28  C   UNL     1      35.951 -21.069 -20.202  0.00  0.00    +0.015 C 
ATOM     29  C   UNL     1      34.976 -22.306 -18.370  0.00  0.00    +0.037 C 
ATOM     30  C   UNL     1      36.098 -21.788 -19.015  0.00  0.00    +0.004 C 
BRANCH  27  31
ATOM     31  O   UNL     1      32.610 -22.611 -18.281  0.00  0.00    -0.472 OA
BRANCH  31  32
ATOM     32  C   UNL     1      32.839 -23.399 -17.114  0.00  0.00    +0.243 C 
BRANCH  32  34
ATOM     33  F   UNL     1      30.636 -22.653 -16.902  0.00  0.00    -0.230 F 
ATOM     34  C   UNL     1      31.597 -23.366 -16.252  0.00  0.00    +0.240 C 
ENDBRANCH  32  34
ENDBRANCH  31  32
ENDBRANCH  27  31
ENDBRANCH  22  25
ENDBRANCH  20  23
ENDBRANCH  19  20
ENDBRANCH   3  19
TORSDOF 8
ENDMDL
