MODEL 1
REMARK VINA RESULT:     -12.3      0.000      0.000
REMARK  Name = 5291
REMARK  6 active torsions:
REMARK  status: ('A' for Active; 'I' for Inactive)
REMARK    1  A    between atoms: C_1  and  N_23
REMARK    2  A    between atoms: C_2  and  N_8
REMARK    3  A    between atoms: C_12  and  C_17
REMARK    4  A    between atoms: C_24  and  C_31
REMARK    5  A    between atoms: C_26  and  C_32
REMARK    6  A    between atoms: C_32  and  N_33
REMARK                            x       y       z     vdW  Elec       q    Type
REMARK                         _______ _______ _______ _____ _____    ______ ____
ROOT
ATOM      1  C   UNL     1      32.896 -23.239 -16.316  0.00  0.00    +0.052 C 
ATOM      2  C   UNL     1      32.885 -23.975 -14.034  0.00  0.00    +0.055 C 
ATOM      3  C   UNL     1      33.464 -23.221 -15.053  0.00  0.00    +0.030 C 
ATOM      4  C   UNL     1      31.745 -24.737 -14.292  0.00  0.00    -0.008 C 
ATOM      5  C   UNL     1      31.766 -23.990 -16.589  0.00  0.00    +0.014 C 
ATOM      6  C   UNL     1      31.186 -24.745 -15.570  0.00  0.00    -0.002 C 
ATOM      7  C   UNL     1      31.104 -25.556 -13.219  0.00  0.00    +0.032 C 
ENDROOT
BRANCH   2   8
ATOM      8  N   UNL     1      33.463 -23.956 -12.745  0.00  0.00    -0.248 N 
ATOM      9  N   UNL     1      35.721 -24.372 -13.233  0.00  0.00    -0.337 NA
ATOM     10  N   UNL     1      34.984 -24.049 -10.961  0.00  0.00    -0.170 NA
ATOM     11  C   UNL     1      34.783 -24.133 -12.292  0.00  0.00    +0.149 C 
ATOM     12  C   UNL     1      36.975 -24.538 -12.764  0.00  0.00    +0.147 C 
ATOM     13  C   UNL     1      37.308 -24.474 -11.426  0.00  0.00    +0.055 C 
ATOM     14  C   UNL     1      36.262 -24.225 -10.562  0.00  0.00    +0.114 C 
ATOM     15  H   UNL     1      32.816 -23.784 -12.023  0.00  0.00    +0.165 HD
BRANCH  12  17
ATOM     16  N   UNL     1      39.058 -24.115 -15.825  0.00  0.00    -0.242 NA
ATOM     17  C   UNL     1      37.977 -24.792 -13.771  0.00  0.00    +0.050 C 
ATOM     18  C   UNL     1      38.811 -25.902 -13.690  0.00  0.00    +0.006 C 
ATOM     19  C   UNL     1      38.140 -23.936 -14.849  0.00  0.00    +0.101 C 
ATOM     20  C   UNL     1      39.767 -26.120 -14.675  0.00  0.00    +0.021 C 
ATOM     21  C   UNL     1      39.849 -25.205 -15.712  0.00  0.00    +0.099 C 
ENDBRANCH  12  17
ENDBRANCH   2   8
BRANCH   1  23
ATOM     22  O   UNL     1      33.900 -24.073 -19.015  0.00  0.00    -0.270 OA
ATOM     23  N   UNL     1      33.484 -22.472 -17.350  0.00  0.00    -0.280 N 
ATOM     24  C   UNL     1      33.942 -22.902 -18.604  0.00  0.00    +0.249 C 
ATOM     25  H   UNL     1      33.584 -21.510 -17.166  0.00  0.00    +0.155 HD
BRANCH  24  31
ATOM     26  C   UNL     1      35.650 -19.917 -21.066  0.00  0.00    -0.043 C 
ATOM     27  C   UNL     1      36.477 -20.720 -20.294  0.00  0.00    -0.006 C 
ATOM     28  C   UNL     1      34.272 -20.078 -21.044  0.00  0.00    -0.006 C 
ATOM     29  C   UNL     1      35.913 -21.705 -19.482  0.00  0.00    +0.004 C 
ATOM     30  C   UNL     1      33.708 -21.063 -20.233  0.00  0.00    +0.004 C 
ATOM     31  C   UNL     1      34.529 -21.877 -19.452  0.00  0.00    +0.054 C 
BRANCH  26  32
ATOM     32  C   UNL     1      36.257 -18.854 -21.943  0.00  0.00    -0.050 C 
BRANCH  32  33
ATOM     33  N   UNL     1      35.248 -18.179 -22.759  0.00  0.00    +0.387 N 
ATOM     34  N   UNL     1      34.394 -16.664 -25.068  0.00  0.00    +0.383 N 
ATOM     35  C   UNL     1      35.146 -18.803 -24.083  0.00  0.00    -0.100 C 
ATOM     36  C   UNL     1      35.554 -16.749 -22.887  0.00  0.00    -0.100 C 
ATOM     37  C   UNL     1      34.089 -18.094 -24.938  0.00  0.00    -0.101 C 
ATOM     38  C   UNL     1      34.499 -16.040 -23.743  0.00  0.00    -0.101 C 
ATOM     39  C   UNL     1      33.384 -15.990 -25.881  0.00  0.00    -0.101 C 
ATOM     40  H   UNL     1      34.349 -18.274 -22.287  0.00  0.00    -0.079 HD
ATOM     41  H   UNL     1      35.293 -16.569 -25.540  0.00  0.00    -0.080 HD
ENDBRANCH  32  33
ENDBRANCH  26  32
ENDBRANCH  24  31
ENDBRANCH   1  23
TORSDOF 6
ENDMDL
MODEL 2
REMARK VINA RESULT:     -11.5      1.431      2.130
REMARK  Name = 5291
REMARK  6 active torsions:
REMARK  status: ('A' for Active; 'I' for Inactive)
REMARK    1  A    between atoms: C_1  and  N_23
REMARK    2  A    between atoms: C_2  and  N_8
REMARK    3  A    between atoms: C_12  and  C_17
REMARK    4  A    between atoms: C_24  and  C_31
REMARK    5  A    between atoms: C_26  and  C_32
REMARK    6  A    between atoms: C_32  and  N_33
REMARK                            x       y       z     vdW  Elec       q    Type
REMARK                         _______ _______ _______ _____ _____    ______ ____
ROOT
ATOM      1  C   UNL     1      31.655 -23.019 -16.879  0.00  0.00    +0.052 C 
ATOM      2  C   UNL     1      31.609 -24.078 -14.729  0.00  0.00    +0.055 C 
ATOM      3  C   UNL     1      32.316 -23.405 -15.724  0.00  0.00    +0.030 C 
ATOM      4  C   UNL     1      30.252 -24.355 -14.902  0.00  0.00    -0.008 C 
ATOM      5  C   UNL     1      30.311 -23.285 -17.067  0.00  0.00    +0.014 C 
ATOM      6  C   UNL     1      29.604 -23.960 -16.071  0.00  0.00    -0.002 C 
ATOM      7  C   UNL     1      29.471 -25.077 -13.852  0.00  0.00    +0.032 C 
ENDROOT
BRANCH   2   8
ATOM      8  N   UNL     1      32.280 -24.472 -13.550  0.00  0.00    -0.248 N 
ATOM      9  N   UNL     1      34.519 -24.053 -14.118  0.00  0.00    -0.337 NA
ATOM     10  N   UNL     1      33.936 -24.939 -11.954  0.00  0.00    -0.170 NA
ATOM     11  C   UNL     1      33.641 -24.489 -13.190  0.00  0.00    +0.149 C 
ATOM     12  C   UNL     1      35.814 -24.083 -13.741  0.00  0.00    +0.147 C 
ATOM     13  C   UNL     1      36.242 -24.521 -12.504  0.00  0.00    +0.055 C 
ATOM     14  C   UNL     1      35.250 -24.942 -11.643  0.00  0.00    +0.114 C 
ATOM     15  H   UNL     1      31.680 -24.798 -12.842  0.00  0.00    +0.165 HD
BRANCH  12  17
ATOM     16  N   UNL     1      38.947 -23.774 -15.736  0.00  0.00    -0.242 NA
ATOM     17  C   UNL     1      36.752 -23.616 -14.733  0.00  0.00    +0.050 C 
ATOM     18  C   UNL     1      36.411 -22.601 -15.622  0.00  0.00    +0.006 C 
ATOM     19  C   UNL     1      38.021 -24.164 -14.831  0.00  0.00    +0.101 C 
ATOM     20  C   UNL     1      37.337 -22.173 -16.566  0.00  0.00    +0.021 C 
ATOM     21  C   UNL     1      38.579 -22.785 -16.582  0.00  0.00    +0.099 C 
ENDBRANCH  12  17
ENDBRANCH   2   8
BRANCH   1  23
ATOM     22  O   UNL     1      34.225 -23.730 -18.252  0.00  0.00    -0.270 OA
ATOM     23  N   UNL     1      32.373 -22.334 -17.889  0.00  0.00    -0.280 N 
ATOM     24  C   UNL     1      33.577 -22.702 -18.508  0.00  0.00    +0.249 C 
ATOM     25  H   UNL     1      31.975 -21.488 -18.199  0.00  0.00    +0.155 HD
BRANCH  24  31
ATOM     26  C   UNL     1      35.067 -20.003 -21.404  0.00  0.00    -0.043 C 
ATOM     27  C   UNL     1      33.696 -20.118 -21.219  0.00  0.00    -0.006 C 
ATOM     28  C   UNL     1      35.956 -20.759 -20.653  0.00  0.00    -0.006 C 
ATOM     29  C   UNL     1      33.205 -21.008 -20.264  0.00  0.00    +0.004 C 
ATOM     30  C   UNL     1      35.465 -21.649 -19.698  0.00  0.00    +0.004 C 
ATOM     31  C   UNL     1      34.089 -21.773 -19.503  0.00  0.00    +0.054 C 
BRANCH  26  32
ATOM     32  C   UNL     1      35.598 -19.042 -22.434  0.00  0.00    -0.050 C 
BRANCH  32  33
ATOM     33  N   UNL     1      34.886 -17.765 -22.407  0.00  0.00    +0.387 N 
ATOM     34  N   UNL     1      34.758 -14.882 -22.579  0.00  0.00    +0.383 N 
ATOM     35  C   UNL     1      35.007 -17.073 -23.695  0.00  0.00    -0.100 C 
ATOM     36  C   UNL     1      35.383 -16.915 -21.319  0.00  0.00    -0.100 C 
ATOM     37  C   UNL     1      34.261 -15.734 -23.666  0.00  0.00    -0.101 C 
ATOM     38  C   UNL     1      34.639 -15.575 -21.289  0.00  0.00    -0.101 C 
ATOM     39  C   UNL     1      34.044 -13.608 -22.551  0.00  0.00    -0.101 C 
ATOM     40  H   UNL     1      33.899 -17.960 -22.238  0.00  0.00    -0.079 HD
ATOM     41  H   UNL     1      35.744 -14.687 -22.748  0.00  0.00    -0.080 HD
ENDBRANCH  32  33
ENDBRANCH  26  32
ENDBRANCH  24  31
ENDBRANCH   1  23
TORSDOF 6
ENDMDL
MODEL 3
REMARK VINA RESULT:     -10.4      3.080      5.993
REMARK  Name = 5291
REMARK  6 active torsions:
REMARK  status: ('A' for Active; 'I' for Inactive)
REMARK    1  A    between atoms: C_1  and  N_23
REMARK    2  A    between atoms: C_2  and  N_8
REMARK    3  A    between atoms: C_12  and  C_17
REMARK    4  A    between atoms: C_24  and  C_31
REMARK    5  A    between atoms: C_26  and  C_32
REMARK    6  A    between atoms: C_32  and  N_33
REMARK                            x       y       z     vdW  Elec       q    Type
REMARK                         _______ _______ _______ _____ _____    ______ ____
ROOT
ATOM      1  C   UNL     1      34.323 -20.420 -20.517  0.00  0.00    +0.052 C 
ATOM      2  C   UNL     1      33.176 -22.019 -19.148  0.00  0.00    +0.055 C 
ATOM      3  C   UNL     1      33.183 -20.803 -19.829  0.00  0.00    +0.030 C 
ATOM      4  C   UNL     1      34.307 -22.835 -19.165  0.00  0.00    -0.008 C 
ATOM      5  C   UNL     1      35.453 -21.217 -20.544  0.00  0.00    +0.014 C 
ATOM      6  C   UNL     1      35.446 -22.434 -19.862  0.00  0.00    -0.002 C 
ATOM      7  C   UNL     1      34.327 -24.143 -18.443  0.00  0.00    +0.032 C 
ENDROOT
BRANCH   2   8
ATOM      8  N   UNL     1      32.014 -22.412 -18.447  0.00  0.00    -0.248 N 
ATOM      9  N   UNL     1      32.911 -23.090 -16.387  0.00  0.00    -0.337 NA
ATOM     10  N   UNL     1      30.539 -23.196 -16.799  0.00  0.00    -0.170 NA
ATOM     11  C   UNL     1      31.812 -22.922 -17.151  0.00  0.00    +0.149 C 
ATOM     12  C   UNL     1      32.682 -23.582 -15.152  0.00  0.00    +0.147 C 
ATOM     13  C   UNL     1      31.426 -23.900 -14.675  0.00  0.00    +0.055 C 
ATOM     14  C   UNL     1      30.382 -23.685 -15.550  0.00  0.00    +0.114 C 
ATOM     15  H   UNL     1      31.184 -22.306 -18.965  0.00  0.00    +0.165 HD
BRANCH  12  17
ATOM     16  N   UNL     1      34.832 -24.515 -12.254  0.00  0.00    -0.242 NA
ATOM     17  C   UNL     1      33.857 -23.760 -14.335  0.00  0.00    +0.050 C 
ATOM     18  C   UNL     1      35.114 -23.375 -14.791  0.00  0.00    +0.006 C 
ATOM     19  C   UNL     1      33.772 -24.320 -13.070  0.00  0.00    +0.101 C 
ATOM     20  C   UNL     1      36.228 -23.559 -13.981  0.00  0.00    +0.021 C 
ATOM     21  C   UNL     1      36.036 -24.128 -12.733  0.00  0.00    +0.099 C 
ENDBRANCH  12  17
ENDBRANCH   2   8
BRANCH   1  23
ATOM     22  O   UNL     1      36.399 -18.258 -20.601  0.00  0.00    -0.270 OA
ATOM     23  N   UNL     1      34.330 -19.185 -21.210  0.00  0.00    -0.280 N 
ATOM     24  C   UNL     1      35.326 -18.197 -21.223  0.00  0.00    +0.249 C 
ATOM     25  H   UNL     1      33.532 -18.994 -21.754  0.00  0.00    +0.155 HD
BRANCH  24  31
ATOM     26  C   UNL     1      34.474 -14.752 -23.525  0.00  0.00    -0.043 C 
ATOM     27  C   UNL     1      34.601 -14.639 -22.148  0.00  0.00    -0.006 C 
ATOM     28  C   UNL     1      34.623 -15.978 -24.158  0.00  0.00    -0.006 C 
ATOM     29  C   UNL     1      34.882 -15.775 -21.389  0.00  0.00    +0.004 C 
ATOM     30  C   UNL     1      34.904 -17.114 -23.400  0.00  0.00    +0.004 C 
ATOM     31  C   UNL     1      35.034 -17.012 -22.015  0.00  0.00    +0.054 C 
BRANCH  26  32
ATOM     32  C   UNL     1      34.171 -13.526 -24.345  0.00  0.00    -0.050 C 
BRANCH  32  33
ATOM     33  N   UNL     1      33.843 -12.375 -23.504  0.00  0.00    +0.387 N 
ATOM     34  N   UNL     1      32.254 -10.063 -22.807  0.00  0.00    +0.383 N 
ATOM     35  C   UNL     1      32.503 -12.519 -22.923  0.00  0.00    -0.100 C 
ATOM     36  C   UNL     1      33.939 -11.127 -24.269  0.00  0.00    -0.100 C 
ATOM     37  C   UNL     1      32.159 -11.313 -22.043  0.00  0.00    -0.101 C 
ATOM     38  C   UNL     1      33.594  -9.920 -23.391  0.00  0.00    -0.101 C 
ATOM     39  C   UNL     1      31.928  -8.914 -21.965  0.00  0.00    -0.101 C 
ATOM     40  H   UNL     1      34.522 -12.339 -22.744  0.00  0.00    -0.079 HD
ATOM     41  H   UNL     1      31.576 -10.099 -23.567  0.00  0.00    -0.080 HD
ENDBRANCH  32  33
ENDBRANCH  26  32
ENDBRANCH  24  31
ENDBRANCH   1  23
TORSDOF 6
ENDMDL
MODEL 4
REMARK VINA RESULT:      -9.3      9.087     17.492
REMARK  Name = 5291
REMARK  6 active torsions:
REMARK  status: ('A' for Active; 'I' for Inactive)
REMARK    1  A    between atoms: C_1  and  N_23
REMARK    2  A    between atoms: C_2  and  N_8
REMARK    3  A    between atoms: C_12  and  C_17
REMARK    4  A    between atoms: C_24  and  C_31
REMARK    5  A    between atoms: C_26  and  C_32
REMARK    6  A    between atoms: C_32  and  N_33
REMARK                            x       y       z     vdW  Elec       q    Type
REMARK                         _______ _______ _______ _____ _____    ______ ____
ROOT
ATOM      1  C   UNL     1      32.483  -8.688 -22.220  0.00  0.00    +0.052 C 
ATOM      2  C   UNL     1      31.610  -6.456 -22.149  0.00  0.00    +0.055 C 
ATOM      3  C   UNL     1      31.790  -7.658 -22.833  0.00  0.00    +0.030 C 
ATOM      4  C   UNL     1      32.127  -6.302 -20.862  0.00  0.00    -0.008 C 
ATOM      5  C   UNL     1      33.002  -8.552 -20.944  0.00  0.00    +0.014 C 
ATOM      6  C   UNL     1      32.823  -7.349 -20.260  0.00  0.00    -0.002 C 
ATOM      7  C   UNL     1      31.950  -5.025 -20.107  0.00  0.00    +0.032 C 
ENDROOT
BRANCH   2   8
ATOM      8  N   UNL     1      30.902  -5.405 -22.773  0.00  0.00    -0.248 N 
ATOM      9  N   UNL     1      32.422  -4.728 -24.429  0.00  0.00    -0.337 NA
ATOM     10  N   UNL     1      30.287  -3.636 -24.187  0.00  0.00    -0.170 NA
ATOM     11  C   UNL     1      31.218  -4.550 -23.845  0.00  0.00    +0.149 C 
ATOM     12  C   UNL     1      32.692  -3.892 -25.452  0.00  0.00    +0.147 C 
ATOM     13  C   UNL     1      31.822  -2.916 -25.896  0.00  0.00    +0.055 C 
ATOM     14  C   UNL     1      30.623  -2.833 -25.219  0.00  0.00    +0.114 C 
ATOM     15  H   UNL     1      30.015  -5.238 -22.382  0.00  0.00    +0.165 HD
BRANCH  12  17
ATOM     16  N   UNL     1      35.716  -3.237 -27.532  0.00  0.00    -0.242 NA
ATOM     17  C   UNL     1      33.980  -4.083 -26.076  0.00  0.00    +0.050 C 
ATOM     18  C   UNL     1      34.722  -5.238 -25.852  0.00  0.00    +0.006 C 
ATOM     19  C   UNL     1      34.517  -3.121 -26.917  0.00  0.00    +0.101 C 
ATOM     20  C   UNL     1      35.958  -5.394 -26.467  0.00  0.00    +0.021 C 
ATOM     21  C   UNL     1      36.407  -4.373 -27.290  0.00  0.00    +0.099 C 
ENDBRANCH  12  17
ENDBRANCH   2   8
BRANCH   1  23
ATOM     22  O   UNL     1      34.581  -9.496 -24.203  0.00  0.00    -0.270 OA
ATOM     23  N   UNL     1      32.664  -9.909 -22.914  0.00  0.00    -0.280 N 
ATOM     24  C   UNL     1      33.663 -10.249 -23.837  0.00  0.00    +0.249 C 
ATOM     25  H   UNL     1      32.002 -10.612 -22.723  0.00  0.00    +0.155 HD
BRANCH  24  31
ATOM     26  C   UNL     1      33.393 -14.126 -25.505  0.00  0.00    -0.043 C 
ATOM     27  C   UNL     1      33.638 -13.042 -26.335  0.00  0.00    -0.006 C 
ATOM     28  C   UNL     1      33.236 -13.958 -24.136  0.00  0.00    -0.006 C 
ATOM     29  C   UNL     1      33.728 -11.763 -25.785  0.00  0.00    +0.004 C 
ATOM     30  C   UNL     1      33.326 -12.680 -23.586  0.00  0.00    +0.004 C 
ATOM     31  C   UNL     1      33.572 -11.582 -24.410  0.00  0.00    +0.054 C 
BRANCH  26  32
ATOM     32  C   UNL     1      33.298 -15.507 -26.098  0.00  0.00    -0.050 C 
BRANCH  32  33
ATOM     33  N   UNL     1      33.534 -16.547 -25.098  0.00  0.00    +0.387 N 
ATOM     34  N   UNL     1      35.013 -18.774 -23.996  0.00  0.00    +0.383 N 
ATOM     35  C   UNL     1      34.830 -16.349 -24.436  0.00  0.00    -0.100 C 
ATOM     36  C   UNL     1      33.468 -17.880 -25.707  0.00  0.00    -0.100 C 
ATOM     37  C   UNL     1      35.078 -17.439 -23.388  0.00  0.00    -0.101 C 
ATOM     38  C   UNL     1      33.718 -18.972 -24.660  0.00  0.00    -0.101 C 
ATOM     39  C   UNL     1      35.247 -19.812 -22.995  0.00  0.00    -0.101 C 
ATOM     40  H   UNL     1      32.800 -16.478 -24.394  0.00  0.00    -0.079 HD
ATOM     41  H   UNL     1      35.748 -18.843 -24.699  0.00  0.00    -0.080 HD
ENDBRANCH  32  33
ENDBRANCH  26  32
ENDBRANCH  24  31
ENDBRANCH   1  23
TORSDOF 6
ENDMDL
