MODEL 1
REMARK VINA RESULT:     -12.1      0.000      0.000
REMARK  Name = 52920501
REMARK  9 active torsions:
REMARK  status: ('A' for Active; 'I' for Inactive)
REMARK    1  A    between atoms: N_1  and  C_12
REMARK    2  A    between atoms: C_5  and  O_27
REMARK    3  A    between atoms: C_9  and  C_15
REMARK    4  A    between atoms: C_15  and  S_16
REMARK    5  A    between atoms: S_16  and  N_19
REMARK    6  A    between atoms: N_19  and  C_21
REMARK    7  A    between atoms: C_21  and  C_22
REMARK    8  A    between atoms: C_22  and  N_23
REMARK    9  A    between atoms: O_27  and  C_35
REMARK                            x       y       z     vdW  Elec       q    Type
REMARK                         _______ _______ _______ _____ _____    ______ ____
ROOT
ATOM      1  N   UNL     1      32.625 -22.632 -18.450  0.00  0.00    -0.247 N 
ATOM      2  N   UNL     1      33.249 -23.042 -16.226  0.00  0.00    -0.300 NA
ATOM      3  N   UNL     1      31.026 -23.556 -17.002  0.00  0.00    -0.170 NA
ATOM      4  C   UNL     1      32.284 -23.100 -17.162  0.00  0.00    +0.152 C 
ATOM      5  C   UNL     1      32.888 -23.496 -15.007  0.00  0.00    +0.295 C 
ATOM      6  C   UNL     1      31.633 -23.988 -14.713  0.00  0.00    +0.094 C 
ATOM      7  C   UNL     1      30.734 -23.994 -15.760  0.00  0.00    +0.118 C 
ATOM      8  H   UNL     1      31.889 -22.693 -19.102  0.00  0.00    +0.165 HD
ENDROOT
BRANCH   1  12
ATOM      9  C   UNL     1      34.932 -20.686 -20.594  0.00  0.00    +0.004 C 
ATOM     10  C   UNL     1      33.756 -21.216 -20.065  0.00  0.00    +0.013 C 
ATOM     11  C   UNL     1      36.165 -21.036 -20.042  0.00  0.00    -0.002 C 
ATOM     12  C   UNL     1      33.811 -22.096 -18.984  0.00  0.00    +0.057 C 
ATOM     13  C   UNL     1      36.221 -21.916 -18.961  0.00  0.00    +0.001 C 
ATOM     14  C   UNL     1      35.044 -22.446 -18.433  0.00  0.00    +0.015 C 
BRANCH   9  15
ATOM     15  C   UNL     1      34.872 -19.745 -21.749  0.00  0.00    +0.195 C 
BRANCH  15  16
ATOM     16  S   UNL     1      35.998 -18.424 -21.432  0.00  0.00    +0.045 S 
ATOM     17  O   UNL     1      35.348 -17.465 -20.554  0.00  0.00    -0.157 OA
ATOM     18  O   UNL     1      37.277 -19.007 -21.058  0.00  0.00    -0.157 OA
BRANCH  16  19
ATOM     19  N   UNL     1      36.159 -17.749 -22.995  0.00  0.00    -0.185 NA
ATOM     20  H   UNL     1      36.671 -18.425 -23.562  0.00  0.00    +0.148 HD
BRANCH  19  21
ATOM     21  C   UNL     1      34.943 -17.389 -23.746  0.00  0.00    +0.068 C 
BRANCH  21  22
ATOM     22  C   UNL     1      34.790 -15.875 -23.758  0.00  0.00    -0.058 C 
BRANCH  22  23
ATOM     23  N   UNL     1      33.544 -15.498 -24.415  0.00  0.00    +0.385 N 
ATOM     24  C   UNL     1      33.310 -14.058 -24.290  0.00  0.00    -0.101 C 
ATOM     25  C   UNL     1      33.566 -15.887 -25.826  0.00  0.00    -0.101 C 
ATOM     26  H   UNL     1      32.780 -15.992 -23.954  0.00  0.00    -0.080 HD
ENDBRANCH  22  23
ENDBRANCH  21  22
ENDBRANCH  19  21
ENDBRANCH  16  19
ENDBRANCH  15  16
ENDBRANCH   9  15
ENDBRANCH   1  12
BRANCH   5  27
ATOM     27  O   UNL     1      33.848 -23.457 -14.011  0.00  0.00    -0.427 OA
BRANCH  27  35
ATOM     28  N   UNL     1      39.049 -24.567 -15.344  0.00  0.00    -0.316 N 
ATOM     29  C   UNL     1      37.119 -25.080 -14.349  0.00  0.00    +0.017 C 
ATOM     30  C   UNL     1      37.771 -24.111 -15.116  0.00  0.00    +0.048 C 
ATOM     31  C   UNL     1      39.229 -25.787 -14.751  0.00  0.00    +0.026 C 
ATOM     32  C   UNL     1      38.051 -26.131 -14.126  0.00  0.00    +0.012 C 
ATOM     33  C   UNL     1      35.780 -24.859 -13.971  0.00  0.00    +0.039 C 
ATOM     34  C   UNL     1      37.147 -22.927 -15.524  0.00  0.00    +0.018 C 
ATOM     35  C   UNL     1      35.144 -23.679 -14.372  0.00  0.00    +0.148 C 
ATOM     36  C   UNL     1      35.818 -22.729 -15.137  0.00  0.00    +0.039 C 
ATOM     37  C   UNL     1      40.515 -26.501 -14.841  0.00  0.00    +0.047 C 
ATOM     38  H   UNL     1      39.736 -24.085 -15.861  0.00  0.00    +0.152 HD
ENDBRANCH  27  35
ENDBRANCH   5  27
TORSDOF 9
ENDMDL
MODEL 2
REMARK VINA RESULT:     -11.8      2.757     10.010
REMARK  Name = 52920501
REMARK  9 active torsions:
REMARK  status: ('A' for Active; 'I' for Inactive)
REMARK    1  A    between atoms: N_1  and  C_12
REMARK    2  A    between atoms: C_5  and  O_27
REMARK    3  A    between atoms: C_9  and  C_15
REMARK    4  A    between atoms: C_15  and  S_16
REMARK    5  A    between atoms: S_16  and  N_19
REMARK    6  A    between atoms: N_19  and  C_21
REMARK    7  A    between atoms: C_21  and  C_22
REMARK    8  A    between atoms: C_22  and  N_23
REMARK    9  A    between atoms: O_27  and  C_35
REMARK                            x       y       z     vdW  Elec       q    Type
REMARK                         _______ _______ _______ _____ _____    ______ ____
ROOT
ATOM      1  N   UNL     1      34.363 -22.905 -17.561  0.00  0.00    -0.247 N 
ATOM      2  N   UNL     1      35.157 -21.390 -19.168  0.00  0.00    -0.300 NA
ATOM      3  N   UNL     1      32.861 -22.121 -19.184  0.00  0.00    -0.170 NA
ATOM      4  C   UNL     1      34.115 -22.099 -18.693  0.00  0.00    +0.152 C 
ATOM      5  C   UNL     1      34.885 -20.632 -20.250  0.00  0.00    +0.295 C 
ATOM      6  C   UNL     1      33.643 -20.566 -20.847  0.00  0.00    +0.094 C 
ATOM      7  C   UNL     1      32.659 -21.340 -20.266  0.00  0.00    +0.118 C 
ATOM      8  H   UNL     1      33.574 -23.404 -17.249  0.00  0.00    +0.165 HD
ENDROOT
BRANCH   1  12
ATOM      9  C   UNL     1      36.669 -24.363 -15.058  0.00  0.00    +0.004 C 
ATOM     10  C   UNL     1      35.524 -24.137 -15.822  0.00  0.00    +0.013 C 
ATOM     11  C   UNL     1      37.809 -23.584 -15.263  0.00  0.00    -0.002 C 
ATOM     12  C   UNL     1      35.518 -23.134 -16.791  0.00  0.00    +0.057 C 
ATOM     13  C   UNL     1      37.803 -22.580 -16.232  0.00  0.00    +0.001 C 
ATOM     14  C   UNL     1      36.657 -22.355 -16.995  0.00  0.00    +0.015 C 
BRANCH   9  15
ATOM     15  C   UNL     1      36.676 -25.436 -14.023  0.00  0.00    +0.195 C 
BRANCH  15  16
ATOM     16  S   UNL     1      36.191 -24.713 -12.489  0.00  0.00    +0.045 S 
ATOM     17  O   UNL     1      36.877 -25.411 -11.414  0.00  0.00    -0.157 OA
ATOM     18  O   UNL     1      36.312 -23.269 -12.617  0.00  0.00    -0.157 OA
BRANCH  16  19
ATOM     19  N   UNL     1      34.527 -25.106 -12.452  0.00  0.00    -0.185 NA
ATOM     20  H   UNL     1      34.263 -25.197 -11.471  0.00  0.00    +0.148 HD
BRANCH  19  21
ATOM     21  C   UNL     1      33.561 -24.182 -13.075  0.00  0.00    +0.068 C 
BRANCH  21  22
ATOM     22  C   UNL     1      32.482 -24.987 -13.783  0.00  0.00    -0.058 C 
BRANCH  22  23
ATOM     23  N   UNL     1      31.235 -24.233 -13.825  0.00  0.00    +0.385 N 
ATOM     24  C   UNL     1      31.387 -23.030 -14.646  0.00  0.00    -0.101 C 
ATOM     25  C   UNL     1      30.146 -25.065 -14.340  0.00  0.00    -0.101 C 
ATOM     26  H   UNL     1      31.003 -23.949 -12.873  0.00  0.00    -0.080 HD
ENDBRANCH  22  23
ENDBRANCH  21  22
ENDBRANCH  19  21
ENDBRANCH  16  19
ENDBRANCH  15  16
ENDBRANCH   9  15
ENDBRANCH   1  12
BRANCH   5  27
ATOM     27  O   UNL     1      35.925 -19.884 -20.774  0.00  0.00    -0.427 OA
BRANCH  27  35
ATOM     28  N   UNL     1      34.617 -15.528 -23.835  0.00  0.00    -0.316 N 
ATOM     29  C   UNL     1      35.022 -16.503 -21.870  0.00  0.00    +0.017 C 
ATOM     30  C   UNL     1      34.954 -16.725 -23.247  0.00  0.00    +0.048 C 
ATOM     31  C   UNL     1      34.469 -14.558 -22.881  0.00  0.00    +0.026 C 
ATOM     32  C   UNL     1      34.714 -15.131 -21.654  0.00  0.00    +0.012 C 
ATOM     33  C   UNL     1      35.353 -17.580 -21.024  0.00  0.00    +0.039 C 
ATOM     34  C   UNL     1      35.202 -17.977 -23.823  0.00  0.00    +0.018 C 
ATOM     35  C   UNL     1      35.604 -18.837 -21.586  0.00  0.00    +0.148 C 
ATOM     36  C   UNL     1      35.529 -19.030 -22.964  0.00  0.00    +0.039 C 
ATOM     37  C   UNL     1      34.107 -13.175 -23.243  0.00  0.00    +0.047 C 
ATOM     38  H   UNL     1      34.499 -15.388 -24.803  0.00  0.00    +0.152 HD
ENDBRANCH  27  35
ENDBRANCH   5  27
TORSDOF 9
ENDMDL
MODEL 3
REMARK VINA RESULT:     -11.1      3.431     11.826
REMARK  Name = 52920501
REMARK  9 active torsions:
REMARK  status: ('A' for Active; 'I' for Inactive)
REMARK    1  A    between atoms: N_1  and  C_12
REMARK    2  A    between atoms: C_5  and  O_27
REMARK    3  A    between atoms: C_9  and  C_15
REMARK    4  A    between atoms: C_15  and  S_16
REMARK    5  A    between atoms: S_16  and  N_19
REMARK    6  A    between atoms: N_19  and  C_21
REMARK    7  A    between atoms: C_21  and  C_22
REMARK    8  A    between atoms: C_22  and  N_23
REMARK    9  A    between atoms: O_27  and  C_35
REMARK                            x       y       z     vdW  Elec       q    Type
REMARK                         _______ _______ _______ _____ _____    ______ ____
ROOT
ATOM      1  N   UNL     1      34.477 -19.166 -23.525  0.00  0.00    -0.247 N 
ATOM      2  N   UNL     1      34.692 -16.869 -23.098  0.00  0.00    -0.300 NA
ATOM      3  N   UNL     1      33.931 -17.663 -25.243  0.00  0.00    -0.170 NA
ATOM      4  C   UNL     1      34.361 -17.833 -23.977  0.00  0.00    +0.152 C 
ATOM      5  C   UNL     1      34.571 -15.608 -23.564  0.00  0.00    +0.295 C 
ATOM      6  C   UNL     1      34.142 -15.299 -24.838  0.00  0.00    +0.094 C 
ATOM      7  C   UNL     1      33.833 -16.378 -25.642  0.00  0.00    +0.118 C 
ATOM      8  H   UNL     1      34.224 -19.837 -24.200  0.00  0.00    +0.165 HD
ENDROOT
BRANCH   1  12
ATOM      9  C   UNL     1      34.346 -20.882 -20.247  0.00  0.00    +0.004 C 
ATOM     10  C   UNL     1      33.944 -20.330 -21.463  0.00  0.00    +0.013 C 
ATOM     11  C   UNL     1      35.686 -20.825 -19.865  0.00  0.00    -0.002 C 
ATOM     12  C   UNL     1      34.882 -19.723 -22.298  0.00  0.00    +0.057 C 
ATOM     13  C   UNL     1      36.625 -20.217 -20.699  0.00  0.00    +0.001 C 
ATOM     14  C   UNL     1      36.222 -19.666 -21.916  0.00  0.00    +0.015 C 
BRANCH   9  15
ATOM     15  C   UNL     1      33.343 -21.532 -19.355  0.00  0.00    +0.195 C 
BRANCH  15  16
ATOM     16  S   UNL     1      34.054 -23.023 -18.736  0.00  0.00    +0.045 S 
ATOM     17  O   UNL     1      34.146 -23.978 -19.829  0.00  0.00    -0.157 OA
ATOM     18  O   UNL     1      35.240 -22.670 -17.972  0.00  0.00    -0.157 OA
BRANCH  16  19
ATOM     19  N   UNL     1      32.845 -23.531 -17.637  0.00  0.00    -0.185 NA
ATOM     20  H   UNL     1      32.558 -24.468 -17.920  0.00  0.00    +0.148 HD
BRANCH  19  21
ATOM     21  C   UNL     1      33.168 -23.594 -16.200  0.00  0.00    +0.068 C 
BRANCH  21  22
ATOM     22  C   UNL     1      31.907 -23.326 -15.391  0.00  0.00    -0.058 C 
BRANCH  22  23
ATOM     23  N   UNL     1      30.825 -24.195 -15.838  0.00  0.00    +0.385 N 
ATOM     24  C   UNL     1      30.547 -25.228 -14.838  0.00  0.00    -0.101 C 
ATOM     25  C   UNL     1      29.617 -23.415 -16.112  0.00  0.00    -0.101 C 
ATOM     26  H   UNL     1      31.120 -24.651 -16.701  0.00  0.00    -0.080 HD
ENDBRANCH  22  23
ENDBRANCH  21  22
ENDBRANCH  19  21
ENDBRANCH  16  19
ENDBRANCH  15  16
ENDBRANCH   9  15
ENDBRANCH   1  12
BRANCH   5  27
ATOM     27  O   UNL     1      34.899 -14.581 -22.695  0.00  0.00    -0.427 OA
BRANCH  27  35
ATOM     28  N   UNL     1      31.327 -10.462 -22.123  0.00  0.00    -0.316 N 
ATOM     29  C   UNL     1      33.146 -11.378 -23.033  0.00  0.00    +0.017 C 
ATOM     30  C   UNL     1      32.107 -11.596 -22.126  0.00  0.00    +0.048 C 
ATOM     31  C   UNL     1      31.834  -9.537 -22.995  0.00  0.00    +0.026 C 
ATOM     32  C   UNL     1      32.961 -10.075 -23.574  0.00  0.00    +0.012 C 
ATOM     33  C   UNL     1      34.100 -12.396 -23.229  0.00  0.00    +0.039 C 
ATOM     34  C   UNL     1      31.974 -12.785 -21.401  0.00  0.00    +0.018 C 
ATOM     35  C   UNL     1      33.980 -13.592 -22.511  0.00  0.00    +0.148 C 
ATOM     36  C   UNL     1      32.933 -13.781 -21.612  0.00  0.00    +0.039 C 
ATOM     37  C   UNL     1      31.186  -8.227 -23.186  0.00  0.00    +0.047 C 
ATOM     38  H   UNL     1      30.519 -10.334 -21.574  0.00  0.00    +0.152 HD
ENDBRANCH  27  35
ENDBRANCH   5  27
TORSDOF 9
ENDMDL
MODEL 4
REMARK VINA RESULT:     -11.1      2.653     10.467
REMARK  Name = 52920501
REMARK  9 active torsions:
REMARK  status: ('A' for Active; 'I' for Inactive)
REMARK    1  A    between atoms: N_1  and  C_12
REMARK    2  A    between atoms: C_5  and  O_27
REMARK    3  A    between atoms: C_9  and  C_15
REMARK    4  A    between atoms: C_15  and  S_16
REMARK    5  A    between atoms: S_16  and  N_19
REMARK    6  A    between atoms: N_19  and  C_21
REMARK    7  A    between atoms: C_21  and  C_22
REMARK    8  A    between atoms: C_22  and  N_23
REMARK    9  A    between atoms: O_27  and  C_35
REMARK                            x       y       z     vdW  Elec       q    Type
REMARK                         _______ _______ _______ _____ _____    ______ ____
ROOT
ATOM      1  N   UNL     1      34.065 -22.827 -17.727  0.00  0.00    -0.247 N 
ATOM      2  N   UNL     1      34.960 -21.262 -19.229  0.00  0.00    -0.300 NA
ATOM      3  N   UNL     1      32.690 -22.039 -19.458  0.00  0.00    -0.170 NA
ATOM      4  C   UNL     1      33.897 -22.002 -18.861  0.00  0.00    +0.152 C 
ATOM      5  C   UNL     1      34.765 -20.487 -20.316  0.00  0.00    +0.295 C 
ATOM      6  C   UNL     1      33.578 -20.434 -21.017  0.00  0.00    +0.094 C 
ATOM      7  C   UNL     1      32.565 -21.239 -20.538  0.00  0.00    +0.118 C 
ATOM      8  H   UNL     1      33.263 -23.349 -17.494  0.00  0.00    +0.165 HD
ENDROOT
BRANCH   1  12
ATOM      9  C   UNL     1      36.089 -24.100 -14.901  0.00  0.00    +0.004 C 
ATOM     10  C   UNL     1      35.009 -23.881 -15.755  0.00  0.00    +0.013 C 
ATOM     11  C   UNL     1      37.316 -23.485 -15.155  0.00  0.00    -0.002 C 
ATOM     12  C   UNL     1      35.155 -23.049 -16.865  0.00  0.00    +0.057 C 
ATOM     13  C   UNL     1      37.462 -22.652 -16.265  0.00  0.00    +0.001 C 
ATOM     14  C   UNL     1      36.381 -22.434 -17.119  0.00  0.00    +0.015 C 
BRANCH   9  15
ATOM     15  C   UNL     1      35.933 -24.991 -13.715  0.00  0.00    +0.195 C 
BRANCH  15  16
ATOM     16  S   UNL     1      36.284 -24.039 -12.272  0.00  0.00    +0.045 S 
ATOM     17  O   UNL     1      36.840 -22.761 -12.686  0.00  0.00    -0.157 OA
ATOM     18  O   UNL     1      35.112 -24.082 -11.412  0.00  0.00    -0.157 OA
BRANCH  16  19
ATOM     19  N   UNL     1      37.510 -24.984 -11.546  0.00  0.00    -0.185 NA
ATOM     20  H   UNL     1      37.122 -25.366 -10.683  0.00  0.00    +0.148 HD
BRANCH  19  21
ATOM     21  C   UNL     1      38.080 -26.116 -12.299  0.00  0.00    +0.068 C 
BRANCH  21  22
ATOM     22  C   UNL     1      39.331 -25.652 -13.032  0.00  0.00    -0.058 C 
BRANCH  22  23
ATOM     23  N   UNL     1      39.600 -26.518 -14.173  0.00  0.00    +0.385 N 
ATOM     24  C   UNL     1      38.350 -27.034 -14.734  0.00  0.00    -0.101 C 
ATOM     25  C   UNL     1      40.359 -25.801 -15.198  0.00  0.00    -0.101 C 
ATOM     26  H   UNL     1      40.159 -27.308 -13.848  0.00  0.00    -0.080 HD
ENDBRANCH  22  23
ENDBRANCH  21  22
ENDBRANCH  19  21
ENDBRANCH  16  19
ENDBRANCH  15  16
ENDBRANCH   9  15
ENDBRANCH   1  12
BRANCH   5  27
ATOM     27  O   UNL     1      35.830 -19.707 -20.734  0.00  0.00    -0.427 OA
BRANCH  27  35
ATOM     28  N   UNL     1      34.699 -15.329 -23.835  0.00  0.00    -0.316 N 
ATOM     29  C   UNL     1      34.966 -16.324 -21.856  0.00  0.00    +0.017 C 
ATOM     30  C   UNL     1      35.007 -16.529 -23.237  0.00  0.00    +0.048 C 
ATOM     31  C   UNL     1      34.465 -14.373 -22.884  0.00  0.00    +0.026 C 
ATOM     32  C   UNL     1      34.623 -14.959 -21.648  0.00  0.00    +0.012 C 
ATOM     33  C   UNL     1      35.247 -17.407 -21.000  0.00  0.00    +0.039 C 
ATOM     34  C   UNL     1      35.315 -17.770 -23.806  0.00  0.00    +0.018 C 
ATOM     35  C   UNL     1      35.557 -18.654 -21.555  0.00  0.00    +0.148 C 
ATOM     36  C   UNL     1      35.590 -18.830 -22.937  0.00  0.00    +0.039 C 
ATOM     37  C   UNL     1      34.112 -12.991 -23.256  0.00  0.00    +0.047 C 
ATOM     38  H   UNL     1      34.653 -15.179 -24.807  0.00  0.00    +0.152 HD
ENDBRANCH  27  35
ENDBRANCH   5  27
TORSDOF 9
ENDMDL
MODEL 5
REMARK VINA RESULT:     -10.9      3.450      9.060
REMARK  Name = 52920501
REMARK  9 active torsions:
REMARK  status: ('A' for Active; 'I' for Inactive)
REMARK    1  A    between atoms: N_1  and  C_12
REMARK    2  A    between atoms: C_5  and  O_27
REMARK    3  A    between atoms: C_9  and  C_15
REMARK    4  A    between atoms: C_15  and  S_16
REMARK    5  A    between atoms: S_16  and  N_19
REMARK    6  A    between atoms: N_19  and  C_21
REMARK    7  A    between atoms: C_21  and  C_22
REMARK    8  A    between atoms: C_22  and  N_23
REMARK    9  A    between atoms: O_27  and  C_35
REMARK                            x       y       z     vdW  Elec       q    Type
REMARK                         _______ _______ _______ _____ _____    ______ ____
ROOT
ATOM      1  N   UNL     1      34.461 -23.671 -14.424  0.00  0.00    -0.247 N 
ATOM      2  N   UNL     1      33.258 -23.275 -16.399  0.00  0.00    -0.300 NA
ATOM      3  N   UNL     1      32.118 -23.620 -14.303  0.00  0.00    -0.170 NA
ATOM      4  C   UNL     1      33.218 -23.514 -15.075  0.00  0.00    +0.152 C 
ATOM      5  C   UNL     1      32.053 -23.131 -16.988  0.00  0.00    +0.295 C 
ATOM      6  C   UNL     1      30.854 -23.216 -16.311  0.00  0.00    +0.094 C 
ATOM      7  C   UNL     1      30.948 -23.465 -14.957  0.00  0.00    +0.118 C 
ATOM      8  H   UNL     1      34.384 -23.844 -13.457  0.00  0.00    +0.165 HD
ENDROOT
BRANCH   1  12
ATOM      9  C   UNL     1      37.881 -24.744 -15.352  0.00  0.00    +0.004 C 
ATOM     10  C   UNL     1      36.565 -24.787 -14.893  0.00  0.00    +0.013 C 
ATOM     11  C   UNL     1      38.423 -23.540 -15.804  0.00  0.00    -0.002 C 
ATOM     12  C   UNL     1      35.790 -23.628 -14.887  0.00  0.00    +0.057 C 
ATOM     13  C   UNL     1      37.648 -22.380 -15.798  0.00  0.00    +0.001 C 
ATOM     14  C   UNL     1      36.331 -22.425 -15.339  0.00  0.00    +0.015 C 
BRANCH   9  15
ATOM     15  C   UNL     1      38.710 -25.984 -15.359  0.00  0.00    +0.195 C 
BRANCH  15  16
ATOM     16  S   UNL     1      40.092 -25.719 -14.295  0.00  0.00    +0.045 S 
ATOM     17  O   UNL     1      40.639 -27.012 -13.919  0.00  0.00    -0.157 OA
ATOM     18  O   UNL     1      40.945 -24.716 -14.911  0.00  0.00    -0.157 OA
BRANCH  16  19
ATOM     19  N   UNL     1      39.329 -25.007 -12.939  0.00  0.00    -0.185 NA
ATOM     20  H   UNL     1      38.683 -24.303 -13.295  0.00  0.00    +0.148 HD
BRANCH  19  21
ATOM     21  C   UNL     1      38.565 -25.867 -12.017  0.00  0.00    +0.068 C 
BRANCH  21  22
ATOM     22  C   UNL     1      37.122 -25.387 -11.963  0.00  0.00    -0.058 C 
BRANCH  22  23
ATOM     23  N   UNL     1      36.967 -24.364 -10.936  0.00  0.00    +0.385 N 
ATOM     24  C   UNL     1      37.107 -23.027 -11.516  0.00  0.00    -0.101 C 
ATOM     25  C   UNL     1      35.670 -24.494 -10.269  0.00  0.00    -0.101 C 
ATOM     26  H   UNL     1      37.704 -24.496 -10.243  0.00  0.00    -0.080 HD
ENDBRANCH  22  23
ENDBRANCH  21  22
ENDBRANCH  19  21
ENDBRANCH  16  19
ENDBRANCH  15  16
ENDBRANCH   9  15
ENDBRANCH   1  12
BRANCH   5  27
ATOM     27  O   UNL     1      32.042 -22.882 -18.350  0.00  0.00    -0.427 OA
BRANCH  27  35
ATOM     28  N   UNL     1      36.289 -20.293 -20.656  0.00  0.00    -0.316 N 
ATOM     29  C   UNL     1      34.101 -20.634 -20.388  0.00  0.00    +0.017 C 
ATOM     30  C   UNL     1      35.367 -21.052 -19.973  0.00  0.00    +0.048 C 
ATOM     31  C   UNL     1      35.653 -19.411 -21.487  0.00  0.00    +0.026 C 
ATOM     32  C   UNL     1      34.297 -19.598 -21.344  0.00  0.00    +0.012 C 
ATOM     33  C   UNL     1      32.965 -21.257 -19.836  0.00  0.00    +0.039 C 
ATOM     34  C   UNL     1      35.554 -22.067 -19.028  0.00  0.00    +0.018 C 
ATOM     35  C   UNL     1      33.136 -22.274 -18.889  0.00  0.00    +0.148 C 
ATOM     36  C   UNL     1      34.412 -22.671 -18.493  0.00  0.00    +0.039 C 
ATOM     37  C   UNL     1      36.411 -18.476 -22.338  0.00  0.00    +0.047 C 
ATOM     38  H   UNL     1      37.266 -20.372 -20.560  0.00  0.00    +0.152 HD
ENDBRANCH  27  35
ENDBRANCH   5  27
TORSDOF 9
ENDMDL
MODEL 6
REMARK VINA RESULT:     -10.6      3.088     12.183
REMARK  Name = 52920501
REMARK  9 active torsions:
REMARK  status: ('A' for Active; 'I' for Inactive)
REMARK    1  A    between atoms: N_1  and  C_12
REMARK    2  A    between atoms: C_5  and  O_27
REMARK    3  A    between atoms: C_9  and  C_15
REMARK    4  A    between atoms: C_15  and  S_16
REMARK    5  A    between atoms: S_16  and  N_19
REMARK    6  A    between atoms: N_19  and  C_21
REMARK    7  A    between atoms: C_21  and  C_22
REMARK    8  A    between atoms: C_22  and  N_23
REMARK    9  A    between atoms: O_27  and  C_35
REMARK                            x       y       z     vdW  Elec       q    Type
REMARK                         _______ _______ _______ _____ _____    ______ ____
ROOT
ATOM      1  N   UNL     1      34.333 -18.710 -23.875  0.00  0.00    -0.247 N 
ATOM      2  N   UNL     1      34.559 -16.397 -23.552  0.00  0.00    -0.300 NA
ATOM      3  N   UNL     1      33.560 -17.273 -25.562  0.00  0.00    -0.170 NA
ATOM      4  C   UNL     1      34.141 -17.395 -24.353  0.00  0.00    +0.152 C 
ATOM      5  C   UNL     1      34.362 -15.155 -24.040  0.00  0.00    +0.295 C 
ATOM      6  C   UNL     1      33.778 -14.895 -25.262  0.00  0.00    +0.094 C 
ATOM      7  C   UNL     1      33.393 -16.004 -25.988  0.00  0.00    +0.118 C 
ATOM      8  H   UNL     1      34.013 -19.407 -24.493  0.00  0.00    +0.165 HD
ENDROOT
BRANCH   1  12
ATOM      9  C   UNL     1      34.665 -20.487 -20.644  0.00  0.00    +0.004 C 
ATOM     10  C   UNL     1      34.111 -19.982 -21.820  0.00  0.00    +0.013 C 
ATOM     11  C   UNL     1      36.001 -20.227 -20.335  0.00  0.00    -0.002 C 
ATOM     12  C   UNL     1      34.892 -19.219 -22.688  0.00  0.00    +0.057 C 
ATOM     13  C   UNL     1      36.782 -19.464 -21.203  0.00  0.00    +0.001 C 
ATOM     14  C   UNL     1      36.227 -18.959 -22.380  0.00  0.00    +0.015 C 
BRANCH   9  15
ATOM     15  C   UNL     1      33.831 -21.304 -19.717  0.00  0.00    +0.195 C 
BRANCH  15  16
ATOM     16  S   UNL     1      34.743 -22.756 -19.302  0.00  0.00    +0.045 S 
ATOM     17  O   UNL     1      34.056 -23.907 -19.863  0.00  0.00    -0.157 OA
ATOM     18  O   UNL     1      36.141 -22.512 -19.621  0.00  0.00    -0.157 OA
BRANCH  16  19
ATOM     19  N   UNL     1      34.581 -22.769 -17.600  0.00  0.00    -0.185 NA
ATOM     20  H   UNL     1      34.043 -23.602 -17.357  0.00  0.00    +0.148 HD
BRANCH  19  21
ATOM     21  C   UNL     1      35.797 -22.783 -16.766  0.00  0.00    +0.068 C 
BRANCH  21  22
ATOM     22  C   UNL     1      35.419 -23.131 -15.334  0.00  0.00    -0.058 C 
BRANCH  22  23
ATOM     23  N   UNL     1      36.462 -23.943 -14.719  0.00  0.00    +0.385 N 
ATOM     24  C   UNL     1      36.591 -23.626 -13.295  0.00  0.00    -0.101 C 
ATOM     25  C   UNL     1      36.180 -25.368 -14.898  0.00  0.00    -0.101 C 
ATOM     26  H   UNL     1      37.346 -23.727 -15.180  0.00  0.00    -0.080 HD
ENDBRANCH  22  23
ENDBRANCH  21  22
ENDBRANCH  19  21
ENDBRANCH  16  19
ENDBRANCH  15  16
ENDBRANCH   9  15
ENDBRANCH   1  12
BRANCH   5  27
ATOM     27  O   UNL     1      34.774 -14.095 -23.251  0.00  0.00    -0.427 OA
BRANCH  27  35
ATOM     28  N   UNL     1      31.221 -10.034 -22.277  0.00  0.00    -0.316 N 
ATOM     29  C   UNL     1      33.029 -10.870 -23.284  0.00  0.00    +0.017 C 
ATOM     30  C   UNL     1      31.997 -11.165 -22.389  0.00  0.00    +0.048 C 
ATOM     31  C   UNL     1      31.723  -9.036 -23.068  0.00  0.00    +0.026 C 
ATOM     32  C   UNL     1      32.843  -9.523 -23.704  0.00  0.00    +0.012 C 
ATOM     33  C   UNL     1      33.978 -11.868 -23.579  0.00  0.00    +0.039 C 
ATOM     34  C   UNL     1      31.868 -12.414 -21.773  0.00  0.00    +0.018 C 
ATOM     35  C   UNL     1      33.860 -13.123 -22.970  0.00  0.00    +0.148 C 
ATOM     36  C   UNL     1      32.821 -13.390 -22.081  0.00  0.00    +0.039 C 
ATOM     37  C   UNL     1      31.079  -7.712 -23.134  0.00  0.00    +0.047 C 
ATOM     38  H   UNL     1      30.419  -9.954 -21.711  0.00  0.00    +0.152 HD
ENDBRANCH  27  35
ENDBRANCH   5  27
TORSDOF 9
ENDMDL
MODEL 7
REMARK VINA RESULT:     -10.4      3.318      6.755
REMARK  Name = 52920501
REMARK  9 active torsions:
REMARK  status: ('A' for Active; 'I' for Inactive)
REMARK    1  A    between atoms: N_1  and  C_12
REMARK    2  A    between atoms: C_5  and  O_27
REMARK    3  A    between atoms: C_9  and  C_15
REMARK    4  A    between atoms: C_15  and  S_16
REMARK    5  A    between atoms: S_16  and  N_19
REMARK    6  A    between atoms: N_19  and  C_21
REMARK    7  A    between atoms: C_21  and  C_22
REMARK    8  A    between atoms: C_22  and  N_23
REMARK    9  A    between atoms: O_27  and  C_35
REMARK                            x       y       z     vdW  Elec       q    Type
REMARK                         _______ _______ _______ _____ _____    ______ ____
ROOT
ATOM      1  N   UNL     1      36.097 -17.937 -22.920  0.00  0.00    -0.247 N 
ATOM      2  N   UNL     1      34.965 -19.589 -21.697  0.00  0.00    -0.300 NA
ATOM      3  N   UNL     1      37.265 -19.050 -21.215  0.00  0.00    -0.170 NA
ATOM      4  C   UNL     1      36.109 -18.907 -21.894  0.00  0.00    +0.152 C 
ATOM      5  C   UNL     1      35.013 -20.508 -20.710  0.00  0.00    +0.295 C 
ATOM      6  C   UNL     1      36.133 -20.751 -19.942  0.00  0.00    +0.094 C 
ATOM      7  C   UNL     1      37.241 -19.985 -20.243  0.00  0.00    +0.118 C 
ATOM      8  H   UNL     1      36.954 -17.463 -23.028  0.00  0.00    +0.165 HD
ENDROOT
BRANCH   1  12
ATOM      9  C   UNL     1      33.801 -15.743 -24.822  0.00  0.00    +0.004 C 
ATOM     10  C   UNL     1      34.789 -16.160 -23.931  0.00  0.00    +0.013 C 
ATOM     11  C   UNL     1      33.122 -16.681 -25.601  0.00  0.00    -0.002 C 
ATOM     12  C   UNL     1      35.100 -17.515 -23.819  0.00  0.00    +0.057 C 
ATOM     13  C   UNL     1      33.433 -18.037 -25.489  0.00  0.00    +0.001 C 
ATOM     14  C   UNL     1      34.422 -18.453 -24.597  0.00  0.00    +0.015 C 
BRANCH   9  15
ATOM     15  C   UNL     1      33.469 -14.294 -24.943  0.00  0.00    +0.195 C 
BRANCH  15  16
ATOM     16  S   UNL     1      33.701 -13.551 -23.359  0.00  0.00    +0.045 S 
ATOM     17  O   UNL     1      32.399 -13.381 -22.735  0.00  0.00    -0.157 OA
ATOM     18  O   UNL     1      34.751 -14.284 -22.671  0.00  0.00    -0.157 OA
BRANCH  16  19
ATOM     19  N   UNL     1      34.324 -12.022 -23.804  0.00  0.00    -0.185 NA
ATOM     20  H   UNL     1      35.088 -12.189 -24.459  0.00  0.00    +0.148 HD
BRANCH  19  21
ATOM     21  C   UNL     1      33.423 -11.039 -24.433  0.00  0.00    +0.068 C 
BRANCH  21  22
ATOM     22  C   UNL     1      33.362  -9.788 -23.569  0.00  0.00    -0.058 C 
BRANCH  22  23
ATOM     23  N   UNL     1      32.007  -9.580 -23.074  0.00  0.00    +0.385 N 
ATOM     24  C   UNL     1      31.888 -10.041 -21.689  0.00  0.00    -0.101 C 
ATOM     25  C   UNL     1      31.631  -8.169 -23.173  0.00  0.00    -0.101 C 
ATOM     26  H   UNL     1      31.370 -10.127 -23.654  0.00  0.00    -0.080 HD
ENDBRANCH  22  23
ENDBRANCH  21  22
ENDBRANCH  19  21
ENDBRANCH  16  19
ENDBRANCH  15  16
ENDBRANCH   9  15
ENDBRANCH   1  12
BRANCH   5  27
ATOM     27  O   UNL     1      33.860 -21.235 -20.469  0.00  0.00    -0.427 OA
BRANCH  27  35
ATOM     28  N   UNL     1      33.263 -23.909 -15.720  0.00  0.00    -0.316 N 
ATOM     29  C   UNL     1      32.441 -22.790 -17.467  0.00  0.00    +0.017 C 
ATOM     30  C   UNL     1      33.616 -23.277 -16.891  0.00  0.00    +0.048 C 
ATOM     31  C   UNL     1      31.908 -23.840 -15.536  0.00  0.00    +0.026 C 
ATOM     32  C   UNL     1      31.371 -23.153 -16.602  0.00  0.00    +0.012 C 
ATOM     33  C   UNL     1      32.522 -22.093 -18.688  0.00  0.00    +0.039 C 
ATOM     34  C   UNL     1      34.874 -23.100 -17.478  0.00  0.00    +0.018 C 
ATOM     35  C   UNL     1      33.773 -21.909 -19.287  0.00  0.00    +0.148 C 
ATOM     36  C   UNL     1      34.930 -22.405 -18.690  0.00  0.00    +0.039 C 
ATOM     37  C   UNL     1      31.263 -24.440 -14.354  0.00  0.00    +0.047 C 
ATOM     38  H   UNL     1      33.893 -24.348 -15.104  0.00  0.00    +0.152 HD
ENDBRANCH  27  35
ENDBRANCH   5  27
TORSDOF 9
ENDMDL
MODEL 8
REMARK VINA RESULT:     -10.4      3.302      8.490
REMARK  Name = 52920501
REMARK  9 active torsions:
REMARK  status: ('A' for Active; 'I' for Inactive)
REMARK    1  A    between atoms: N_1  and  C_12
REMARK    2  A    between atoms: C_5  and  O_27
REMARK    3  A    between atoms: C_9  and  C_15
REMARK    4  A    between atoms: C_15  and  S_16
REMARK    5  A    between atoms: S_16  and  N_19
REMARK    6  A    between atoms: N_19  and  C_21
REMARK    7  A    between atoms: C_21  and  C_22
REMARK    8  A    between atoms: C_22  and  N_23
REMARK    9  A    between atoms: O_27  and  C_35
REMARK                            x       y       z     vdW  Elec       q    Type
REMARK                         _______ _______ _______ _____ _____    ______ ____
ROOT
ATOM      1  N   UNL     1      33.586 -24.134 -13.238  0.00  0.00    -0.247 N 
ATOM      2  N   UNL     1      34.079 -23.834 -15.513  0.00  0.00    -0.300 NA
ATOM      3  N   UNL     1      31.826 -23.587 -14.692  0.00  0.00    -0.170 NA
ATOM      4  C   UNL     1      33.142 -23.837 -14.545  0.00  0.00    +0.152 C 
ATOM      5  C   UNL     1      33.620 -23.548 -16.749  0.00  0.00    +0.295 C 
ATOM      6  C   UNL     1      32.297 -23.274 -17.031  0.00  0.00    +0.094 C 
ATOM      7  C   UNL     1      31.437 -23.309 -15.953  0.00  0.00    +0.118 C 
ATOM      8  H   UNL     1      32.868 -24.124 -12.564  0.00  0.00    +0.165 HD
ENDROOT
BRANCH   1  12
ATOM      9  C   UNL     1      36.948 -25.635 -12.852  0.00  0.00    +0.004 C 
ATOM     10  C   UNL     1      35.691 -25.333 -13.376  0.00  0.00    +0.013 C 
ATOM     11  C   UNL     1      37.368 -25.043 -11.661  0.00  0.00    -0.002 C 
ATOM     12  C   UNL     1      34.854 -24.439 -12.710  0.00  0.00    +0.057 C 
ATOM     13  C   UNL     1      36.531 -24.148 -10.994  0.00  0.00    +0.001 C 
ATOM     14  C   UNL     1      35.274 -23.846 -11.519  0.00  0.00    +0.015 C 
BRANCH   9  15
ATOM     15  C   UNL     1      37.843 -26.591 -13.566  0.00  0.00    +0.195 C 
BRANCH  15  16
ATOM     16  S   UNL     1      39.389 -25.787 -13.838  0.00  0.00    +0.045 S 
ATOM     17  O   UNL     1      39.466 -24.627 -12.964  0.00  0.00    -0.157 OA
ATOM     18  O   UNL     1      40.433 -26.799 -13.802  0.00  0.00    -0.157 OA
BRANCH  16  19
ATOM     19  N   UNL     1      39.208 -25.268 -15.457  0.00  0.00    -0.185 NA
ATOM     20  H   UNL     1      38.480 -25.846 -15.877  0.00  0.00    +0.148 HD
BRANCH  19  21
ATOM     21  C   UNL     1      38.848 -23.863 -15.721  0.00  0.00    +0.068 C 
BRANCH  21  22
ATOM     22  C   UNL     1      37.361 -23.775 -16.030  0.00  0.00    -0.058 C 
BRANCH  22  23
ATOM     23  N   UNL     1      36.837 -22.474 -15.628  0.00  0.00    +0.385 N 
ATOM     24  C   UNL     1      37.125 -22.217 -14.216  0.00  0.00    -0.101 C 
ATOM     25  C   UNL     1      37.400 -21.411 -16.463  0.00  0.00    -0.101 C 
ATOM     26  H   UNL     1      35.825 -22.486 -15.756  0.00  0.00    -0.080 HD
ENDBRANCH  22  23
ENDBRANCH  21  22
ENDBRANCH  19  21
ENDBRANCH  16  19
ENDBRANCH  15  16
ENDBRANCH   9  15
ENDBRANCH   1  12
BRANCH   5  27
ATOM     27  O   UNL     1      34.546 -23.531 -17.777  0.00  0.00    -0.427 OA
BRANCH  27  35
ATOM     28  N   UNL     1      34.367 -19.527 -21.518  0.00  0.00    -0.316 N 
ATOM     29  C   UNL     1      35.478 -20.898 -20.153  0.00  0.00    +0.017 C 
ATOM     30  C   UNL     1      34.204 -20.534 -20.595  0.00  0.00    +0.048 C 
ATOM     31  C   UNL     1      35.696 -19.242 -21.676  0.00  0.00    +0.026 C 
ATOM     32  C   UNL     1      36.410 -20.074 -20.844  0.00  0.00    +0.012 C 
ATOM     33  C   UNL     1      35.597 -21.920 -19.191  0.00  0.00    +0.039 C 
ATOM     34  C   UNL     1      33.038 -21.145 -20.120  0.00  0.00    +0.018 C 
ATOM     35  C   UNL     1      34.439 -22.541 -18.708  0.00  0.00    +0.148 C 
ATOM     36  C   UNL     1      33.181 -22.158 -19.166  0.00  0.00    +0.039 C 
ATOM     37  C   UNL     1      36.150 -18.196 -22.611  0.00  0.00    +0.047 C 
ATOM     38  H   UNL     1      33.634 -19.077 -21.997  0.00  0.00    +0.152 HD
ENDBRANCH  27  35
ENDBRANCH   5  27
TORSDOF 9
ENDMDL
MODEL 9
REMARK VINA RESULT:     -10.0      4.658     13.890
REMARK  Name = 52920501
REMARK  9 active torsions:
REMARK  status: ('A' for Active; 'I' for Inactive)
REMARK    1  A    between atoms: N_1  and  C_12
REMARK    2  A    between atoms: C_5  and  O_27
REMARK    3  A    between atoms: C_9  and  C_15
REMARK    4  A    between atoms: C_15  and  S_16
REMARK    5  A    between atoms: S_16  and  N_19
REMARK    6  A    between atoms: N_19  and  C_21
REMARK    7  A    between atoms: C_21  and  C_22
REMARK    8  A    between atoms: C_22  and  N_23
REMARK    9  A    between atoms: O_27  and  C_35
REMARK                            x       y       z     vdW  Elec       q    Type
REMARK                         _______ _______ _______ _____ _____    ______ ____
ROOT
ATOM      1  N   UNL     1      33.833 -15.084 -24.213  0.00  0.00    -0.247 N 
ATOM      2  N   UNL     1      34.237 -12.776 -24.090  0.00  0.00    -0.300 NA
ATOM      3  N   UNL     1      33.270 -13.759 -26.066  0.00  0.00    -0.170 NA
ATOM      4  C   UNL     1      33.777 -13.810 -24.819  0.00  0.00    +0.152 C 
ATOM      5  C   UNL     1      34.170 -11.574 -24.700  0.00  0.00    +0.295 C 
ATOM      6  C   UNL     1      33.672 -11.387 -25.973  0.00  0.00    +0.094 C 
ATOM      7  C   UNL     1      33.233 -12.527 -26.615  0.00  0.00    +0.118 C 
ATOM      8  H   UNL     1      33.486 -15.809 -24.782  0.00  0.00    +0.165 HD
ENDROOT
BRANCH   1  12
ATOM      9  C   UNL     1      35.466 -17.133 -21.597  0.00  0.00    +0.004 C 
ATOM     10  C   UNL     1      35.017 -16.702 -22.845  0.00  0.00    +0.013 C 
ATOM     11  C   UNL     1      35.181 -16.381 -20.456  0.00  0.00    -0.002 C 
ATOM     12  C   UNL     1      34.286 -15.520 -22.954  0.00  0.00    +0.057 C 
ATOM     13  C   UNL     1      34.449 -15.199 -20.564  0.00  0.00    +0.001 C 
ATOM     14  C   UNL     1      34.001 -14.768 -21.813  0.00  0.00    +0.015 C 
BRANCH   9  15
ATOM     15  C   UNL     1      36.249 -18.397 -21.482  0.00  0.00    +0.195 C 
BRANCH  15  16
ATOM     16  S   UNL     1      35.125 -19.747 -21.639  0.00  0.00    +0.045 S 
ATOM     17  O   UNL     1      33.930 -19.444 -20.869  0.00  0.00    -0.157 OA
ATOM     18  O   UNL     1      35.020 -20.081 -23.050  0.00  0.00    -0.157 OA
BRANCH  16  19
ATOM     19  N   UNL     1      36.001 -20.994 -20.862  0.00  0.00    -0.185 NA
ATOM     20  H   UNL     1      36.916 -20.612 -20.622  0.00  0.00    +0.148 HD
BRANCH  19  21
ATOM     21  C   UNL     1      35.450 -21.596 -19.634  0.00  0.00    +0.068 C 
BRANCH  21  22
ATOM     22  C   UNL     1      36.592 -21.949 -18.692  0.00  0.00    -0.058 C 
BRANCH  22  23
ATOM     23  N   UNL     1      36.147 -21.867 -17.306  0.00  0.00    +0.385 N 
ATOM     24  C   UNL     1      35.220 -22.958 -16.997  0.00  0.00    -0.101 C 
ATOM     25  C   UNL     1      37.292 -21.900 -16.394  0.00  0.00    -0.101 C 
ATOM     26  H   UNL     1      35.658 -20.981 -17.181  0.00  0.00    -0.080 HD
ENDBRANCH  22  23
ENDBRANCH  21  22
ENDBRANCH  19  21
ENDBRANCH  16  19
ENDBRANCH  15  16
ENDBRANCH   9  15
ENDBRANCH   1  12
BRANCH   5  27
ATOM     27  O   UNL     1      34.631 -10.479 -23.989  0.00  0.00    -0.427 OA
BRANCH  27  35
ATOM     28  N   UNL     1      31.144  -6.438 -22.734  0.00  0.00    -0.316 N 
ATOM     29  C   UNL     1      33.069  -7.187 -23.578  0.00  0.00    +0.017 C 
ATOM     30  C   UNL     1      31.876  -7.580 -22.967  0.00  0.00    +0.048 C 
ATOM     31  C   UNL     1      31.830  -5.339 -23.175  0.00  0.00    +0.026 C 
ATOM     32  C   UNL     1      33.026  -5.770 -23.703  0.00  0.00    +0.012 C 
ATOM     33  C   UNL     1      34.010  -8.175 -23.928  0.00  0.00    +0.039 C 
ATOM     34  C   UNL     1      31.577  -8.918 -22.688  0.00  0.00    +0.018 C 
ATOM     35  C   UNL     1      33.725  -9.517 -23.654  0.00  0.00    +0.148 C 
ATOM     36  C   UNL     1      32.526  -9.881 -23.043  0.00  0.00    +0.039 C 
ATOM     37  C   UNL     1      31.269  -3.982 -23.044  0.00  0.00    +0.047 C 
ATOM     38  H   UNL     1      30.255  -6.415 -22.312  0.00  0.00    +0.152 HD
ENDBRANCH  27  35
ENDBRANCH   5  27
TORSDOF 9
ENDMDL
