MODEL 1
REMARK VINA RESULT:     -12.4      0.000      0.000
REMARK  Name = 11987860
REMARK  5 active torsions:
REMARK  status: ('A' for Active; 'I' for Inactive)
REMARK    1  A    between atoms: N_2  and  C_19
REMARK    2  A    between atoms: C_3  and  C_11
REMARK    3  A    between atoms: N_9  and  O_17
REMARK    4  A    between atoms: C_19  and  C_20
REMARK    5  A    between atoms: C_23  and  C_26
REMARK                            x       y       z     vdW  Elec       q    Type
REMARK                         _______ _______ _______ _____ _____    ______ ____
ROOT
ATOM      1  O   UNL     1      33.983 -23.213 -15.007  0.00  0.00    -0.272 OA
ATOM      2  N   UNL     1      34.627 -23.737 -17.182  0.00  0.00    -0.298 N 
ATOM      3  C   UNL     1      34.798 -23.660 -15.810  0.00  0.00    +0.253 C 
ATOM      4  H   UNL     1      35.356 -24.118 -17.724  0.00  0.00    +0.150 HD
ENDROOT
BRANCH   3  11
ATOM      5  O   UNL     1      35.700 -24.924 -13.225  0.00  0.00    -0.327 OA
ATOM      6  O   UNL     1      35.972 -25.641 -15.417  0.00  0.00    -0.320 OA
ATOM      7  O   UNL     1      40.593 -24.707 -13.950  0.00  0.00    -0.250 OA
ATOM      8  N   UNL     1      38.390 -25.434 -13.844  0.00  0.00    -0.255 N 
ATOM      9  N   UNL     1      40.148 -26.930 -14.283  0.00  0.00    -0.181 N 
ATOM     10  C   UNL     1      36.421 -23.896 -13.918  0.00  0.00    +0.174 C 
ATOM     11  C   UNL     1      36.113 -24.218 -15.370  0.00  0.00    +0.222 C 
ATOM     12  C   UNL     1      35.996 -26.058 -14.044  0.00  0.00    +0.256 C 
ATOM     13  C   UNL     1      37.900 -24.076 -13.564  0.00  0.00    +0.128 C 
ATOM     14  C   UNL     1      37.411 -26.531 -13.708  0.00  0.00    +0.156 C 
ATOM     15  C   UNL     1      39.773 -25.629 -14.020  0.00  0.00    +0.326 C 
ATOM     16  H   UNL     1      39.496 -27.665 -14.339  0.00  0.00    +0.184 HD
BRANCH   9  17
ATOM     17  O   UNL     1      41.525 -27.132 -14.465  0.00  0.00    -0.294 OA
ATOM     18  H   UNL     1      41.685 -27.491 -15.353  0.00  0.00    +0.241 HD
ENDBRANCH   9  17
ENDBRANCH   3  11
BRANCH   2  19
ATOM     19  C   UNL     1      33.431 -23.285 -17.856  0.00  0.00    +0.116 C 
BRANCH  19  20
ATOM     20  C   UNL     1      33.770 -22.249 -18.891  0.00  0.00    -0.003 C 
ATOM     21  C   UNL     1      32.747 -21.551 -19.522  0.00  0.00    -0.003 C 
ATOM     22  C   UNL     1      35.100 -22.002 -19.206  0.00  0.00    -0.003 C 
ATOM     23  C   UNL     1      34.393 -20.335 -20.805  0.00  0.00    -0.000 C 
ATOM     24  C   UNL     1      33.061 -20.590 -20.482  0.00  0.00    -0.000 C 
ATOM     25  C   UNL     1      35.413 -21.041 -20.166  0.00  0.00    -0.000 C 
BRANCH  23  26
ATOM     26  C   UNL     1      34.719 -19.336 -21.801  0.00  0.00    -0.000 C 
ATOM     27  C   UNL     1      34.388 -19.552 -23.138  0.00  0.00    -0.000 C 
ATOM     28  C   UNL     1      35.364 -18.159 -21.423  0.00  0.00    -0.000 C 
ATOM     29  C   UNL     1      34.701 -18.589 -24.098  0.00  0.00    +0.000 C 
ATOM     30  C   UNL     1      35.677 -17.196 -22.382  0.00  0.00    +0.000 C 
ATOM     31  C   UNL     1      35.347 -17.411 -23.720  0.00  0.00    +0.000 C 
ENDBRANCH  23  26
ENDBRANCH  19  20
ENDBRANCH   2  19
TORSDOF 5
ENDMDL
MODEL 2
REMARK VINA RESULT:     -11.7      1.759      2.222
REMARK  Name = 11987860
REMARK  5 active torsions:
REMARK  status: ('A' for Active; 'I' for Inactive)
REMARK    1  A    between atoms: N_2  and  C_19
REMARK    2  A    between atoms: C_3  and  C_11
REMARK    3  A    between atoms: N_9  and  O_17
REMARK    4  A    between atoms: C_19  and  C_20
REMARK    5  A    between atoms: C_23  and  C_26
REMARK                            x       y       z     vdW  Elec       q    Type
REMARK                         _______ _______ _______ _____ _____    ______ ____
ROOT
ATOM      1  O   UNL     1      32.571 -23.667 -15.641  0.00  0.00    -0.272 OA
ATOM      2  N   UNL     1      34.272 -23.435 -17.213  0.00  0.00    -0.298 N 
ATOM      3  C   UNL     1      33.758 -23.551 -15.933  0.00  0.00    +0.253 C 
ATOM      4  H   UNL     1      35.247 -23.348 -17.321  0.00  0.00    +0.150 HD
ENDROOT
BRANCH   3  11
ATOM      5  O   UNL     1      34.905 -25.735 -14.198  0.00  0.00    -0.327 OA
ATOM      6  O   UNL     1      35.977 -24.141 -15.503  0.00  0.00    -0.320 OA
ATOM      7  O   UNL     1      37.287 -22.906 -10.905  0.00  0.00    -0.250 OA
ATOM      8  N   UNL     1      36.783 -24.254 -12.728  0.00  0.00    -0.255 N 
ATOM      9  N   UNL     1      39.006 -23.724 -12.180  0.00  0.00    -0.181 N 
ATOM     10  C   UNL     1      34.494 -24.449 -13.714  0.00  0.00    +0.174 C 
ATOM     11  C   UNL     1      34.830 -23.547 -14.890  0.00  0.00    +0.222 C 
ATOM     12  C   UNL     1      36.142 -25.400 -14.834  0.00  0.00    +0.256 C 
ATOM     13  C   UNL     1      35.339 -24.152 -12.471  0.00  0.00    +0.128 C 
ATOM     14  C   UNL     1      37.206 -25.235 -13.748  0.00  0.00    +0.156 C 
ATOM     15  C   UNL     1      37.671 -23.580 -11.867  0.00  0.00    +0.326 C 
ATOM     16  H   UNL     1      39.313 -24.261 -12.946  0.00  0.00    +0.184 HD
BRANCH   9  17
ATOM     17  O   UNL     1      39.897 -23.051 -11.330  0.00  0.00    -0.294 OA
ATOM     18  H   UNL     1      40.483 -23.694 -10.900  0.00  0.00    +0.241 HD
ENDBRANCH   9  17
ENDBRANCH   3  11
BRANCH   2  19
ATOM     19  C   UNL     1      33.446 -23.436 -18.399  0.00  0.00    +0.116 C 
BRANCH  19  20
ATOM     20  C   UNL     1      33.800 -22.277 -19.289  0.00  0.00    -0.003 C 
ATOM     21  C   UNL     1      35.136 -21.969 -19.513  0.00  0.00    -0.003 C 
ATOM     22  C   UNL     1      32.788 -21.529 -19.876  0.00  0.00    -0.003 C 
ATOM     23  C   UNL     1      34.456 -20.137 -20.933  0.00  0.00    -0.000 C 
ATOM     24  C   UNL     1      35.465 -20.894 -20.339  0.00  0.00    -0.000 C 
ATOM     25  C   UNL     1      33.117 -20.455 -20.702  0.00  0.00    -0.000 C 
BRANCH  23  26
ATOM     26  C   UNL     1      34.797 -19.021 -21.790  0.00  0.00    -0.000 C 
ATOM     27  C   UNL     1      34.650 -19.135 -23.172  0.00  0.00    -0.000 C 
ATOM     28  C   UNL     1      35.269 -17.833 -21.234  0.00  0.00    -0.000 C 
ATOM     29  C   UNL     1      34.978 -18.060 -23.999  0.00  0.00    +0.000 C 
ATOM     30  C   UNL     1      35.596 -16.758 -22.059  0.00  0.00    +0.000 C 
ATOM     31  C   UNL     1      35.451 -16.871 -23.443  0.00  0.00    +0.000 C 
ENDBRANCH  23  26
ENDBRANCH  19  20
ENDBRANCH   2  19
TORSDOF 5
ENDMDL
MODEL 3
REMARK VINA RESULT:     -11.2      8.655     13.110
REMARK  Name = 11987860
REMARK  5 active torsions:
REMARK  status: ('A' for Active; 'I' for Inactive)
REMARK    1  A    between atoms: N_2  and  C_19
REMARK    2  A    between atoms: C_3  and  C_11
REMARK    3  A    between atoms: N_9  and  O_17
REMARK    4  A    between atoms: C_19  and  C_20
REMARK    5  A    between atoms: C_23  and  C_26
REMARK                            x       y       z     vdW  Elec       q    Type
REMARK                         _______ _______ _______ _____ _____    ______ ____
ROOT
ATOM      1  O   UNL     1      32.713 -15.230 -26.245  0.00  0.00    -0.272 OA
ATOM      2  N   UNL     1      34.295 -15.429 -24.550  0.00  0.00    -0.298 N 
ATOM      3  C   UNL     1      33.257 -14.812 -25.227  0.00  0.00    +0.253 C 
ATOM      4  H   UNL     1      34.650 -14.995 -23.740  0.00  0.00    +0.150 HD
ENDROOT
BRANCH   3  11
ATOM      5  O   UNL     1      34.643 -12.956 -23.295  0.00  0.00    -0.327 OA
ATOM      6  O   UNL     1      33.489 -12.488 -25.255  0.00  0.00    -0.320 OA
ATOM      7  O   UNL     1      30.700 -10.379 -21.769  0.00  0.00    -0.250 OA
ATOM      8  N   UNL     1      32.611 -11.059 -22.898  0.00  0.00    -0.255 N 
ATOM      9  N   UNL     1      31.751  -8.888 -23.155  0.00  0.00    -0.181 N 
ATOM     10  C   UNL     1      33.307 -13.450 -23.126  0.00  0.00    +0.174 C 
ATOM     11  C   UNL     1      32.821 -13.546 -24.562  0.00  0.00    +0.222 C 
ATOM     12  C   UNL     1      34.437 -11.970 -24.311  0.00  0.00    +0.256 C 
ATOM     13  C   UNL     1      32.548 -12.403 -22.304  0.00  0.00    +0.128 C 
ATOM     14  C   UNL     1      33.837 -10.728 -23.654  0.00  0.00    +0.156 C 
ATOM     15  C   UNL     1      31.621 -10.121 -22.551  0.00  0.00    +0.326 C 
ATOM     16  H   UNL     1      32.483  -8.682 -23.778  0.00  0.00    +0.184 HD
BRANCH   9  17
ATOM     17  O   UNL     1      30.764  -7.949 -22.818  0.00  0.00    -0.294 OA
ATOM     18  H   UNL     1      30.019  -8.401 -22.389  0.00  0.00    +0.241 HD
ENDBRANCH   9  17
ENDBRANCH   3  11
BRANCH   2  19
ATOM     19  C   UNL     1      34.883 -16.679 -24.974  0.00  0.00    +0.116 C 
BRANCH  19  20
ATOM     20  C   UNL     1      34.854 -17.683 -23.855  0.00  0.00    -0.003 C 
ATOM     21  C   UNL     1      35.430 -17.362 -22.632  0.00  0.00    -0.003 C 
ATOM     22  C   UNL     1      34.251 -18.917 -24.057  0.00  0.00    -0.003 C 
ATOM     23  C   UNL     1      34.800 -19.536 -21.787  0.00  0.00    -0.000 C 
ATOM     24  C   UNL     1      35.403 -18.294 -21.594  0.00  0.00    -0.000 C 
ATOM     25  C   UNL     1      34.224 -19.848 -23.019  0.00  0.00    -0.000 C 
BRANCH  23  26
ATOM     26  C   UNL     1      34.770 -20.502 -20.710  0.00  0.00    -0.000 C 
ATOM     27  C   UNL     1      35.963 -20.949 -20.142  0.00  0.00    -0.000 C 
ATOM     28  C   UNL     1      33.549 -20.984 -20.240  0.00  0.00    -0.000 C 
ATOM     29  C   UNL     1      35.935 -21.880 -19.103  0.00  0.00    +0.000 C 
ATOM     30  C   UNL     1      33.520 -21.915 -19.201  0.00  0.00    +0.000 C 
ATOM     31  C   UNL     1      34.713 -22.363 -18.632  0.00  0.00    +0.000 C 
ENDBRANCH  23  26
ENDBRANCH  19  20
ENDBRANCH   2  19
TORSDOF 5
ENDMDL
MODEL 4
REMARK VINA RESULT:     -11.1     10.648     14.556
REMARK  Name = 11987860
REMARK  5 active torsions:
REMARK  status: ('A' for Active; 'I' for Inactive)
REMARK    1  A    between atoms: N_2  and  C_19
REMARK    2  A    between atoms: C_3  and  C_11
REMARK    3  A    between atoms: N_9  and  O_17
REMARK    4  A    between atoms: C_19  and  C_20
REMARK    5  A    between atoms: C_23  and  C_26
REMARK                            x       y       z     vdW  Elec       q    Type
REMARK                         _______ _______ _______ _____ _____    ______ ____
ROOT
ATOM      1  O   UNL     1      31.533 -12.666 -20.759  0.00  0.00    -0.272 OA
ATOM      2  N   UNL     1      32.210 -11.216 -22.450  0.00  0.00    -0.298 N 
ATOM      3  C   UNL     1      32.014 -12.457 -21.870  0.00  0.00    +0.253 C 
ATOM      4  H   UNL     1      32.606 -11.177 -23.350  0.00  0.00    +0.150 HD
ENDROOT
BRANCH   3  11
ATOM      5  O   UNL     1      34.643 -13.108 -23.196  0.00  0.00    -0.327 OA
ATOM      6  O   UNL     1      33.216 -14.458 -21.958  0.00  0.00    -0.320 OA
ATOM      7  O   UNL     1      33.027 -16.450 -26.471  0.00  0.00    -0.250 OA
ATOM      8  N   UNL     1      33.926 -15.440 -24.584  0.00  0.00    -0.255 N 
ATOM      9  N   UNL     1      34.077 -17.762 -24.913  0.00  0.00    -0.181 N 
ATOM     10  C   UNL     1      33.376 -13.109 -23.867  0.00  0.00    +0.174 C 
ATOM     11  C   UNL     1      32.436 -13.575 -22.768  0.00  0.00    +0.222 C 
ATOM     12  C   UNL     1      34.556 -14.329 -22.456  0.00  0.00    +0.256 C 
ATOM     13  C   UNL     1      33.488 -14.107 -25.024  0.00  0.00    +0.128 C 
ATOM     14  C   UNL     1      34.829 -15.487 -23.415  0.00  0.00    +0.156 C 
ATOM     15  C   UNL     1      33.636 -16.549 -25.401  0.00  0.00    +0.326 C 
ATOM     16  H   UNL     1      34.561 -17.842 -24.061  0.00  0.00    +0.184 HD
BRANCH   9  17
ATOM     17  O   UNL     1      33.786 -18.873 -25.719  0.00  0.00    -0.294 OA
ATOM     18  H   UNL     1      33.494 -19.611 -25.160  0.00  0.00    +0.241 HD
ENDBRANCH   9  17
ENDBRANCH   3  11
BRANCH   2  19
ATOM     19  C   UNL     1      31.862  -9.975 -21.796  0.00  0.00    +0.116 C 
BRANCH  19  20
ATOM     20  C   UNL     1      32.253  -8.801 -22.650  0.00  0.00    -0.003 C 
ATOM     21  C   UNL     1      33.599  -8.520 -22.855  0.00  0.00    -0.003 C 
ATOM     22  C   UNL     1      31.266  -8.012 -23.225  0.00  0.00    -0.003 C 
ATOM     23  C   UNL     1      32.977  -6.634 -24.229  0.00  0.00    -0.000 C 
ATOM     24  C   UNL     1      33.961  -7.432 -23.647  0.00  0.00    -0.000 C 
ATOM     25  C   UNL     1      31.629  -6.924 -24.018  0.00  0.00    -0.000 C 
BRANCH  23  26
ATOM     26  C   UNL     1      33.354  -5.504 -25.052  0.00  0.00    -0.000 C 
ATOM     27  C   UNL     1      34.543  -5.537 -25.779  0.00  0.00    -0.000 C 
ATOM     28  C   UNL     1      32.525  -4.384 -25.119  0.00  0.00    -0.000 C 
ATOM     29  C   UNL     1      34.905  -4.449 -26.574  0.00  0.00    +0.000 C 
ATOM     30  C   UNL     1      32.887  -3.296 -25.913  0.00  0.00    +0.000 C 
ATOM     31  C   UNL     1      34.077  -3.328 -26.641  0.00  0.00    +0.000 C 
ENDBRANCH  23  26
ENDBRANCH  19  20
ENDBRANCH   2  19
TORSDOF 5
ENDMDL
MODEL 5
REMARK VINA RESULT:     -10.8      9.632     14.118
REMARK  Name = 11987860
REMARK  5 active torsions:
REMARK  status: ('A' for Active; 'I' for Inactive)
REMARK    1  A    between atoms: N_2  and  C_19
REMARK    2  A    between atoms: C_3  and  C_11
REMARK    3  A    between atoms: N_9  and  O_17
REMARK    4  A    between atoms: C_19  and  C_20
REMARK    5  A    between atoms: C_23  and  C_26
REMARK                            x       y       z     vdW  Elec       q    Type
REMARK                         _______ _______ _______ _____ _____    ______ ____
ROOT
ATOM      1  O   UNL     1      33.823 -13.153 -27.485  0.00  0.00    -0.272 OA
ATOM      2  N   UNL     1      33.263 -14.307 -25.543  0.00  0.00    -0.298 N 
ATOM      3  C   UNL     1      33.471 -13.173 -26.309  0.00  0.00    +0.253 C 
ATOM      4  H   UNL     1      32.980 -14.195 -24.606  0.00  0.00    +0.150 HD
ENDROOT
BRANCH   3  11
ATOM      5  O   UNL     1      34.734 -11.972 -23.847  0.00  0.00    -0.327 OA
ATOM      6  O   UNL     1      34.235 -11.004 -25.899  0.00  0.00    -0.320 OA
ATOM      7  O   UNL     1      31.247  -8.627 -22.768  0.00  0.00    -0.250 OA
ATOM      8  N   UNL     1      33.165  -9.661 -23.571  0.00  0.00    -0.255 N 
ATOM      9  N   UNL     1      32.922  -7.325 -23.635  0.00  0.00    -0.181 N 
ATOM     10  C   UNL     1      33.321 -12.111 -24.046  0.00  0.00    +0.174 C 
ATOM     11  C   UNL     1      33.192 -11.917 -25.547  0.00  0.00    +0.222 C 
ATOM     12  C   UNL     1      35.018 -10.862 -24.704  0.00  0.00    +0.256 C 
ATOM     13  C   UNL     1      32.648 -10.997 -23.238  0.00  0.00    +0.128 C 
ATOM     14  C   UNL     1      34.580  -9.585 -23.988  0.00  0.00    +0.156 C 
ATOM     15  C   UNL     1      32.365  -8.538 -23.286  0.00  0.00    +0.326 C 
ATOM     16  H   UNL     1      33.812  -7.253 -24.047  0.00  0.00    +0.184 HD
BRANCH   9  17
ATOM     17  O   UNL     1      32.128  -6.201 -23.358  0.00  0.00    -0.294 OA
ATOM     18  H   UNL     1      32.024  -5.671 -24.166  0.00  0.00    +0.241 HD
ENDBRANCH   9  17
ENDBRANCH   3  11
BRANCH   2  19
ATOM     19  C   UNL     1      33.442 -15.648 -26.052  0.00  0.00    +0.116 C 
BRANCH  19  20
ATOM     20  C   UNL     1      33.991 -16.550 -24.982  0.00  0.00    -0.003 C 
ATOM     21  C   UNL     1      34.613 -15.994 -23.870  0.00  0.00    -0.003 C 
ATOM     22  C   UNL     1      33.871 -17.926 -25.116  0.00  0.00    -0.003 C 
ATOM     23  C   UNL     1      35.007 -18.213 -23.003  0.00  0.00    -0.000 C 
ATOM     24  C   UNL     1      35.123 -16.830 -22.878  0.00  0.00    -0.000 C 
ATOM     25  C   UNL     1      34.380 -18.762 -24.123  0.00  0.00    -0.000 C 
BRANCH  23  26
ATOM     26  C   UNL     1      35.535 -19.082 -21.972  0.00  0.00    -0.000 C 
ATOM     27  C   UNL     1      34.722 -20.061 -21.402  0.00  0.00    -0.000 C 
ATOM     28  C   UNL     1      36.857 -18.940 -21.552  0.00  0.00    -0.000 C 
ATOM     29  C   UNL     1      35.231 -20.898 -20.409  0.00  0.00    +0.000 C 
ATOM     30  C   UNL     1      37.366 -19.777 -20.560  0.00  0.00    +0.000 C 
ATOM     31  C   UNL     1      36.553 -20.756 -19.987  0.00  0.00    +0.000 C 
ENDBRANCH  23  26
ENDBRANCH  19  20
ENDBRANCH   2  19
TORSDOF 5
ENDMDL
MODEL 6
REMARK VINA RESULT:     -10.2      3.038      4.890
REMARK  Name = 11987860
REMARK  5 active torsions:
REMARK  status: ('A' for Active; 'I' for Inactive)
REMARK    1  A    between atoms: N_2  and  C_19
REMARK    2  A    between atoms: C_3  and  C_11
REMARK    3  A    between atoms: N_9  and  O_17
REMARK    4  A    between atoms: C_19  and  C_20
REMARK    5  A    between atoms: C_23  and  C_26
REMARK                            x       y       z     vdW  Elec       q    Type
REMARK                         _______ _______ _______ _____ _____    ______ ____
ROOT
ATOM      1  O   UNL     1      37.430 -22.409 -16.263  0.00  0.00    -0.272 OA
ATOM      2  N   UNL     1      36.068 -21.948 -18.093  0.00  0.00    -0.298 N 
ATOM      3  C   UNL     1      36.323 -22.333 -16.788  0.00  0.00    +0.253 C 
ATOM      4  H   UNL     1      35.132 -21.926 -18.401  0.00  0.00    +0.150 HD
ENDROOT
BRANCH   3  11
ATOM      5  O   UNL     1      34.733 -24.874 -16.447  0.00  0.00    -0.327 OA
ATOM      6  O   UNL     1      35.480 -23.350 -14.861  0.00  0.00    -0.320 OA
ATOM      7  O   UNL     1      30.568 -22.914 -14.624  0.00  0.00    -0.250 OA
ATOM      8  N   UNL     1      32.647 -23.929 -14.823  0.00  0.00    -0.255 N 
ATOM      9  N   UNL     1      31.514 -23.865 -12.766  0.00  0.00    -0.181 N 
ATOM     10  C   UNL     1      34.164 -23.601 -16.784  0.00  0.00    +0.174 C 
ATOM     11  C   UNL     1      35.069 -22.640 -16.033  0.00  0.00    +0.222 C 
ATOM     12  C   UNL     1      34.998 -24.688 -15.053  0.00  0.00    +0.256 C 
ATOM     13  C   UNL     1      32.725 -23.606 -16.256  0.00  0.00    +0.128 C 
ATOM     14  C   UNL     1      33.681 -24.841 -14.294  0.00  0.00    +0.156 C 
ATOM     15  C   UNL     1      31.506 -23.527 -14.103  0.00  0.00    +0.326 C 
ATOM     16  H   UNL     1      32.260 -24.353 -12.351  0.00  0.00    +0.184 HD
BRANCH   9  17
ATOM     17  O   UNL     1      30.382 -23.463 -12.040  0.00  0.00    -0.294 OA
ATOM     18  H   UNL     1      30.351 -22.494 -11.998  0.00  0.00    +0.241 HD
ENDBRANCH   9  17
ENDBRANCH   3  11
BRANCH   2  19
ATOM     19  C   UNL     1      37.108 -21.577 -19.025  0.00  0.00    +0.116 C 
BRANCH  19  20
ATOM     20  C   UNL     1      36.555 -20.691 -20.107  0.00  0.00    -0.003 C 
ATOM     21  C   UNL     1      35.238 -20.854 -20.520  0.00  0.00    -0.003 C 
ATOM     22  C   UNL     1      37.367 -19.721 -20.681  0.00  0.00    -0.003 C 
ATOM     23  C   UNL     1      35.533 -19.056 -22.105  0.00  0.00    -0.000 C 
ATOM     24  C   UNL     1      34.726 -20.032 -21.523  0.00  0.00    -0.000 C 
ATOM     25  C   UNL     1      36.853 -18.900 -21.684  0.00  0.00    -0.000 C 
BRANCH  23  26
ATOM     26  C   UNL     1      35.000 -18.202 -23.147  0.00  0.00    -0.000 C 
ATOM     27  C   UNL     1      35.115 -16.817 -23.038  0.00  0.00    -0.000 C 
ATOM     28  C   UNL     1      34.375 -18.766 -24.258  0.00  0.00    -0.000 C 
ATOM     29  C   UNL     1      34.603 -15.994 -24.042  0.00  0.00    +0.000 C 
ATOM     30  C   UNL     1      33.863 -17.944 -25.262  0.00  0.00    +0.000 C 
ATOM     31  C   UNL     1      33.977 -16.558 -25.154  0.00  0.00    +0.000 C 
ENDBRANCH  23  26
ENDBRANCH  19  20
ENDBRANCH   2  19
TORSDOF 5
ENDMDL
MODEL 7
REMARK VINA RESULT:     -10.2     12.732     17.294
REMARK  Name = 11987860
REMARK  5 active torsions:
REMARK  status: ('A' for Active; 'I' for Inactive)
REMARK    1  A    between atoms: N_2  and  C_19
REMARK    2  A    between atoms: C_3  and  C_11
REMARK    3  A    between atoms: N_9  and  O_17
REMARK    4  A    between atoms: C_19  and  C_20
REMARK    5  A    between atoms: C_23  and  C_26
REMARK                            x       y       z     vdW  Elec       q    Type
REMARK                         _______ _______ _______ _____ _____    ______ ____
ROOT
ATOM      1  O   UNL     1      33.094  -7.751 -20.198  0.00  0.00    -0.272 OA
ATOM      2  N   UNL     1      31.799  -8.993 -21.681  0.00  0.00    -0.298 N 
ATOM      3  C   UNL     1      32.512  -7.879 -21.271  0.00  0.00    +0.253 C 
ATOM      4  H   UNL     1      31.374  -8.976 -22.569  0.00  0.00    +0.150 HD
ENDROOT
BRANCH   3  11
ATOM      5  O   UNL     1      30.308  -6.500 -22.801  0.00  0.00    -0.327 OA
ATOM      6  O   UNL     1      32.116  -5.608 -21.648  0.00  0.00    -0.320 OA
ATOM      7  O   UNL     1      33.055  -4.393 -26.341  0.00  0.00    -0.250 OA
ATOM      8  N   UNL     1      31.834  -4.771 -24.402  0.00  0.00    -0.255 N 
ATOM      9  N   UNL     1      32.537  -2.610 -24.999  0.00  0.00    -0.181 N 
ATOM     10  C   UNL     1      31.496  -7.036 -23.400  0.00  0.00    +0.174 C 
ATOM     11  C   UNL     1      32.531  -6.805 -22.311  0.00  0.00    +0.222 C 
ATOM     12  C   UNL     1      30.825  -5.309 -22.200  0.00  0.00    +0.256 C 
ATOM     13  C   UNL     1      31.763  -6.216 -24.665  0.00  0.00    +0.128 C 
ATOM     14  C   UNL     1      30.998  -4.259 -23.297  0.00  0.00    +0.156 C 
ATOM     15  C   UNL     1      32.514  -3.950 -25.322  0.00  0.00    +0.326 C 
ATOM     16  H   UNL     1      32.106  -2.256 -24.188  0.00  0.00    +0.184 HD
BRANCH   9  17
ATOM     17  O   UNL     1      33.218  -1.786 -25.908  0.00  0.00    -0.294 OA
ATOM     18  H   UNL     1      33.481  -0.963 -25.465  0.00  0.00    +0.241 HD
ENDBRANCH   9  17
ENDBRANCH   3  11
BRANCH   2  19
ATOM     19  C   UNL     1      31.649 -10.178 -20.867  0.00  0.00    +0.116 C 
BRANCH  19  20
ATOM     20  C   UNL     1      32.210 -11.379 -21.577  0.00  0.00    -0.003 C 
ATOM     21  C   UNL     1      32.152 -12.625 -20.965  0.00  0.00    -0.003 C 
ATOM     22  C   UNL     1      32.778 -11.229 -22.835  0.00  0.00    -0.003 C 
ATOM     23  C   UNL     1      33.244 -13.599 -22.886  0.00  0.00    -0.000 C 
ATOM     24  C   UNL     1      32.672 -13.739 -21.623  0.00  0.00    -0.000 C 
ATOM     25  C   UNL     1      33.298 -12.344 -23.492  0.00  0.00    -0.000 C 
BRANCH  23  26
ATOM     26  C   UNL     1      33.783 -14.755 -23.570  0.00  0.00    -0.000 C 
ATOM     27  C   UNL     1      34.722 -15.567 -22.933  0.00  0.00    -0.000 C 
ATOM     28  C   UNL     1      33.362 -15.059 -24.864  0.00  0.00    -0.000 C 
ATOM     29  C   UNL     1      35.241 -16.682 -23.591  0.00  0.00    +0.000 C 
ATOM     30  C   UNL     1      33.881 -16.173 -25.523  0.00  0.00    +0.000 C 
ATOM     31  C   UNL     1      34.821 -16.985 -24.887  0.00  0.00    +0.000 C 
ENDBRANCH  23  26
ENDBRANCH  19  20
ENDBRANCH   2  19
TORSDOF 5
ENDMDL
MODEL 8
REMARK VINA RESULT:     -10.0      3.988      6.372
REMARK  Name = 11987860
REMARK  5 active torsions:
REMARK  status: ('A' for Active; 'I' for Inactive)
REMARK    1  A    between atoms: N_2  and  C_19
REMARK    2  A    between atoms: C_3  and  C_11
REMARK    3  A    between atoms: N_9  and  O_17
REMARK    4  A    between atoms: C_19  and  C_20
REMARK    5  A    between atoms: C_23  and  C_26
REMARK                            x       y       z     vdW  Elec       q    Type
REMARK                         _______ _______ _______ _____ _____    ______ ____
ROOT
ATOM      1  O   UNL     1      34.377 -24.008 -16.421  0.00  0.00    -0.272 OA
ATOM      2  N   UNL     1      33.756 -22.636 -18.196  0.00  0.00    -0.298 N 
ATOM      3  C   UNL     1      33.524 -23.412 -17.074  0.00  0.00    +0.253 C 
ATOM      4  H   UNL     1      32.986 -22.206 -18.636  0.00  0.00    +0.150 HD
ENDROOT
BRANCH   3  11
ATOM      5  O   UNL     1      32.090 -24.449 -14.631  0.00  0.00    -0.327 OA
ATOM      6  O   UNL     1      31.904 -22.408 -15.724  0.00  0.00    -0.320 OA
ATOM      7  O   UNL     1      27.475 -24.475 -16.423  0.00  0.00    -0.250 OA
ATOM      8  N   UNL     1      29.437 -23.868 -15.340  0.00  0.00    -0.255 N 
ATOM      9  N   UNL     1      27.448 -22.654 -15.033  0.00  0.00    -0.181 N 
ATOM     10  C   UNL     1      31.695 -24.728 -15.981  0.00  0.00    +0.174 C 
ATOM     11  C   UNL     1      32.078 -23.443 -16.696  0.00  0.00    +0.222 C 
ATOM     12  C   UNL     1      31.639 -23.099 -14.494  0.00  0.00    +0.256 C 
ATOM     13  C   UNL     1      30.183 -24.974 -15.959  0.00  0.00    +0.128 C 
ATOM     14  C   UNL     1      30.127 -23.123 -14.268  0.00  0.00    +0.156 C 
ATOM     15  C   UNL     1      28.072 -23.718 -15.651  0.00  0.00    +0.326 C 
ATOM     16  H   UNL     1      27.923 -22.051 -14.418  0.00  0.00    +0.184 HD
BRANCH   9  17
ATOM     17  O   UNL     1      26.089 -22.495 -15.343  0.00  0.00    -0.294 OA
ATOM     18  H   UNL     1      25.682 -23.367 -15.474  0.00  0.00    +0.241 HD
ENDBRANCH   9  17
ENDBRANCH   3  11
BRANCH   2  19
ATOM     19  C   UNL     1      35.073 -22.426 -18.754  0.00  0.00    +0.116 C 
BRANCH  19  20
ATOM     20  C   UNL     1      35.025 -21.394 -19.845  0.00  0.00    -0.003 C 
ATOM     21  C   UNL     1      33.797 -21.006 -20.368  0.00  0.00    -0.003 C 
ATOM     22  C   UNL     1      36.207 -20.840 -20.319  0.00  0.00    -0.003 C 
ATOM     23  C   UNL     1      34.935 -19.487 -21.863  0.00  0.00    -0.000 C 
ATOM     24  C   UNL     1      33.753 -20.048 -21.381  0.00  0.00    -0.000 C 
ATOM     25  C   UNL     1      36.162 -19.883 -21.331  0.00  0.00    -0.000 C 
BRANCH  23  26
ATOM     26  C   UNL     1      34.889 -18.492 -22.913  0.00  0.00    -0.000 C 
ATOM     27  C   UNL     1      34.426 -18.839 -24.182  0.00  0.00    -0.000 C 
ATOM     28  C   UNL     1      35.306 -17.187 -22.656  0.00  0.00    -0.000 C 
ATOM     29  C   UNL     1      34.381 -17.881 -25.195  0.00  0.00    +0.000 C 
ATOM     30  C   UNL     1      35.261 -16.228 -23.667  0.00  0.00    +0.000 C 
ATOM     31  C   UNL     1      34.799 -16.574 -24.938  0.00  0.00    +0.000 C 
ENDBRANCH  23  26
ENDBRANCH  19  20
ENDBRANCH   2  19
TORSDOF 5
ENDMDL
MODEL 9
REMARK VINA RESULT:      -9.6      5.733     10.705
REMARK  Name = 11987860
REMARK  5 active torsions:
REMARK  status: ('A' for Active; 'I' for Inactive)
REMARK    1  A    between atoms: N_2  and  C_19
REMARK    2  A    between atoms: C_3  and  C_11
REMARK    3  A    between atoms: N_9  and  O_17
REMARK    4  A    between atoms: C_19  and  C_20
REMARK    5  A    between atoms: C_23  and  C_26
REMARK                            x       y       z     vdW  Elec       q    Type
REMARK                         _______ _______ _______ _____ _____    ______ ____
ROOT
ATOM      1  O   UNL     1      34.928 -20.141 -22.951  0.00  0.00    -0.272 OA
ATOM      2  N   UNL     1      35.466 -19.858 -20.704  0.00  0.00    -0.298 N 
ATOM      3  C   UNL     1      34.980 -19.453 -21.935  0.00  0.00    +0.253 C 
ATOM      4  H   UNL     1      35.455 -19.212 -19.960  0.00  0.00    +0.150 HD
ENDROOT
BRANCH   3  11
ATOM      5  O   UNL     1      36.344 -16.807 -22.425  0.00  0.00    -0.327 OA
ATOM      6  O   UNL     1      34.354 -17.648 -23.279  0.00  0.00    -0.320 OA
ATOM      7  O   UNL     1      32.879 -13.816 -20.537  0.00  0.00    -0.250 OA
ATOM      8  N   UNL     1      34.188 -15.061 -21.996  0.00  0.00    -0.255 N 
ATOM      9  N   UNL     1      32.611 -13.511 -22.792  0.00  0.00    -0.181 N 
ATOM     10  C   UNL     1      35.488 -17.083 -21.307  0.00  0.00    +0.174 C 
ATOM     11  C   UNL     1      34.478 -18.045 -21.911  0.00  0.00    +0.222 C 
ATOM     12  C   UNL     1      35.380 -16.662 -23.472  0.00  0.00    +0.256 C 
ATOM     13  C   UNL     1      34.866 -15.748 -20.886  0.00  0.00    +0.128 C 
ATOM     14  C   UNL     1      34.747 -15.276 -23.346  0.00  0.00    +0.156 C 
ATOM     15  C   UNL     1      33.200 -14.104 -21.695  0.00  0.00    +0.326 C 
ATOM     16  H   UNL     1      32.867 -13.739 -23.714  0.00  0.00    +0.184 HD
BRANCH   9  17
ATOM     17  O   UNL     1      31.622 -12.559 -22.500  0.00  0.00    -0.294 OA
ATOM     18  H   UNL     1      31.079 -12.874 -21.759  0.00  0.00    +0.241 HD
ENDBRANCH   9  17
ENDBRANCH   3  11
BRANCH   2  19
ATOM     19  C   UNL     1      35.988 -21.183 -20.457  0.00  0.00    +0.116 C 
BRANCH  19  20
ATOM     20  C   UNL     1      35.268 -21.828 -19.306  0.00  0.00    -0.003 C 
ATOM     21  C   UNL     1      35.971 -22.150 -18.151  0.00  0.00    -0.003 C 
ATOM     22  C   UNL     1      33.909 -22.094 -19.409  0.00  0.00    -0.003 C 
ATOM     23  C   UNL     1      33.939 -23.019 -17.178  0.00  0.00    -0.000 C 
ATOM     24  C   UNL     1      35.303 -22.748 -17.083  0.00  0.00    -0.000 C 
ATOM     25  C   UNL     1      33.242 -22.692 -18.341  0.00  0.00    -0.000 C 
BRANCH  23  26
ATOM     26  C   UNL     1      33.245 -23.639 -16.069  0.00  0.00    -0.000 C 
ATOM     27  C   UNL     1      31.852 -23.691 -16.060  0.00  0.00    -0.000 C 
ATOM     28  C   UNL     1      33.971 -24.186 -15.011  0.00  0.00    -0.000 C 
ATOM     29  C   UNL     1      31.183 -24.289 -14.992  0.00  0.00    +0.000 C 
ATOM     30  C   UNL     1      33.302 -24.784 -13.943  0.00  0.00    +0.000 C 
ATOM     31  C   UNL     1      31.908 -24.836 -13.933  0.00  0.00    +0.000 C 
ENDBRANCH  23  26
ENDBRANCH  19  20
ENDBRANCH   2  19
TORSDOF 5
ENDMDL
