MODEL 1
REMARK VINA RESULT:     -11.9      0.000      0.000
REMARK  Name = 10200651
REMARK  5 active torsions:
REMARK  status: ('A' for Active; 'I' for Inactive)
REMARK    1  A    between atoms: C_1  and  C_7
REMARK    2  A    between atoms: C_4  and  C_22
REMARK    3  A    between atoms: C_10  and  C_17
REMARK    4  A    between atoms: N_21  and  C_24
REMARK    5  A    between atoms: C_27  and  C_31
REMARK                            x       y       z     vdW  Elec       q    Type
REMARK                         _______ _______ _______ _____ _____    ______ ____
ROOT
ATOM      1  C   UNL     1      32.773  -9.898 -22.677  0.00  0.00    -0.000 C 
ATOM      2  C   UNL     1      33.746 -10.138 -23.647  0.00  0.00    +0.000 C 
ATOM      3  C   UNL     1      32.051 -10.960 -22.133  0.00  0.00    +0.000 C 
ATOM      4  C   UNL     1      33.270 -12.475 -23.519  0.00  0.00    +0.054 C 
ATOM      5  C   UNL     1      33.998 -11.442 -24.073  0.00  0.00    +0.005 C 
ATOM      6  C   UNL     1      32.303 -12.264 -22.559  0.00  0.00    +0.005 C 
ENDROOT
BRANCH   1   7
ATOM      7  C   UNL     1      32.511  -8.545 -22.235  0.00  0.00    -0.004 C 
ATOM      8  C   UNL     1      32.266  -8.259 -20.890  0.00  0.00    -0.022 C 
ATOM      9  C   UNL     1      32.506  -7.513 -23.176  0.00  0.00    +0.004 C 
ATOM     10  C   UNL     1      32.256  -6.201 -22.775  0.00  0.00    +0.055 C 
ATOM     11  C   UNL     1      32.016  -6.947 -20.489  0.00  0.00    -0.004 C 
ATOM     12  C   UNL     1      32.011  -5.918 -21.430  0.00  0.00    +0.004 C 
ATOM     13  C   UNL     1      32.262  -9.335 -19.853  0.00  0.00    +0.031 C 
BRANCH  10  17
ATOM     14  O   UNL     1      33.043  -5.329 -24.834  0.00  0.00    -0.420 OA
ATOM     15  N   UNL     1      31.602  -4.002 -23.755  0.00  0.00    -0.107 NA
ATOM     16  N   UNL     1      31.971  -3.368 -24.926  0.00  0.00    -0.111 NA
ATOM     17  C   UNL     1      32.251  -5.137 -23.748  0.00  0.00    +0.250 A 
ATOM     18  C   UNL     1      32.813  -4.178 -25.523  0.00  0.00    +0.227 A 
ATOM     19  C   UNL     1      33.522  -4.018 -26.798  0.00  0.00    +0.097 C 
ENDBRANCH  10  17
ENDBRANCH   1   7
BRANCH   4  22
ATOM     20  O   UNL     1      33.167 -14.178 -25.101  0.00  0.00    -0.270 OA
ATOM     21  N   UNL     1      34.219 -14.677 -23.058  0.00  0.00    -0.280 N 
ATOM     22  C   UNL     1      33.538 -13.864 -23.975  0.00  0.00    +0.249 C 
ATOM     23  H   UNL     1      34.442 -14.259 -22.194  0.00  0.00    +0.155 HD
BRANCH  21  24
ATOM     24  C   UNL     1      34.624 -16.002 -23.219  0.00  0.00    +0.051 C 
ATOM     25  C   UNL     1      35.310 -16.652 -22.194  0.00  0.00    +0.025 C 
ATOM     26  C   UNL     1      34.342 -16.678 -24.407  0.00  0.00    +0.015 C 
ATOM     27  C   UNL     1      35.715 -17.978 -22.355  0.00  0.00    +0.070 C 
ATOM     28  C   UNL     1      34.746 -18.002 -24.569  0.00  0.00    +0.002 C 
ATOM     29  C   UNL     1      35.433 -18.652 -23.543  0.00  0.00    +0.010 C 
BRANCH  27  31
ATOM     30  N   UNL     1      36.989 -19.186 -20.451  0.00  0.00    -0.191 NA
ATOM     31  C   UNL     1      36.418 -18.644 -21.305  0.00  0.00    +0.100 C 
ENDBRANCH  27  31
ENDBRANCH  21  24
ENDBRANCH   4  22
TORSDOF 5
ENDMDL
MODEL 2
REMARK VINA RESULT:     -11.9      2.104     11.049
REMARK  Name = 10200651
REMARK  5 active torsions:
REMARK  status: ('A' for Active; 'I' for Inactive)
REMARK    1  A    between atoms: C_1  and  C_7
REMARK    2  A    between atoms: C_4  and  C_22
REMARK    3  A    between atoms: C_10  and  C_17
REMARK    4  A    between atoms: N_21  and  C_24
REMARK    5  A    between atoms: C_27  and  C_31
REMARK                            x       y       z     vdW  Elec       q    Type
REMARK                         _______ _______ _______ _____ _____    ______ ____
ROOT
ATOM      1  C   UNL     1      33.539 -13.646 -23.551  0.00  0.00    -0.000 C 
ATOM      2  C   UNL     1      34.075 -12.552 -24.231  0.00  0.00    +0.000 C 
ATOM      3  C   UNL     1      32.631 -13.446 -22.512  0.00  0.00    +0.000 C 
ATOM      4  C   UNL     1      32.803 -11.086 -22.838  0.00  0.00    +0.054 C 
ATOM      5  C   UNL     1      33.703 -11.257 -23.870  0.00  0.00    +0.005 C 
ATOM      6  C   UNL     1      32.259 -12.151 -22.152  0.00  0.00    +0.005 C 
ENDROOT
BRANCH   1   7
ATOM      7  C   UNL     1      33.925 -14.989 -23.926  0.00  0.00    -0.004 C 
ATOM      8  C   UNL     1      33.706 -15.470 -25.218  0.00  0.00    -0.022 C 
ATOM      9  C   UNL     1      34.527 -15.812 -22.972  0.00  0.00    +0.004 C 
ATOM     10  C   UNL     1      34.908 -17.112 -23.308  0.00  0.00    +0.055 C 
ATOM     11  C   UNL     1      34.086 -16.770 -25.554  0.00  0.00    -0.004 C 
ATOM     12  C   UNL     1      34.688 -17.590 -24.600  0.00  0.00    +0.004 C 
ATOM     13  C   UNL     1      33.064 -14.621 -26.267  0.00  0.00    +0.031 C 
BRANCH  10  17
ATOM     14  O   UNL     1      34.815 -19.056 -21.954  0.00  0.00    -0.420 OA
ATOM     15  N   UNL     1      36.680 -17.844 -21.713  0.00  0.00    -0.107 NA
ATOM     16  N   UNL     1      36.767 -18.935 -20.868  0.00  0.00    -0.111 NA
ATOM     17  C   UNL     1      35.529 -17.960 -22.321  0.00  0.00    +0.250 A 
ATOM     18  C   UNL     1      35.657 -19.613 -21.042  0.00  0.00    +0.227 A 
ATOM     19  C   UNL     1      35.211 -20.858 -20.405  0.00  0.00    +0.097 C 
ENDBRANCH  10  17
ENDBRANCH   1   7
BRANCH   4  22
ATOM     20  O   UNL     1      32.202  -9.481 -21.266  0.00  0.00    -0.270 OA
ATOM     21  N   UNL     1      32.330  -8.787 -23.509  0.00  0.00    -0.280 N 
ATOM     22  C   UNL     1      32.407  -9.706 -22.454  0.00  0.00    +0.249 C 
ATOM     23  H   UNL     1      32.528  -9.142 -24.406  0.00  0.00    +0.155 HD
BRANCH  21  24
ATOM     24  C   UNL     1      32.011  -7.430 -23.445  0.00  0.00    +0.051 C 
ATOM     25  C   UNL     1      32.574  -6.537 -24.356  0.00  0.00    +0.025 C 
ATOM     26  C   UNL     1      31.129  -6.967 -22.469  0.00  0.00    +0.015 C 
ATOM     27  C   UNL     1      32.255  -5.180 -24.292  0.00  0.00    +0.070 C 
ATOM     28  C   UNL     1      30.810  -5.611 -22.403  0.00  0.00    +0.002 C 
ATOM     29  C   UNL     1      31.373  -4.718 -23.315  0.00  0.00    +0.010 C 
BRANCH  27  31
ATOM     30  N   UNL     1      33.299  -3.521 -25.984  0.00  0.00    -0.191 NA
ATOM     31  C   UNL     1      32.831  -4.265 -25.225  0.00  0.00    +0.100 C 
ENDBRANCH  27  31
ENDBRANCH  21  24
ENDBRANCH   4  22
TORSDOF 5
ENDMDL
MODEL 3
REMARK VINA RESULT:     -11.7      2.292     11.129
REMARK  Name = 10200651
REMARK  5 active torsions:
REMARK  status: ('A' for Active; 'I' for Inactive)
REMARK    1  A    between atoms: C_1  and  C_7
REMARK    2  A    between atoms: C_4  and  C_22
REMARK    3  A    between atoms: C_10  and  C_17
REMARK    4  A    between atoms: N_21  and  C_24
REMARK    5  A    between atoms: C_27  and  C_31
REMARK                            x       y       z     vdW  Elec       q    Type
REMARK                         _______ _______ _______ _____ _____    ______ ____
ROOT
ATOM      1  C   UNL     1      33.844 -14.406 -23.613  0.00  0.00    -0.000 C 
ATOM      2  C   UNL     1      33.142 -14.057 -22.459  0.00  0.00    +0.000 C 
ATOM      3  C   UNL     1      34.184 -13.427 -24.546  0.00  0.00    +0.000 C 
ATOM      4  C   UNL     1      33.129 -11.779 -23.178  0.00  0.00    +0.054 C 
ATOM      5  C   UNL     1      32.780 -12.728 -22.239  0.00  0.00    +0.005 C 
ATOM      6  C   UNL     1      33.822 -12.098 -24.326  0.00  0.00    +0.005 C 
ENDROOT
BRANCH   1   7
ATOM      7  C   UNL     1      34.219 -15.785 -23.842  0.00  0.00    -0.004 C 
ATOM      8  C   UNL     1      33.988 -16.402 -25.072  0.00  0.00    -0.022 C 
ATOM      9  C   UNL     1      34.822 -16.504 -22.807  0.00  0.00    +0.004 C 
ATOM     10  C   UNL     1      35.192 -17.834 -23.003  0.00  0.00    +0.055 C 
ATOM     11  C   UNL     1      34.357 -17.732 -25.268  0.00  0.00    -0.004 C 
ATOM     12  C   UNL     1      34.960 -18.448 -24.234  0.00  0.00    +0.004 C 
ATOM     13  C   UNL     1      33.345 -15.667 -26.204  0.00  0.00    +0.031 C 
BRANCH  10  17
ATOM     14  O   UNL     1      35.224 -19.756 -21.615  0.00  0.00    -0.420 OA
ATOM     15  N   UNL     1      36.865 -18.291 -21.210  0.00  0.00    -0.107 NA
ATOM     16  N   UNL     1      37.011 -19.349 -20.332  0.00  0.00    -0.111 NA
ATOM     17  C   UNL     1      35.814 -18.575 -21.933  0.00  0.00    +0.250 A 
ATOM     18  C   UNL     1      36.031 -20.179 -20.604  0.00  0.00    +0.227 A 
ATOM     19  C   UNL     1      35.696 -21.466 -19.984  0.00  0.00    +0.097 C 
ENDBRANCH  10  17
ENDBRANCH   1   7
BRANCH   4  22
ATOM     20  O   UNL     1      31.898 -10.137 -22.083  0.00  0.00    -0.270 OA
ATOM     21  N   UNL     1      33.414  -9.418 -23.730  0.00  0.00    -0.280 N 
ATOM     22  C   UNL     1      32.742 -10.363 -22.943  0.00  0.00    +0.249 C 
ATOM     23  H   UNL     1      34.065  -9.779 -24.376  0.00  0.00    +0.155 HD
BRANCH  21  24
ATOM     24  C   UNL     1      33.277  -8.029 -23.711  0.00  0.00    +0.051 C 
ATOM     25  C   UNL     1      32.200  -7.444 -23.045  0.00  0.00    +0.025 C 
ATOM     26  C   UNL     1      34.217  -7.227 -24.356  0.00  0.00    +0.015 C 
ATOM     27  C   UNL     1      32.062  -6.056 -23.026  0.00  0.00    +0.070 C 
ATOM     28  C   UNL     1      34.081  -5.839 -24.338  0.00  0.00    +0.002 C 
ATOM     29  C   UNL     1      33.003  -5.254 -23.673  0.00  0.00    +0.010 C 
BRANCH  27  31
ATOM     30  N   UNL     1      30.063  -4.968 -21.791  0.00  0.00    -0.191 NA
ATOM     31  C   UNL     1      30.960  -5.456 -22.345  0.00  0.00    +0.100 C 
ENDBRANCH  27  31
ENDBRANCH  21  24
ENDBRANCH   4  22
TORSDOF 5
ENDMDL
MODEL 4
REMARK VINA RESULT:     -11.6      5.066     10.224
REMARK  Name = 10200651
REMARK  5 active torsions:
REMARK  status: ('A' for Active; 'I' for Inactive)
REMARK    1  A    between atoms: C_1  and  C_7
REMARK    2  A    between atoms: C_4  and  C_22
REMARK    3  A    between atoms: C_10  and  C_17
REMARK    4  A    between atoms: N_21  and  C_24
REMARK    5  A    between atoms: C_27  and  C_31
REMARK                            x       y       z     vdW  Elec       q    Type
REMARK                         _______ _______ _______ _____ _____    ______ ____
ROOT
ATOM      1  C   UNL     1      34.831 -19.477 -21.874  0.00  0.00    -0.000 C 
ATOM      2  C   UNL     1      33.688 -20.065 -21.333  0.00  0.00    +0.000 C 
ATOM      3  C   UNL     1      36.091 -19.813 -21.380  0.00  0.00    +0.000 C 
ATOM      4  C   UNL     1      35.063 -21.306 -19.826  0.00  0.00    +0.054 C 
ATOM      5  C   UNL     1      33.806 -20.991 -20.296  0.00  0.00    +0.005 C 
ATOM      6  C   UNL     1      36.208 -20.739 -20.344  0.00  0.00    +0.005 C 
ENDROOT
BRANCH   1   7
ATOM      7  C   UNL     1      34.709 -18.516 -22.950  0.00  0.00    -0.004 C 
ATOM      8  C   UNL     1      34.719 -18.922 -24.286  0.00  0.00    -0.022 C 
ATOM      9  C   UNL     1      34.579 -17.161 -22.637  0.00  0.00    +0.004 C 
ATOM     10  C   UNL     1      34.461 -16.216 -23.656  0.00  0.00    +0.055 C 
ATOM     11  C   UNL     1      34.601 -17.977 -25.305  0.00  0.00    -0.004 C 
ATOM     12  C   UNL     1      34.471 -16.624 -24.990  0.00  0.00    +0.004 C 
ATOM     13  C   UNL     1      34.857 -20.362 -24.661  0.00  0.00    +0.031 C 
BRANCH  10  17
ATOM     14  O   UNL     1      34.029 -13.997 -24.373  0.00  0.00    -0.420 OA
ATOM     15  N   UNL     1      34.449 -14.201 -22.185  0.00  0.00    -0.107 NA
ATOM     16  N   UNL     1      34.220 -12.865 -22.453  0.00  0.00    -0.111 NA
ATOM     17  C   UNL     1      34.327 -14.817 -23.332  0.00  0.00    +0.250 A 
ATOM     18  C   UNL     1      33.980 -12.793 -23.741  0.00  0.00    +0.227 A 
ATOM     19  C   UNL     1      33.673 -11.623 -24.572  0.00  0.00    +0.097 C 
ENDBRANCH  10  17
ENDBRANCH   1   7
BRANCH   4  22
ATOM     20  O   UNL     1      34.570 -23.346 -18.823  0.00  0.00    -0.270 OA
ATOM     21  N   UNL     1      36.033 -21.913 -17.668  0.00  0.00    -0.280 N 
ATOM     22  C   UNL     1      35.188 -22.292 -18.720  0.00  0.00    +0.249 C 
ATOM     23  H   UNL     1      36.450 -21.024 -17.749  0.00  0.00    +0.155 HD
BRANCH  21  24
ATOM     24  C   UNL     1      36.357 -22.639 -16.522  0.00  0.00    +0.051 C 
ATOM     25  C   UNL     1      35.353 -23.030 -15.637  0.00  0.00    +0.025 C 
ATOM     26  C   UNL     1      37.686 -22.973 -16.261  0.00  0.00    +0.015 C 
ATOM     27  C   UNL     1      35.677 -23.757 -14.490  0.00  0.00    +0.070 C 
ATOM     28  C   UNL     1      38.011 -23.699 -15.115  0.00  0.00    +0.002 C 
ATOM     29  C   UNL     1      37.007 -24.090 -14.230  0.00  0.00    +0.010 C 
BRANCH  27  31
ATOM     30  N   UNL     1      33.813 -24.484 -12.845  0.00  0.00    -0.191 NA
ATOM     31  C   UNL     1      34.649 -24.158 -13.583  0.00  0.00    +0.100 C 
ENDBRANCH  27  31
ENDBRANCH  21  24
ENDBRANCH   4  22
TORSDOF 5
ENDMDL
MODEL 5
REMARK VINA RESULT:     -11.6      1.943     11.038
REMARK  Name = 10200651
REMARK  5 active torsions:
REMARK  status: ('A' for Active; 'I' for Inactive)
REMARK    1  A    between atoms: C_1  and  C_7
REMARK    2  A    between atoms: C_4  and  C_22
REMARK    3  A    between atoms: C_10  and  C_17
REMARK    4  A    between atoms: N_21  and  C_24
REMARK    5  A    between atoms: C_27  and  C_31
REMARK                            x       y       z     vdW  Elec       q    Type
REMARK                         _______ _______ _______ _____ _____    ______ ____
ROOT
ATOM      1  C   UNL     1      33.715 -12.084 -23.998  0.00  0.00    -0.000 C 
ATOM      2  C   UNL     1      32.709 -11.615 -23.153  0.00  0.00    +0.000 C 
ATOM      3  C   UNL     1      34.620 -11.190 -24.569  0.00  0.00    +0.000 C 
ATOM      4  C   UNL     1      33.515  -9.388 -23.459  0.00  0.00    +0.054 C 
ATOM      5  C   UNL     1      32.607 -10.251 -22.880  0.00  0.00    +0.005 C 
ATOM      6  C   UNL     1      34.518  -9.826 -24.296  0.00  0.00    +0.005 C 
ENDROOT
BRANCH   1   7
ATOM      7  C   UNL     1      33.820 -13.500 -24.281  0.00  0.00    -0.004 C 
ATOM      8  C   UNL     1      33.466 -14.015 -25.529  0.00  0.00    -0.022 C 
ATOM      9  C   UNL     1      34.285 -14.358 -23.282  0.00  0.00    +0.004 C 
ATOM     10  C   UNL     1      34.393 -15.727 -23.530  0.00  0.00    +0.055 C 
ATOM     11  C   UNL     1      33.574 -15.383 -25.777  0.00  0.00    -0.004 C 
ATOM     12  C   UNL     1      34.039 -16.239 -24.779  0.00  0.00    +0.004 C 
ATOM     13  C   UNL     1      32.964 -13.129 -26.623  0.00  0.00    +0.031 C 
BRANCH  10  17
ATOM     14  O   UNL     1      34.908 -17.930 -22.822  0.00  0.00    -0.420 OA
ATOM     15  N   UNL     1      35.282 -16.350 -21.284  0.00  0.00    -0.107 NA
ATOM     16  N   UNL     1      35.623 -17.571 -20.733  0.00  0.00    -0.111 NA
ATOM     17  C   UNL     1      34.873 -16.612 -22.497  0.00  0.00    +0.250 A 
ATOM     18  C   UNL     1      35.388 -18.464 -21.666  0.00  0.00    +0.227 A 
ATOM     19  C   UNL     1      35.568 -19.920 -21.634  0.00  0.00    +0.097 C 
ENDBRANCH  10  17
ENDBRANCH   1   7
BRANCH   4  22
ATOM     20  O   UNL     1      34.254  -7.433 -22.438  0.00  0.00    -0.270 OA
ATOM     21  N   UNL     1      32.337  -7.276 -23.790  0.00  0.00    -0.280 N 
ATOM     22  C   UNL     1      33.406  -7.934 -23.168  0.00  0.00    +0.249 C 
ATOM     23  H   UNL     1      31.748  -7.837 -24.345  0.00  0.00    +0.155 HD
BRANCH  21  24
ATOM     24  C   UNL     1      32.004  -5.922 -23.721  0.00  0.00    +0.051 C 
ATOM     25  C   UNL     1      32.442  -5.045 -24.712  0.00  0.00    +0.025 C 
ATOM     26  C   UNL     1      31.233  -5.447 -22.661  0.00  0.00    +0.015 C 
ATOM     27  C   UNL     1      32.110  -3.691 -24.643  0.00  0.00    +0.070 C 
ATOM     28  C   UNL     1      30.900  -4.094 -22.590  0.00  0.00    +0.002 C 
ATOM     29  C   UNL     1      31.339  -3.217 -23.582  0.00  0.00    +0.010 C 
BRANCH  27  31
ATOM     30  N   UNL     1      32.924  -2.061 -26.484  0.00  0.00    -0.191 NA
ATOM     31  C   UNL     1      32.559  -2.792 -25.658  0.00  0.00    +0.100 C 
ENDBRANCH  27  31
ENDBRANCH  21  24
ENDBRANCH   4  22
TORSDOF 5
ENDMDL
MODEL 6
REMARK VINA RESULT:     -11.6      2.644     11.224
REMARK  Name = 10200651
REMARK  5 active torsions:
REMARK  status: ('A' for Active; 'I' for Inactive)
REMARK    1  A    between atoms: C_1  and  C_7
REMARK    2  A    between atoms: C_4  and  C_22
REMARK    3  A    between atoms: C_10  and  C_17
REMARK    4  A    between atoms: N_21  and  C_24
REMARK    5  A    between atoms: C_27  and  C_31
REMARK                            x       y       z     vdW  Elec       q    Type
REMARK                         _______ _______ _______ _____ _____    ______ ____
ROOT
ATOM      1  C   UNL     1      34.235 -15.461 -23.780  0.00  0.00    -0.000 C 
ATOM      2  C   UNL     1      34.542 -14.681 -22.665  0.00  0.00    +0.000 C 
ATOM      3  C   UNL     1      33.703 -14.866 -24.923  0.00  0.00    +0.000 C 
ATOM      4  C   UNL     1      33.791 -12.741 -23.837  0.00  0.00    +0.054 C 
ATOM      5  C   UNL     1      34.318 -13.305 -22.694  0.00  0.00    +0.005 C 
ATOM      6  C   UNL     1      33.479 -13.490 -24.952  0.00  0.00    +0.005 C 
ENDROOT
BRANCH   1   7
ATOM      7  C   UNL     1      34.468 -16.889 -23.750  0.00  0.00    -0.004 C 
ATOM      8  C   UNL     1      34.068 -17.709 -24.807  0.00  0.00    -0.022 C 
ATOM      9  C   UNL     1      35.105 -17.449 -22.640  0.00  0.00    +0.004 C 
ATOM     10  C   UNL     1      35.339 -18.823 -22.587  0.00  0.00    +0.055 C 
ATOM     11  C   UNL     1      34.302 -19.083 -24.753  0.00  0.00    -0.004 C 
ATOM     12  C   UNL     1      34.939 -19.640 -23.645  0.00  0.00    +0.004 C 
ATOM     13  C   UNL     1      33.384 -17.149 -26.011  0.00  0.00    +0.031 C 
BRANCH  10  17
ATOM     14  O   UNL     1      35.428 -20.528 -20.941  0.00  0.00    -0.420 OA
ATOM     15  N   UNL     1      37.062 -19.007 -20.792  0.00  0.00    -0.107 NA
ATOM     16  N   UNL     1      37.242 -19.928 -19.777  0.00  0.00    -0.111 NA
ATOM     17  C   UNL     1      35.997 -19.400 -21.440  0.00  0.00    +0.250 A 
ATOM     18  C   UNL     1      36.265 -20.796 -19.902  0.00  0.00    +0.227 A 
ATOM     19  C   UNL     1      35.961 -21.985 -19.098  0.00  0.00    +0.097 C 
ENDBRANCH  10  17
ENDBRANCH   1   7
BRANCH   4  22
ATOM     20  O   UNL     1      34.119 -10.621 -24.735  0.00  0.00    -0.270 OA
ATOM     21  N   UNL     1      32.667 -10.790 -22.894  0.00  0.00    -0.280 N 
ATOM     22  C   UNL     1      33.551 -11.275 -23.867  0.00  0.00    +0.249 C 
ATOM     23  H   UNL     1      32.301 -11.460 -22.272  0.00  0.00    +0.155 HD
BRANCH  21  24
ATOM     24  C   UNL     1      32.239  -9.476 -22.700  0.00  0.00    +0.051 C 
ATOM     25  C   UNL     1      32.595  -8.791 -21.539  0.00  0.00    +0.025 C 
ATOM     26  C   UNL     1      31.455  -8.848 -23.667  0.00  0.00    +0.015 C 
ATOM     27  C   UNL     1      32.167  -7.477 -21.345  0.00  0.00    +0.070 C 
ATOM     28  C   UNL     1      31.026  -7.535 -23.474  0.00  0.00    +0.002 C 
ATOM     29  C   UNL     1      31.382  -6.850 -22.312  0.00  0.00    +0.010 C 
BRANCH  27  31
ATOM     30  N   UNL     1      32.828  -6.203 -19.188  0.00  0.00    -0.191 NA
ATOM     31  C   UNL     1      32.531  -6.775 -20.155  0.00  0.00    +0.100 C 
ENDBRANCH  27  31
ENDBRANCH  21  24
ENDBRANCH   4  22
TORSDOF 5
ENDMDL
MODEL 7
REMARK VINA RESULT:     -11.5      7.427     15.527
REMARK  Name = 10200651
REMARK  5 active torsions:
REMARK  status: ('A' for Active; 'I' for Inactive)
REMARK    1  A    between atoms: C_1  and  C_7
REMARK    2  A    between atoms: C_4  and  C_22
REMARK    3  A    between atoms: C_10  and  C_17
REMARK    4  A    between atoms: N_21  and  C_24
REMARK    5  A    between atoms: C_27  and  C_31
REMARK                            x       y       z     vdW  Elec       q    Type
REMARK                         _______ _______ _______ _____ _____    ______ ____
ROOT
ATOM      1  C   UNL     1      34.297 -22.976 -17.288  0.00  0.00    -0.000 C 
ATOM      2  C   UNL     1      35.355 -22.412 -18.002  0.00  0.00    +0.000 C 
ATOM      3  C   UNL     1      32.984 -22.781 -17.714  0.00  0.00    +0.000 C 
ATOM      4  C   UNL     1      33.790 -21.474 -19.543  0.00  0.00    +0.054 C 
ATOM      5  C   UNL     1      35.098 -21.652 -19.143  0.00  0.00    +0.005 C 
ATOM      6  C   UNL     1      32.728 -22.021 -18.855  0.00  0.00    +0.005 C 
ENDROOT
BRANCH   1   7
ATOM      7  C   UNL     1      34.564 -23.765 -16.104  0.00  0.00    -0.004 C 
ATOM      8  C   UNL     1      33.639 -23.836 -15.060  0.00  0.00    -0.022 C 
ATOM      9  C   UNL     1      35.769 -24.464 -16.012  0.00  0.00    +0.004 C 
ATOM     10  C   UNL     1      36.050 -25.229 -14.880  0.00  0.00    +0.055 C 
ATOM     11  C   UNL     1      33.920 -24.602 -13.929  0.00  0.00    -0.004 C 
ATOM     12  C   UNL     1      35.124 -25.299 -13.839  0.00  0.00    +0.004 C 
ATOM     13  C   UNL     1      32.338 -23.103 -15.121  0.00  0.00    +0.031 C 
BRANCH  10  17
ATOM     14  O   UNL     1      38.407 -25.185 -14.627  0.00  0.00    -0.420 OA
ATOM     15  N   UNL     1      37.533 -27.234 -14.834  0.00  0.00    -0.107 NA
ATOM     16  N   UNL     1      38.903 -27.365 -14.696  0.00  0.00    -0.111 NA
ATOM     17  C   UNL     1      37.296 -25.950 -14.787  0.00  0.00    +0.250 A 
ATOM     18  C   UNL     1      39.370 -26.145 -14.580  0.00  0.00    +0.227 A 
ATOM     19  C   UNL     1      40.753 -25.685 -14.408  0.00  0.00    +0.097 C 
ENDBRANCH  10  17
ENDBRANCH   1   7
BRANCH   4  22
ATOM     20  O   UNL     1      32.360 -20.608 -21.160  0.00  0.00    -0.270 OA
ATOM     21  N   UNL     1      34.630 -20.018 -21.313  0.00  0.00    -0.280 N 
ATOM     22  C   UNL     1      33.517 -20.663 -20.758  0.00  0.00    +0.249 C 
ATOM     23  H   UNL     1      35.490 -20.174 -20.859  0.00  0.00    +0.155 HD
BRANCH  21  24
ATOM     24  C   UNL     1      34.670 -19.179 -22.428  0.00  0.00    +0.051 C 
ATOM     25  C   UNL     1      34.706 -17.796 -22.259  0.00  0.00    +0.025 C 
ATOM     26  C   UNL     1      34.675 -19.725 -23.711  0.00  0.00    +0.015 C 
ATOM     27  C   UNL     1      34.746 -16.957 -23.374  0.00  0.00    +0.070 C 
ATOM     28  C   UNL     1      34.715 -18.888 -24.826  0.00  0.00    +0.002 C 
ATOM     29  C   UNL     1      34.750 -17.504 -24.657  0.00  0.00    +0.010 C 
BRANCH  27  31
ATOM     30  N   UNL     1      34.812 -14.387 -23.061  0.00  0.00    -0.191 NA
ATOM     31  C   UNL     1      34.783 -15.540 -23.201  0.00  0.00    +0.100 C 
ENDBRANCH  27  31
ENDBRANCH  21  24
ENDBRANCH   4  22
TORSDOF 5
ENDMDL
MODEL 8
REMARK VINA RESULT:     -11.4      1.239      1.958
REMARK  Name = 10200651
REMARK  5 active torsions:
REMARK  status: ('A' for Active; 'I' for Inactive)
REMARK    1  A    between atoms: C_1  and  C_7
REMARK    2  A    between atoms: C_4  and  C_22
REMARK    3  A    between atoms: C_10  and  C_17
REMARK    4  A    between atoms: N_21  and  C_24
REMARK    5  A    between atoms: C_27  and  C_31
REMARK                            x       y       z     vdW  Elec       q    Type
REMARK                         _______ _______ _______ _____ _____    ______ ____
ROOT
ATOM      1  C   UNL     1      32.905  -9.600 -22.883  0.00  0.00    -0.000 C 
ATOM      2  C   UNL     1      32.104 -10.581 -22.298  0.00  0.00    +0.000 C 
ATOM      3  C   UNL     1      33.917  -9.962 -23.770  0.00  0.00    +0.000 C 
ATOM      4  C   UNL     1      33.324 -12.257 -23.484  0.00  0.00    +0.054 C 
ATOM      5  C   UNL     1      32.316 -11.926 -22.602  0.00  0.00    +0.005 C 
ATOM      6  C   UNL     1      34.129 -11.307 -24.075  0.00  0.00    +0.005 C 
ENDROOT
BRANCH   1   7
ATOM      7  C   UNL     1      32.685  -8.205 -22.567  0.00  0.00    -0.004 C 
ATOM      8  C   UNL     1      32.457  -7.789 -21.254  0.00  0.00    -0.022 C 
ATOM      9  C   UNL     1      32.702  -7.265 -23.599  0.00  0.00    +0.004 C 
ATOM     10  C   UNL     1      32.491  -5.914 -23.320  0.00  0.00    +0.055 C 
ATOM     11  C   UNL     1      32.246  -6.439 -20.975  0.00  0.00    -0.004 C 
ATOM     12  C   UNL     1      32.264  -5.501 -22.007  0.00  0.00    +0.004 C 
ATOM     13  C   UNL     1      32.430  -8.764 -20.121  0.00  0.00    +0.031 C 
BRANCH  10  17
ATOM     14  O   UNL     1      33.254  -5.280 -25.473  0.00  0.00    -0.420 OA
ATOM     15  N   UNL     1      31.920  -3.783 -24.482  0.00  0.00    -0.107 NA
ATOM     16  N   UNL     1      32.282  -3.279 -25.718  0.00  0.00    -0.111 NA
ATOM     17  C   UNL     1      32.509  -4.945 -24.388  0.00  0.00    +0.250 A 
ATOM     18  C   UNL     1      33.061  -4.186 -26.260  0.00  0.00    +0.227 A 
ATOM     19  C   UNL     1      33.734  -4.182 -27.564  0.00  0.00    +0.097 C 
ENDBRANCH  10  17
ENDBRANCH   1   7
BRANCH   4  22
ATOM     20  O   UNL     1      33.120 -14.110 -24.876  0.00  0.00    -0.270 OA
ATOM     21  N   UNL     1      34.265 -14.418 -22.846  0.00  0.00    -0.280 N 
ATOM     22  C   UNL     1      33.550 -13.691 -23.807  0.00  0.00    +0.249 C 
ATOM     23  H   UNL     1      34.535 -13.920 -22.040  0.00  0.00    +0.155 HD
BRANCH  21  24
ATOM     24  C   UNL     1      34.643 -15.761 -22.890  0.00  0.00    +0.051 C 
ATOM     25  C   UNL     1      34.314 -16.542 -23.997  0.00  0.00    +0.025 C 
ATOM     26  C   UNL     1      35.351 -16.321 -21.827  0.00  0.00    +0.015 C 
ATOM     27  C   UNL     1      34.692 -17.885 -24.041  0.00  0.00    +0.070 C 
ATOM     28  C   UNL     1      35.729 -17.663 -21.870  0.00  0.00    +0.002 C 
ATOM     29  C   UNL     1      35.399 -18.444 -22.977  0.00  0.00    +0.010 C 
BRANCH  27  31
ATOM     30  N   UNL     1      34.080 -19.337 -26.097  0.00  0.00    -0.191 NA
ATOM     31  C   UNL     1      34.354 -18.686 -25.175  0.00  0.00    +0.100 C 
ENDBRANCH  27  31
ENDBRANCH  21  24
ENDBRANCH   4  22
TORSDOF 5
ENDMDL
MODEL 9
REMARK VINA RESULT:     -11.3      5.305     10.475
REMARK  Name = 10200651
REMARK  5 active torsions:
REMARK  status: ('A' for Active; 'I' for Inactive)
REMARK    1  A    between atoms: C_1  and  C_7
REMARK    2  A    between atoms: C_4  and  C_22
REMARK    3  A    between atoms: C_10  and  C_17
REMARK    4  A    between atoms: N_21  and  C_24
REMARK    5  A    between atoms: C_27  and  C_31
REMARK                            x       y       z     vdW  Elec       q    Type
REMARK                         _______ _______ _______ _____ _____    ______ ____
ROOT
ATOM      1  C   UNL     1      34.643 -19.778 -21.632  0.00  0.00    -0.000 C 
ATOM      2  C   UNL     1      33.418 -20.239 -21.149  0.00  0.00    +0.000 C 
ATOM      3  C   UNL     1      35.833 -20.272 -21.099  0.00  0.00    +0.000 C 
ATOM      4  C   UNL     1      34.575 -21.666 -19.623  0.00  0.00    +0.054 C 
ATOM      5  C   UNL     1      33.383 -21.194 -20.133  0.00  0.00    +0.005 C 
ATOM      6  C   UNL     1      35.799 -21.226 -20.083  0.00  0.00    +0.005 C 
ENDROOT
BRANCH   1   7
ATOM      7  C   UNL     1      34.678 -18.788 -22.686  0.00  0.00    -0.004 C 
ATOM      8  C   UNL     1      34.840 -19.160 -24.022  0.00  0.00    -0.022 C 
ATOM      9  C   UNL     1      34.548 -17.438 -22.353  0.00  0.00    +0.004 C 
ATOM     10  C   UNL     1      34.580 -16.464 -23.351  0.00  0.00    +0.055 C 
ATOM     11  C   UNL     1      34.872 -18.186 -25.020  0.00  0.00    -0.004 C 
ATOM     12  C   UNL     1      34.741 -16.839 -24.685  0.00  0.00    +0.004 C 
ATOM     13  C   UNL     1      34.983 -20.593 -24.419  0.00  0.00    +0.031 C 
BRANCH  10  17
ATOM     14  O   UNL     1      34.112 -14.240 -24.026  0.00  0.00    -0.420 OA
ATOM     15  N   UNL     1      34.595 -14.469 -21.854  0.00  0.00    -0.107 NA
ATOM     16  N   UNL     1      34.348 -13.130 -22.098  0.00  0.00    -0.111 NA
ATOM     17  C   UNL     1      34.445 -15.070 -23.004  0.00  0.00    +0.250 A 
ATOM     18  C   UNL     1      34.072 -13.044 -23.378  0.00  0.00    +0.227 A 
ATOM     19  C   UNL     1      33.734 -11.866 -24.185  0.00  0.00    +0.097 C 
ENDBRANCH  10  17
ENDBRANCH   1   7
BRANCH   4  22
ATOM     20  O   UNL     1      33.900 -23.709 -18.742  0.00  0.00    -0.270 OA
ATOM     21  N   UNL     1      35.270 -22.362 -17.388  0.00  0.00    -0.280 N 
ATOM     22  C   UNL     1      34.538 -22.682 -18.540  0.00  0.00    +0.249 C 
ATOM     23  H   UNL     1      35.725 -21.488 -17.396  0.00  0.00    +0.155 HD
BRANCH  21  24
ATOM     24  C   UNL     1      35.436 -23.128 -16.234  0.00  0.00    +0.051 C 
ATOM     25  C   UNL     1      36.713 -23.513 -15.830  0.00  0.00    +0.025 C 
ATOM     26  C   UNL     1      34.323 -23.507 -15.484  0.00  0.00    +0.015 C 
ATOM     27  C   UNL     1      36.879 -24.279 -14.675  0.00  0.00    +0.070 C 
ATOM     28  C   UNL     1      34.487 -24.273 -14.330  0.00  0.00    +0.002 C 
ATOM     29  C   UNL     1      35.765 -24.659 -13.926  0.00  0.00    +0.010 C 
BRANCH  27  31
ATOM     30  N   UNL     1      39.252 -24.996 -13.924  0.00  0.00    -0.191 NA
ATOM     31  C   UNL     1      38.187 -24.675 -14.261  0.00  0.00    +0.100 C 
ENDBRANCH  27  31
ENDBRANCH  21  24
ENDBRANCH   4  22
TORSDOF 5
ENDMDL
