MODEL 1
REMARK VINA RESULT:     -12.3      0.000      0.000
REMARK  Name = 11581936
REMARK  5 active torsions:
REMARK  status: ('A' for Active; 'I' for Inactive)
REMARK    1  A    between atoms: C_1  and  C_9
REMARK    2  A    between atoms: C_4  and  O_19
REMARK    3  A    between atoms: C_10  and  C_14
REMARK    4  A    between atoms: O_19  and  C_20
REMARK    5  A    between atoms: C_20  and  C_22
REMARK                            x       y       z     vdW  Elec       q    Type
REMARK                         _______ _______ _______ _____ _____    ______ ____
ROOT
ATOM      1  C   UNL     1      34.009 -23.002 -17.230  0.00  0.00    +0.019 C 
ATOM      2  C   UNL     1      33.277 -22.771 -18.395  0.00  0.00    +0.005 C 
ATOM      3  C   UNL     1      35.357 -22.648 -17.171  0.00  0.00    +0.005 C 
ATOM      4  C   UNL     1      35.238 -21.835 -19.434  0.00  0.00    +0.139 C 
ATOM      5  C   UNL     1      33.894 -22.186 -19.500  0.00  0.00    +0.037 C 
ATOM      6  C   UNL     1      35.974 -22.061 -18.276  0.00  0.00    +0.037 C 
ENDROOT
BRANCH   1   9
ATOM      7  N   UNL     1      31.825 -24.241 -14.819  0.00  0.00    -0.208 N 
ATOM      8  N   UNL     1      32.040 -23.606 -15.984  0.00  0.00    -0.178 NA
ATOM      9  C   UNL     1      33.375 -23.605 -16.092  0.00  0.00    +0.100 C 
ATOM     10  C   UNL     1      34.002 -24.238 -14.997  0.00  0.00    +0.036 C 
ATOM     11  C   UNL     1      32.967 -24.641 -14.189  0.00  0.00    +0.086 C 
ATOM     12  C   UNL     1      30.474 -24.440 -14.352  0.00  0.00    +0.140 C 
BRANCH  10  14
ATOM     13  N   UNL     1      38.077 -24.917 -14.087  0.00  0.00    -0.242 NA
ATOM     14  C   UNL     1      35.380 -24.468 -14.688  0.00  0.00    +0.006 C 
ATOM     15  C   UNL     1      36.019 -25.618 -15.144  0.00  0.00    +0.021 C 
ATOM     16  C   UNL     1      36.094 -23.543 -13.932  0.00  0.00    +0.021 C 
ATOM     17  C   UNL     1      37.355 -25.793 -14.819  0.00  0.00    +0.099 C 
ATOM     18  C   UNL     1      37.426 -23.811 -13.661  0.00  0.00    +0.099 C 
ENDBRANCH  10  14
ENDBRANCH   1   9
BRANCH   4  19
ATOM     19  O   UNL     1      35.843 -21.259 -20.520  0.00  0.00    -0.468 OA
BRANCH  19  20
ATOM     20  C   UNL     1      36.584 -20.068 -20.284  0.00  0.00    +0.264 C 
BRANCH  20  22
ATOM     21  N   UNL     1      35.727 -17.824 -20.588  0.00  0.00    -0.406 NA
ATOM     22  C   UNL     1      36.082 -18.987 -21.182  0.00  0.00    +0.152 C 
ATOM     23  C   UNL     1      35.152 -16.966 -22.766  0.00  0.00    +0.026 C 
ATOM     24  C   UNL     1      35.269 -16.825 -21.368  0.00  0.00    +0.113 C 
ATOM     25  C   UNL     1      36.002 -19.218 -22.541  0.00  0.00    +0.031 C 
ATOM     26  C   UNL     1      35.529 -18.187 -23.340  0.00  0.00    +0.005 C 
ATOM     27  C   UNL     1      34.669 -15.903 -23.547  0.00  0.00    +0.002 C 
ATOM     28  C   UNL     1      34.895 -15.612 -20.797  0.00  0.00    +0.085 C 
ATOM     29  C   UNL     1      34.301 -14.700 -22.951  0.00  0.00    -0.004 C 
ATOM     30  C   UNL     1      34.414 -14.555 -21.574  0.00  0.00    -0.019 C 
ENDBRANCH  20  22
ENDBRANCH  19  20
ENDBRANCH   4  19
TORSDOF 5
ENDMDL
MODEL 2
REMARK VINA RESULT:     -12.1      1.091      1.778
REMARK  Name = 11581936
REMARK  5 active torsions:
REMARK  status: ('A' for Active; 'I' for Inactive)
REMARK    1  A    between atoms: C_1  and  C_9
REMARK    2  A    between atoms: C_4  and  O_19
REMARK    3  A    between atoms: C_10  and  C_14
REMARK    4  A    between atoms: O_19  and  C_20
REMARK    5  A    between atoms: C_20  and  C_22
REMARK                            x       y       z     vdW  Elec       q    Type
REMARK                         _______ _______ _______ _____ _____    ______ ____
ROOT
ATOM      1  C   UNL     1      33.671 -22.403 -18.252  0.00  0.00    +0.019 C 
ATOM      2  C   UNL     1      35.060 -22.524 -18.286  0.00  0.00    +0.005 C 
ATOM      3  C   UNL     1      33.011 -21.655 -19.226  0.00  0.00    +0.005 C 
ATOM      4  C   UNL     1      35.124 -21.151 -20.264  0.00  0.00    +0.139 C 
ATOM      5  C   UNL     1      35.788 -21.895 -19.296  0.00  0.00    +0.037 C 
ATOM      6  C   UNL     1      33.739 -21.027 -20.236  0.00  0.00    +0.037 C 
ENDROOT
BRANCH   1   9
ATOM      7  N   UNL     1      31.246 -23.775 -16.163  0.00  0.00    -0.208 N 
ATOM      8  N   UNL     1      31.584 -23.115 -17.284  0.00  0.00    -0.178 NA
ATOM      9  C   UNL     1      32.920 -23.050 -17.212  0.00  0.00    +0.100 C 
ATOM     10  C   UNL     1      33.424 -23.667 -16.048  0.00  0.00    +0.036 C 
ATOM     11  C   UNL     1      32.311 -24.128 -15.389  0.00  0.00    +0.086 C 
ATOM     12  C   UNL     1      29.856 -24.043 -15.882  0.00  0.00    +0.140 C 
BRANCH  10  14
ATOM     13  N   UNL     1      37.368 -24.166 -14.600  0.00  0.00    -0.242 NA
ATOM     14  C   UNL     1      34.759 -23.836 -15.559  0.00  0.00    +0.006 C 
ATOM     15  C   UNL     1      35.523 -22.727 -15.208  0.00  0.00    +0.021 C 
ATOM     16  C   UNL     1      35.303 -25.111 -15.429  0.00  0.00    +0.021 C 
ATOM     17  C   UNL     1      36.809 -22.944 -14.739  0.00  0.00    +0.099 C 
ATOM     18  C   UNL     1      36.598 -25.222 -14.950  0.00  0.00    +0.099 C 
ENDBRANCH  10  14
ENDBRANCH   1   9
BRANCH   4  19
ATOM     19  O   UNL     1      35.840 -20.534 -21.256  0.00  0.00    -0.468 OA
BRANCH  19  20
ATOM     20  C   UNL     1      36.256 -19.197 -21.009  0.00  0.00    +0.264 C 
BRANCH  20  22
ATOM     21  N   UNL     1      35.445 -17.009 -21.655  0.00  0.00    -0.406 NA
ATOM     22  C   UNL     1      35.644 -18.294 -22.028  0.00  0.00    +0.152 C 
ATOM     23  C   UNL     1      34.527 -16.586 -23.842  0.00  0.00    +0.026 C 
ATOM     24  C   UNL     1      34.894 -16.164 -22.548  0.00  0.00    +0.113 C 
ATOM     25  C   UNL     1      35.317 -18.797 -23.271  0.00  0.00    +0.031 C 
ATOM     26  C   UNL     1      34.750 -17.924 -24.189  0.00  0.00    +0.005 C 
ATOM     27  C   UNL     1      33.954 -15.677 -24.748  0.00  0.00    +0.002 C 
ATOM     28  C   UNL     1      34.673 -14.833 -22.204  0.00  0.00    +0.085 C 
ATOM     29  C   UNL     1      33.743 -14.351 -24.379  0.00  0.00    -0.004 C 
ATOM     30  C   UNL     1      34.103 -13.929 -23.105  0.00  0.00    -0.019 C 
ENDBRANCH  20  22
ENDBRANCH  19  20
ENDBRANCH   4  19
TORSDOF 5
ENDMDL
MODEL 3
REMARK VINA RESULT:     -12.1      1.078      2.215
REMARK  Name = 11581936
REMARK  5 active torsions:
REMARK  status: ('A' for Active; 'I' for Inactive)
REMARK    1  A    between atoms: C_1  and  C_9
REMARK    2  A    between atoms: C_4  and  O_19
REMARK    3  A    between atoms: C_10  and  C_14
REMARK    4  A    between atoms: O_19  and  C_20
REMARK    5  A    between atoms: C_20  and  C_22
REMARK                            x       y       z     vdW  Elec       q    Type
REMARK                         _______ _______ _______ _____ _____    ______ ____
ROOT
ATOM      1  C   UNL     1      33.786 -23.072 -17.023  0.00  0.00    +0.019 C 
ATOM      2  C   UNL     1      35.153 -22.833 -17.153  0.00  0.00    +0.005 C 
ATOM      3  C   UNL     1      32.919 -22.755 -18.068  0.00  0.00    +0.005 C 
ATOM      4  C   UNL     1      34.785 -21.963 -19.368  0.00  0.00    +0.139 C 
ATOM      5  C   UNL     1      35.654 -22.276 -18.330  0.00  0.00    +0.037 C 
ATOM      6  C   UNL     1      33.420 -22.199 -19.246  0.00  0.00    +0.037 C 
ENDROOT
BRANCH   1   9
ATOM      7  N   UNL     1      31.855 -24.256 -14.378  0.00  0.00    -0.208 N 
ATOM      8  N   UNL     1      31.951 -23.656 -15.577  0.00  0.00    -0.178 NA
ATOM      9  C   UNL     1      33.270 -23.645 -15.811  0.00  0.00    +0.100 C 
ATOM     10  C   UNL     1      34.005 -24.236 -14.762  0.00  0.00    +0.036 C 
ATOM     11  C   UNL     1      33.056 -24.623 -13.848  0.00  0.00    +0.086 C 
ATOM     12  C   UNL     1      30.557 -24.454 -13.779  0.00  0.00    +0.140 C 
BRANCH  10  14
ATOM     13  N   UNL     1      38.156 -24.844 -14.216  0.00  0.00    -0.242 NA
ATOM     14  C   UNL     1      35.410 -24.441 -14.578  0.00  0.00    +0.006 C 
ATOM     15  C   UNL     1      36.174 -23.498 -13.896  0.00  0.00    +0.021 C 
ATOM     16  C   UNL     1      36.023 -25.587 -15.078  0.00  0.00    +0.021 C 
ATOM     17  C   UNL     1      37.529 -23.744 -13.744  0.00  0.00    +0.099 C 
ATOM     18  C   UNL     1      37.385 -25.739 -14.873  0.00  0.00    +0.099 C 
ENDBRANCH  10  14
ENDBRANCH   1   9
BRANCH   4  19
ATOM     19  O   UNL     1      35.277 -21.417 -20.525  0.00  0.00    -0.468 OA
BRANCH  19  20
ATOM     20  C   UNL     1      36.093 -20.260 -20.390  0.00  0.00    +0.264 C 
BRANCH  20  22
ATOM     21  N   UNL     1      35.123 -19.739 -22.546  0.00  0.00    -0.406 NA
ATOM     22  C   UNL     1      35.699 -19.256 -21.422  0.00  0.00    +0.152 C 
ATOM     23  C   UNL     1      34.955 -17.474 -23.353  0.00  0.00    +0.026 C 
ATOM     24  C   UNL     1      34.754 -18.862 -23.500  0.00  0.00    +0.113 C 
ATOM     25  C   UNL     1      35.936 -17.916 -21.188  0.00  0.00    +0.031 C 
ATOM     26  C   UNL     1      35.556 -17.016 -22.173  0.00  0.00    +0.005 C 
ATOM     27  C   UNL     1      34.559 -16.589 -24.369  0.00  0.00    +0.002 C 
ATOM     28  C   UNL     1      34.157 -19.318 -24.672  0.00  0.00    +0.085 C 
ATOM     29  C   UNL     1      33.964 -17.070 -25.532  0.00  0.00    -0.004 C 
ATOM     30  C   UNL     1      33.763 -18.436 -25.684  0.00  0.00    -0.019 C 
ENDBRANCH  20  22
ENDBRANCH  19  20
ENDBRANCH   4  19
TORSDOF 5
ENDMDL
MODEL 4
REMARK VINA RESULT:     -11.7      1.720      3.858
REMARK  Name = 11581936
REMARK  5 active torsions:
REMARK  status: ('A' for Active; 'I' for Inactive)
REMARK    1  A    between atoms: C_1  and  C_9
REMARK    2  A    between atoms: C_4  and  O_19
REMARK    3  A    between atoms: C_10  and  C_14
REMARK    4  A    between atoms: O_19  and  C_20
REMARK    5  A    between atoms: C_20  and  C_22
REMARK                            x       y       z     vdW  Elec       q    Type
REMARK                         _______ _______ _______ _____ _____    ______ ____
ROOT
ATOM      1  C   UNL     1      34.524 -23.217 -16.474  0.00  0.00    +0.019 C 
ATOM      2  C   UNL     1      35.716 -22.655 -16.933  0.00  0.00    +0.005 C 
ATOM      3  C   UNL     1      33.386 -23.192 -17.279  0.00  0.00    +0.005 C 
ATOM      4  C   UNL     1      34.629 -22.048 -18.994  0.00  0.00    +0.139 C 
ATOM      5  C   UNL     1      35.768 -22.069 -18.197  0.00  0.00    +0.037 C 
ATOM      6  C   UNL     1      33.438 -22.607 -18.544  0.00  0.00    +0.037 C 
ENDROOT
BRANCH   1   9
ATOM      7  N   UNL     1      35.159 -24.628 -13.355  0.00  0.00    -0.208 N 
ATOM      8  N   UNL     1      35.599 -24.078 -14.499  0.00  0.00    -0.178 NA
ATOM      9  C   UNL     1      34.470 -23.821 -15.172  0.00  0.00    +0.100 C 
ATOM     10  C   UNL     1      33.319 -24.208 -14.455  0.00  0.00    +0.036 C 
ATOM     11  C   UNL     1      33.800 -24.728 -13.278  0.00  0.00    +0.086 C 
ATOM     12  C   UNL     1      36.106 -25.048 -12.351  0.00  0.00    +0.140 C 
BRANCH  10  14
ATOM     13  N   UNL     1      29.199 -23.977 -15.389  0.00  0.00    -0.242 NA
ATOM     14  C   UNL     1      31.925 -24.129 -14.772  0.00  0.00    +0.006 C 
ATOM     15  C   UNL     1      31.232 -25.267 -15.176  0.00  0.00    +0.021 C 
ATOM     16  C   UNL     1      31.250 -22.915 -14.676  0.00  0.00    +0.021 C 
ATOM     17  C   UNL     1      29.884 -25.139 -15.471  0.00  0.00    +0.099 C 
ATOM     18  C   UNL     1      29.902 -22.892 -14.993  0.00  0.00    +0.099 C 
ENDBRANCH  10  14
ENDBRANCH   1   9
BRANCH   4  19
ATOM     19  O   UNL     1      34.681 -21.473 -20.237  0.00  0.00    -0.468 OA
BRANCH  19  20
ATOM     20  C   UNL     1      35.903 -20.844 -20.601  0.00  0.00    +0.264 C 
BRANCH  20  22
ATOM     21  N   UNL     1      35.024 -19.929 -22.664  0.00  0.00    -0.406 NA
ATOM     22  C   UNL     1      35.612 -19.668 -21.473  0.00  0.00    +0.152 C 
ATOM     23  C   UNL     1      35.053 -17.563 -23.121  0.00  0.00    +0.026 C 
ATOM     24  C   UNL     1      34.747 -18.893 -23.478  0.00  0.00    +0.113 C 
ATOM     25  C   UNL     1      35.949 -18.402 -21.039  0.00  0.00    +0.031 C 
ATOM     26  C   UNL     1      35.662 -17.336 -21.880  0.00  0.00    +0.005 C 
ATOM     27  C   UNL     1      34.750 -16.507 -23.996  0.00  0.00    +0.002 C 
ATOM     28  C   UNL     1      34.141 -19.118 -24.711  0.00  0.00    +0.085 C 
ATOM     29  C   UNL     1      34.145 -16.759 -25.224  0.00  0.00    -0.004 C 
ATOM     30  C   UNL     1      33.840 -18.066 -25.582  0.00  0.00    -0.019 C 
ENDBRANCH  20  22
ENDBRANCH  19  20
ENDBRANCH   4  19
TORSDOF 5
ENDMDL
MODEL 5
REMARK VINA RESULT:     -11.6      1.396      3.434
REMARK  Name = 11581936
REMARK  5 active torsions:
REMARK  status: ('A' for Active; 'I' for Inactive)
REMARK    1  A    between atoms: C_1  and  C_9
REMARK    2  A    between atoms: C_4  and  O_19
REMARK    3  A    between atoms: C_10  and  C_14
REMARK    4  A    between atoms: O_19  and  C_20
REMARK    5  A    between atoms: C_20  and  C_22
REMARK                            x       y       z     vdW  Elec       q    Type
REMARK                         _______ _______ _______ _____ _____    ______ ____
ROOT
ATOM      1  C   UNL     1      34.558 -23.157 -16.578  0.00  0.00    +0.019 C 
ATOM      2  C   UNL     1      35.760 -22.613 -17.030  0.00  0.00    +0.005 C 
ATOM      3  C   UNL     1      33.421 -23.104 -17.384  0.00  0.00    +0.005 C 
ATOM      4  C   UNL     1      34.687 -21.967 -19.087  0.00  0.00    +0.139 C 
ATOM      5  C   UNL     1      35.824 -22.016 -18.289  0.00  0.00    +0.037 C 
ATOM      6  C   UNL     1      33.485 -22.508 -18.643  0.00  0.00    +0.037 C 
ENDROOT
BRANCH   1   9
ATOM      7  N   UNL     1      35.162 -24.603 -13.469  0.00  0.00    -0.208 N 
ATOM      8  N   UNL     1      35.614 -24.047 -14.605  0.00  0.00    -0.178 NA
ATOM      9  C   UNL     1      34.491 -23.772 -15.282  0.00  0.00    +0.100 C 
ATOM     10  C   UNL     1      33.332 -24.154 -14.574  0.00  0.00    +0.036 C 
ATOM     11  C   UNL     1      33.802 -24.690 -13.400  0.00  0.00    +0.086 C 
ATOM     12  C   UNL     1      36.100 -25.041 -12.464  0.00  0.00    +0.140 C 
BRANCH  10  14
ATOM     13  N   UNL     1      29.220 -23.875 -15.527  0.00  0.00    -0.242 NA
ATOM     14  C   UNL     1      31.941 -24.059 -14.897  0.00  0.00    +0.006 C 
ATOM     15  C   UNL     1      31.265 -25.159 -15.420  0.00  0.00    +0.021 C 
ATOM     16  C   UNL     1      31.251 -22.868 -14.690  0.00  0.00    +0.021 C 
ATOM     17  C   UNL     1      29.919 -25.016 -15.716  0.00  0.00    +0.099 C 
ATOM     18  C   UNL     1      29.906 -22.827 -15.018  0.00  0.00    +0.099 C 
ENDBRANCH  10  14
ENDBRANCH   1   9
BRANCH   4  19
ATOM     19  O   UNL     1      34.751 -21.381 -20.324  0.00  0.00    -0.468 OA
BRANCH  19  20
ATOM     20  C   UNL     1      35.959 -20.706 -20.651  0.00  0.00    +0.264 C 
BRANCH  20  22
ATOM     21  N   UNL     1      35.462 -18.337 -20.702  0.00  0.00    -0.406 NA
ATOM     22  C   UNL     1      35.639 -19.468 -21.423  0.00  0.00    +0.152 C 
ATOM     23  C   UNL     1      35.051 -17.166 -22.769  0.00  0.00    +0.026 C 
ATOM     24  C   UNL     1      35.173 -17.200 -21.364  0.00  0.00    +0.113 C 
ATOM     25  C   UNL     1      35.541 -19.533 -22.798  0.00  0.00    +0.031 C 
ATOM     26  C   UNL     1      35.242 -18.360 -23.476  0.00  0.00    +0.005 C 
ATOM     27  C   UNL     1      34.747 -15.962 -23.426  0.00  0.00    +0.002 C 
ATOM     28  C   UNL     1      34.983 -16.013 -20.661  0.00  0.00    +0.085 C 
ATOM     29  C   UNL     1      34.562 -14.789 -22.699  0.00  0.00    -0.004 C 
ATOM     30  C   UNL     1      34.680 -14.815 -21.315  0.00  0.00    -0.019 C 
ENDBRANCH  20  22
ENDBRANCH  19  20
ENDBRANCH   4  19
TORSDOF 5
ENDMDL
MODEL 6
REMARK VINA RESULT:     -11.2      3.648     11.288
REMARK  Name = 11581936
REMARK  5 active torsions:
REMARK  status: ('A' for Active; 'I' for Inactive)
REMARK    1  A    between atoms: C_1  and  C_9
REMARK    2  A    between atoms: C_4  and  O_19
REMARK    3  A    between atoms: C_10  and  C_14
REMARK    4  A    between atoms: O_19  and  C_20
REMARK    5  A    between atoms: C_20  and  C_22
REMARK                            x       y       z     vdW  Elec       q    Type
REMARK                         _______ _______ _______ _____ _____    ______ ____
ROOT
ATOM      1  C   UNL     1      33.820 -14.167 -22.186  0.00  0.00    +0.019 C 
ATOM      2  C   UNL     1      34.233 -14.783 -21.005  0.00  0.00    +0.005 C 
ATOM      3  C   UNL     1      34.137 -14.738 -23.418  0.00  0.00    +0.005 C 
ATOM      4  C   UNL     1      35.276 -16.533 -22.289  0.00  0.00    +0.139 C 
ATOM      5  C   UNL     1      34.964 -15.970 -21.057  0.00  0.00    +0.037 C 
ATOM      6  C   UNL     1      34.867 -15.925 -23.470  0.00  0.00    +0.037 C 
ENDROOT
BRANCH   1   9
ATOM      7  N   UNL     1      31.748 -11.486 -21.386  0.00  0.00    -0.208 N 
ATOM      8  N   UNL     1      32.272 -12.686 -21.087  0.00  0.00    -0.178 NA
ATOM      9  C   UNL     1      33.067 -12.945 -22.132  0.00  0.00    +0.100 C 
ATOM     10  C   UNL     1      33.046 -11.910 -23.091  0.00  0.00    +0.036 C 
ATOM     11  C   UNL     1      32.180 -10.977 -22.576  0.00  0.00    +0.086 C 
ATOM     12  C   UNL     1      30.819 -10.862 -20.475  0.00  0.00    +0.140 C 
BRANCH  10  14
ATOM     13  N   UNL     1      35.042 -11.447 -26.793  0.00  0.00    -0.242 NA
ATOM     14  C   UNL     1      33.722 -11.754 -24.343  0.00  0.00    +0.006 C 
ATOM     15  C   UNL     1      33.370 -12.544 -25.434  0.00  0.00    +0.021 C 
ATOM     16  C   UNL     1      34.736 -10.810 -24.481  0.00  0.00    +0.021 C 
ATOM     17  C   UNL     1      34.053 -12.353 -26.624  0.00  0.00    +0.099 C 
ATOM     18  C   UNL     1      35.359 -10.697 -25.713  0.00  0.00    +0.099 C 
ENDBRANCH  10  14
ENDBRANCH   1   9
BRANCH   4  19
ATOM     19  O   UNL     1      35.993 -17.700 -22.340  0.00  0.00    -0.468 OA
BRANCH  19  20
ATOM     20  C   UNL     1      35.352 -18.820 -22.935  0.00  0.00    +0.264 C 
BRANCH  20  22
ATOM     21  N   UNL     1      35.641 -20.297 -21.039  0.00  0.00    -0.406 NA
ATOM     22  C   UNL     1      34.765 -19.680 -21.865  0.00  0.00    +0.152 C 
ATOM     23  C   UNL     1      33.763 -21.270 -19.884  0.00  0.00    +0.026 C 
ATOM     24  C   UNL     1      35.149 -21.081 -20.060  0.00  0.00    +0.113 C 
ATOM     25  C   UNL     1      33.394 -19.804 -21.770  0.00  0.00    +0.031 C 
ATOM     26  C   UNL     1      32.890 -20.612 -20.761  0.00  0.00    +0.005 C 
ATOM     27  C   UNL     1      33.285 -22.096 -18.853  0.00  0.00    +0.002 C 
ATOM     28  C   UNL     1      36.016 -21.734 -19.188  0.00  0.00    +0.085 C 
ATOM     29  C   UNL     1      34.173 -22.738 -17.994  0.00  0.00    -0.004 C 
ATOM     30  C   UNL     1      35.540 -22.557 -18.163  0.00  0.00    -0.019 C 
ENDBRANCH  20  22
ENDBRANCH  19  20
ENDBRANCH   4  19
TORSDOF 5
ENDMDL
MODEL 7
REMARK VINA RESULT:     -11.0      1.595      3.753
REMARK  Name = 11581936
REMARK  5 active torsions:
REMARK  status: ('A' for Active; 'I' for Inactive)
REMARK    1  A    between atoms: C_1  and  C_9
REMARK    2  A    between atoms: C_4  and  O_19
REMARK    3  A    between atoms: C_10  and  C_14
REMARK    4  A    between atoms: O_19  and  C_20
REMARK    5  A    between atoms: C_20  and  C_22
REMARK                            x       y       z     vdW  Elec       q    Type
REMARK                         _______ _______ _______ _____ _____    ______ ____
ROOT
ATOM      1  C   UNL     1      34.968 -23.091 -17.077  0.00  0.00    +0.019 C 
ATOM      2  C   UNL     1      33.789 -23.079 -17.821  0.00  0.00    +0.005 C 
ATOM      3  C   UNL     1      36.085 -22.387 -17.527  0.00  0.00    +0.005 C 
ATOM      4  C   UNL     1      34.843 -21.661 -19.458  0.00  0.00    +0.139 C 
ATOM      5  C   UNL     1      33.726 -22.361 -19.016  0.00  0.00    +0.037 C 
ATOM      6  C   UNL     1      36.022 -21.668 -18.721  0.00  0.00    +0.037 C 
ENDROOT
BRANCH   1   9
ATOM      7  N   UNL     1      35.871 -24.946 -14.273  0.00  0.00    -0.208 N 
ATOM      8  N   UNL     1      36.198 -24.339 -15.426  0.00  0.00    -0.178 NA
ATOM      9  C   UNL     1      35.034 -23.830 -15.848  0.00  0.00    +0.100 C 
ATOM     10  C   UNL     1      33.973 -24.115 -14.962  0.00  0.00    +0.036 C 
ATOM     11  C   UNL     1      34.550 -24.840 -13.949  0.00  0.00    +0.086 C 
ATOM     12  C   UNL     1      36.889 -25.625 -13.508  0.00  0.00    +0.140 C 
BRANCH  10  14
ATOM     13  N   UNL     1      29.860 -23.129 -15.079  0.00  0.00    -0.242 NA
ATOM     14  C   UNL     1      32.581 -23.782 -15.001  0.00  0.00    +0.006 C 
ATOM     15  C   UNL     1      32.015 -23.009 -13.991  0.00  0.00    +0.021 C 
ATOM     16  C   UNL     1      31.782 -24.228 -16.051  0.00  0.00    +0.021 C 
ATOM     17  C   UNL     1      30.664 -22.713 -14.076  0.00  0.00    +0.099 C 
ATOM     18  C   UNL     1      30.441 -23.878 -16.043  0.00  0.00    +0.099 C 
ENDBRANCH  10  14
ENDBRANCH   1   9
BRANCH   4  19
ATOM     19  O   UNL     1      34.781 -20.955 -20.631  0.00  0.00    -0.468 OA
BRANCH  19  20
ATOM     20  C   UNL     1      35.938 -20.213 -20.994  0.00  0.00    +0.264 C 
BRANCH  20  22
ATOM     21  N   UNL     1      34.887 -19.417 -23.024  0.00  0.00    -0.406 NA
ATOM     22  C   UNL     1      35.541 -19.085 -21.887  0.00  0.00    +0.152 C 
ATOM     23  C   UNL     1      34.787 -17.072 -23.571  0.00  0.00    +0.026 C 
ATOM     24  C   UNL     1      34.513 -18.425 -23.856  0.00  0.00    +0.113 C 
ATOM     25  C   UNL     1      35.853 -17.790 -21.525  0.00  0.00    +0.031 C 
ATOM     26  C   UNL     1      35.467 -16.772 -22.384  0.00  0.00    +0.005 C 
ATOM     27  C   UNL     1      34.383 -16.064 -24.463  0.00  0.00    +0.002 C 
ATOM     28  C   UNL     1      33.836 -18.723 -25.036  0.00  0.00    +0.085 C 
ATOM     29  C   UNL     1      33.708 -16.389 -25.636  0.00  0.00    -0.004 C 
ATOM     30  C   UNL     1      33.435 -17.720 -25.923  0.00  0.00    -0.019 C 
ENDBRANCH  20  22
ENDBRANCH  19  20
ENDBRANCH   4  19
TORSDOF 5
ENDMDL
MODEL 8
REMARK VINA RESULT:     -10.8      7.488     15.318
REMARK  Name = 11581936
REMARK  5 active torsions:
REMARK  status: ('A' for Active; 'I' for Inactive)
REMARK    1  A    between atoms: C_1  and  C_9
REMARK    2  A    between atoms: C_4  and  O_19
REMARK    3  A    between atoms: C_10  and  C_14
REMARK    4  A    between atoms: O_19  and  C_20
REMARK    5  A    between atoms: C_20  and  C_22
REMARK                            x       y       z     vdW  Elec       q    Type
REMARK                         _______ _______ _______ _____ _____    ______ ____
ROOT
ATOM      1  C   UNL     1      32.950  -8.300 -23.367  0.00  0.00    +0.019 C 
ATOM      2  C   UNL     1      32.129  -9.425 -23.291  0.00  0.00    +0.005 C 
ATOM      3  C   UNL     1      34.286  -8.434 -23.744  0.00  0.00    +0.005 C 
ATOM      4  C   UNL     1      33.979 -10.811 -23.969  0.00  0.00    +0.139 C 
ATOM      5  C   UNL     1      32.647 -10.685 -23.593  0.00  0.00    +0.037 C 
ATOM      6  C   UNL     1      34.802  -9.694 -24.047  0.00  0.00    +0.037 C 
ENDROOT
BRANCH   1   9
ATOM      7  N   UNL     1      31.329  -5.524 -22.028  0.00  0.00    -0.208 N 
ATOM      8  N   UNL     1      31.619  -6.836 -21.995  0.00  0.00    -0.178 NA
ATOM      9  C   UNL     1      32.418  -7.002 -23.056  0.00  0.00    +0.100 C 
ATOM     10  C   UNL     1      32.633  -5.798 -23.759  0.00  0.00    +0.036 C 
ATOM     11  C   UNL     1      31.912  -4.857 -23.065  0.00  0.00    +0.086 C 
ATOM     12  C   UNL     1      30.470  -4.955 -21.018  0.00  0.00    +0.140 C 
BRANCH  10  14
ATOM     13  N   UNL     1      34.896  -4.920 -27.224  0.00  0.00    -0.242 NA
ATOM     14  C   UNL     1      33.399  -5.500 -24.931  0.00  0.00    +0.006 C 
ATOM     15  C   UNL     1      34.775  -5.710 -24.943  0.00  0.00    +0.021 C 
ATOM     16  C   UNL     1      32.773  -5.000 -26.070  0.00  0.00    +0.021 C 
ATOM     17  C   UNL     1      35.471  -5.407 -26.102  0.00  0.00    +0.099 C 
ATOM     18  C   UNL     1      33.558  -4.728 -27.179  0.00  0.00    +0.099 C 
ENDBRANCH  10  14
ENDBRANCH   1   9
BRANCH   4  19
ATOM     19  O   UNL     1      34.486 -12.050 -24.266  0.00  0.00    -0.468 OA
BRANCH  19  20
ATOM     20  C   UNL     1      33.566 -13.133 -24.276  0.00  0.00    +0.264 C 
BRANCH  20  22
ATOM     21  N   UNL     1      34.370 -15.399 -23.996  0.00  0.00    -0.406 NA
ATOM     22  C   UNL     1      34.078 -14.223 -23.394  0.00  0.00    +0.152 C 
ATOM     23  C   UNL     1      35.017 -16.263 -21.841  0.00  0.00    +0.026 C 
ATOM     24  C   UNL     1      34.835 -16.407 -23.232  0.00  0.00    +0.113 C 
ATOM     25  C   UNL     1      34.224 -13.989 -22.041  0.00  0.00    +0.031 C 
ATOM     26  C   UNL     1      34.702 -15.029 -21.258  0.00  0.00    +0.005 C 
ATOM     27  C   UNL     1      35.503 -17.337 -21.075  0.00  0.00    +0.002 C 
ATOM     28  C   UNL     1      35.149 -17.633 -23.811  0.00  0.00    +0.085 C 
ATOM     29  C   UNL     1      35.809 -18.553 -21.679  0.00  0.00    -0.004 C 
ATOM     30  C   UNL     1      35.632 -18.701 -23.049  0.00  0.00    -0.019 C 
ENDBRANCH  20  22
ENDBRANCH  19  20
ENDBRANCH   4  19
TORSDOF 5
ENDMDL
MODEL 9
REMARK VINA RESULT:     -10.6      7.679     14.634
REMARK  Name = 11581936
REMARK  5 active torsions:
REMARK  status: ('A' for Active; 'I' for Inactive)
REMARK    1  A    between atoms: C_1  and  C_9
REMARK    2  A    between atoms: C_4  and  O_19
REMARK    3  A    between atoms: C_10  and  C_14
REMARK    4  A    between atoms: O_19  and  C_20
REMARK    5  A    between atoms: C_20  and  C_22
REMARK                            x       y       z     vdW  Elec       q    Type
REMARK                         _______ _______ _______ _____ _____    ______ ____
ROOT
ATOM      1  C   UNL     1      33.393  -9.185 -23.125  0.00  0.00    +0.019 C 
ATOM      2  C   UNL     1      32.551 -10.292 -23.027  0.00  0.00    +0.005 C 
ATOM      3  C   UNL     1      34.524  -9.238 -23.939  0.00  0.00    +0.005 C 
ATOM      4  C   UNL     1      33.970 -11.500 -24.553  0.00  0.00    +0.139 C 
ATOM      5  C   UNL     1      32.841 -11.453 -23.743  0.00  0.00    +0.037 C 
ATOM      6  C   UNL     1      34.814 -10.400 -24.656  0.00  0.00    +0.037 C 
ENDROOT
BRANCH   1   9
ATOM      7  N   UNL     1      32.559  -6.774 -20.756  0.00  0.00    -0.208 N 
ATOM      8  N   UNL     1      32.760  -8.059 -21.094  0.00  0.00    -0.178 NA
ATOM      9  C   UNL     1      33.095  -7.989 -22.388  0.00  0.00    +0.100 C 
ATOM     10  C   UNL     1      33.105  -6.662 -22.868  0.00  0.00    +0.036 C 
ATOM     11  C   UNL     1      32.754  -5.897 -21.783  0.00  0.00    +0.086 C 
ATOM     12  C   UNL     1      32.173  -6.440 -19.406  0.00  0.00    +0.140 C 
BRANCH  10  14
ATOM     13  N   UNL     1      33.965  -5.044 -26.682  0.00  0.00    -0.242 NA
ATOM     14  C   UNL     1      33.396  -6.115 -24.159  0.00  0.00    +0.006 C 
ATOM     15  C   UNL     1      32.369  -5.629 -24.963  0.00  0.00    +0.021 C 
ATOM     16  C   UNL     1      34.709  -6.065 -24.620  0.00  0.00    +0.021 C 
ATOM     17  C   UNL     1      32.703  -5.109 -26.203  0.00  0.00    +0.099 C 
ATOM     18  C   UNL     1      34.938  -5.526 -25.875  0.00  0.00    +0.099 C 
ENDBRANCH  10  14
ENDBRANCH   1   9
BRANCH   4  19
ATOM     19  O   UNL     1      34.254 -12.641 -25.257  0.00  0.00    -0.468 OA
BRANCH  19  20
ATOM     20  C   UNL     1      33.193 -13.573 -25.421  0.00  0.00    +0.264 C 
BRANCH  20  22
ATOM     21  N   UNL     1      34.225 -15.051 -23.805  0.00  0.00    -0.406 NA
ATOM     22  C   UNL     1      33.667 -14.934 -25.032  0.00  0.00    +0.152 C 
ATOM     23  C   UNL     1      34.558 -17.395 -24.255  0.00  0.00    +0.026 C 
ATOM     24  C   UNL     1      34.665 -16.265 -23.419  0.00  0.00    +0.113 C 
ATOM     25  C   UNL     1      33.519 -15.982 -25.918  0.00  0.00    +0.031 C 
ATOM     26  C   UNL     1      33.973 -17.230 -25.518  0.00  0.00    +0.005 C 
ATOM     27  C   UNL     1      35.028 -18.646 -23.820  0.00  0.00    +0.002 C 
ATOM     28  C   UNL     1      35.245 -16.429 -22.165  0.00  0.00    +0.085 C 
ATOM     29  C   UNL     1      35.605 -18.783 -22.560  0.00  0.00    -0.004 C 
ATOM     30  C   UNL     1      35.714 -17.673 -21.732  0.00  0.00    -0.019 C 
ENDBRANCH  20  22
ENDBRANCH  19  20
ENDBRANCH   4  19
TORSDOF 5
ENDMDL
