MODEL 1
REMARK VINA RESULT:     -11.8      0.000      0.000
REMARK  Name = 11979006
REMARK  7 active torsions:
REMARK  status: ('A' for Active; 'I' for Inactive)
REMARK    1  A    between atoms: C_1  and  N_2
REMARK    2  A    between atoms: C_1  and  C_22
REMARK    3  A    between atoms: C_3  and  N_9
REMARK    4  A    between atoms: C_4  and  O_18
REMARK    5  A    between atoms: C_10  and  C_14
REMARK    6  A    between atoms: N_21  and  C_25
REMARK    7  A    between atoms: C_28  and  N_32
REMARK                            x       y       z     vdW  Elec       q    Type
REMARK                         _______ _______ _______ _____ _____    ______ ____
ROOT
ATOM      1  C   UNL     1      33.499 -17.231 -25.688  0.00  0.00    +0.010 C 
ENDROOT
BRANCH   1   2
ATOM      2  N   UNL     1      34.470 -17.829 -24.784  0.00  0.00    +0.396 N 
ATOM      3  C   UNL     1      35.020 -19.290 -23.079  0.00  0.00    +0.076 C 
ATOM      4  C   UNL     1      35.389 -17.882 -22.607  0.00  0.00    +0.106 C 
ATOM      5  C   UNL     1      33.973 -19.055 -24.159  0.00  0.00    -0.054 C 
ATOM      6  C   UNL     1      34.825 -16.939 -23.672  0.00  0.00    -0.045 C 
ATOM      7  H   UNL     1      35.277 -18.018 -25.378  0.00  0.00    -0.079 HD
BRANCH   3   9
ATOM      8  O   UNL     1      36.447 -19.990 -20.750  0.00  0.00    -0.270 OA
ATOM      9  N   UNL     1      34.530 -20.117 -22.011  0.00  0.00    -0.302 N 
ATOM     10  C   UNL     1      35.300 -20.420 -20.885  0.00  0.00    +0.252 C 
ATOM     11  H   UNL     1      33.620 -20.485 -22.075  0.00  0.00    +0.150 HD
BRANCH  10  14
ATOM     12 CL   UNL     1      34.438 -23.744 -16.619  0.00  0.00    -0.075 Cl
ATOM     13  S   UNL     1      35.634 -22.035 -18.733  0.00  0.00    -0.071 S 
ATOM     14  C   UNL     1      34.648 -21.252 -19.863  0.00  0.00    +0.084 C 
ATOM     15  C   UNL     1      33.324 -21.477 -19.711  0.00  0.00    +0.012 C 
ATOM     16  C   UNL     1      33.087 -22.342 -18.604  0.00  0.00    +0.019 C 
ATOM     17  C   UNL     1      34.256 -22.720 -17.983  0.00  0.00    +0.087 C 
ENDBRANCH  10  14
ENDBRANCH   3   9
BRANCH   4  18
ATOM     18  O   UNL     1      36.804 -17.767 -22.531  0.00  0.00    -0.385 OA
ATOM     19  H   UNL     1      37.039 -16.898 -22.171  0.00  0.00    +0.210 HD
ENDBRANCH   4  18
ENDBRANCH   1   2
BRANCH   1  22
ATOM     20  O   UNL     1      34.318 -15.225 -26.749  0.00  0.00    -0.277 OA
ATOM     21  N   UNL     1      33.255 -15.087 -24.660  0.00  0.00    -0.284 N 
ATOM     22  C   UNL     1      33.754 -15.737 -25.787  0.00  0.00    +0.205 C 
ATOM     23  H   UNL     1      32.826 -15.659 -23.983  0.00  0.00    +0.155 HD
BRANCH  21  25
ATOM     24  F   UNL     1      32.871 -14.140 -22.078  0.00  0.00    -0.203 F 
ATOM     25  C   UNL     1      33.294 -13.701 -24.374  0.00  0.00    +0.078 C 
ATOM     26  C   UNL     1      33.098 -13.269 -23.073  0.00  0.00    +0.155 C 
ATOM     27  C   UNL     1      33.529 -12.806 -25.404  0.00  0.00    +0.018 C 
ATOM     28  C   UNL     1      33.371 -10.988 -23.821  0.00  0.00    +0.061 C 
ATOM     29  C   UNL     1      33.136 -11.903 -22.794  0.00  0.00    +0.046 C 
ATOM     30  C   UNL     1      33.567 -11.440 -25.126  0.00  0.00    +0.017 C 
BRANCH  28  32
ATOM     31  O   UNL     1      31.165  -9.433 -22.782  0.00  0.00    -0.269 OA
ATOM     32  N   UNL     1      33.410  -9.568 -23.531  0.00  0.00    -0.233 N 
ATOM     33  C   UNL     1      32.268  -8.926 -22.984  0.00  0.00    +0.257 C 
ATOM     34  C   UNL     1      34.557  -8.821 -23.806  0.00  0.00    +0.072 C 
ATOM     35  C   UNL     1      32.410  -7.471 -22.671  0.00  0.00    +0.059 C 
ATOM     36  C   UNL     1      34.647  -7.512 -23.546  0.00  0.00    +0.017 C 
ATOM     37  C   UNL     1      33.540  -6.821 -22.954  0.00  0.00    +0.006 C 
ENDBRANCH  28  32
ENDBRANCH  21  25
ENDBRANCH   1  22
TORSDOF 7
ENDMDL
MODEL 2
REMARK VINA RESULT:     -11.7      1.489      1.849
REMARK  Name = 11979006
REMARK  7 active torsions:
REMARK  status: ('A' for Active; 'I' for Inactive)
REMARK    1  A    between atoms: C_1  and  N_2
REMARK    2  A    between atoms: C_1  and  C_22
REMARK    3  A    between atoms: C_3  and  N_9
REMARK    4  A    between atoms: C_4  and  O_18
REMARK    5  A    between atoms: C_10  and  C_14
REMARK    6  A    between atoms: N_21  and  C_25
REMARK    7  A    between atoms: C_28  and  N_32
REMARK                            x       y       z     vdW  Elec       q    Type
REMARK                         _______ _______ _______ _____ _____    ______ ____
ROOT
ATOM      1  C   UNL     1      34.506 -17.446 -24.107  0.00  0.00    +0.010 C 
ENDROOT
BRANCH   1   2
ATOM      2  N   UNL     1      35.313 -18.322 -23.271  0.00  0.00    +0.396 N 
ATOM      3  C   UNL     1      35.511 -19.978 -21.670  0.00  0.00    +0.076 C 
ATOM      4  C   UNL     1      36.229 -18.738 -21.133  0.00  0.00    +0.106 C 
ATOM      5  C   UNL     1      34.536 -19.423 -22.699  0.00  0.00    -0.054 C 
ATOM      6  C   UNL     1      35.899 -17.620 -22.123  0.00  0.00    -0.045 C 
ATOM      7  H   UNL     1      36.035 -18.668 -23.901  0.00  0.00    -0.079 HD
BRANCH   3   9
ATOM      8  O   UNL     1      36.771 -21.643 -19.776  0.00  0.00    -0.270 OA
ATOM      9  N   UNL     1      34.849 -20.723 -20.635  0.00  0.00    -0.302 N 
ATOM     10  C   UNL     1      35.546 -21.529 -19.730  0.00  0.00    +0.252 C 
ATOM     11  H   UNL     1      33.870 -20.664 -20.560  0.00  0.00    +0.150 HD
BRANCH  10  14
ATOM     12 CL   UNL     1      33.973 -24.104 -15.161  0.00  0.00    -0.075 Cl
ATOM     13  S   UNL     1      35.507 -22.731 -17.300  0.00  0.00    -0.071 S 
ATOM     14  C   UNL     1      34.732 -22.203 -18.708  0.00  0.00    +0.084 C 
ATOM     15  C   UNL     1      33.406 -22.461 -18.755  0.00  0.00    +0.012 C 
ATOM     16  C   UNL     1      32.984 -23.133 -17.571  0.00  0.00    +0.019 C 
ATOM     17  C   UNL     1      34.026 -23.341 -16.695  0.00  0.00    +0.087 C 
ENDBRANCH  10  14
ENDBRANCH   3   9
BRANCH   4  18
ATOM     18  O   UNL     1      37.629 -18.985 -21.097  0.00  0.00    -0.385 OA
ATOM     19  H   UNL     1      38.072 -18.428 -21.756  0.00  0.00    +0.210 HD
ENDBRANCH   4  18
ENDBRANCH   1   2
BRANCH   1  22
ATOM     20  O   UNL     1      35.659 -15.647 -22.986  0.00  0.00    -0.277 OA
ATOM     21  N   UNL     1      33.667 -15.208 -24.150  0.00  0.00    -0.284 N 
ATOM     22  C   UNL     1      34.702 -16.006 -23.666  0.00  0.00    +0.205 C 
ATOM     23  H   UNL     1      32.980 -15.666 -24.686  0.00  0.00    +0.155 HD
BRANCH  21  25
ATOM     24  F   UNL     1      32.826 -14.185 -21.709  0.00  0.00    -0.203 F 
ATOM     25  C   UNL     1      33.488 -13.817 -23.960  0.00  0.00    +0.078 C 
ATOM     26  C   UNL     1      33.067 -13.347 -22.728  0.00  0.00    +0.155 C 
ATOM     27  C   UNL     1      33.738 -12.955 -25.016  0.00  0.00    +0.018 C 
ATOM     28  C   UNL     1      33.137 -11.093 -23.597  0.00  0.00    +0.061 C 
ATOM     29  C   UNL     1      32.890 -11.975 -22.545  0.00  0.00    +0.046 C 
ATOM     30  C   UNL     1      33.560 -11.584 -24.833  0.00  0.00    +0.017 C 
BRANCH  28  32
ATOM     31  O   UNL     1      35.236  -9.107 -23.706  0.00  0.00    -0.269 OA
ATOM     32  N   UNL     1      32.952  -9.668 -23.406  0.00  0.00    -0.233 N 
ATOM     33  C   UNL     1      34.061  -8.790 -23.525  0.00  0.00    +0.257 C 
ATOM     34  C   UNL     1      31.695  -9.153 -23.085  0.00  0.00    +0.072 C 
ATOM     35  C   UNL     1      33.775  -7.331 -23.360  0.00  0.00    +0.059 C 
ATOM     36  C   UNL     1      31.471  -7.847 -22.910  0.00  0.00    +0.017 C 
ATOM     37  C   UNL     1      32.544  -6.909 -23.060  0.00  0.00    +0.006 C 
ENDBRANCH  28  32
ENDBRANCH  21  25
ENDBRANCH   1  22
TORSDOF 7
ENDMDL
MODEL 3
REMARK VINA RESULT:     -11.6      3.895      6.026
REMARK  Name = 11979006
REMARK  7 active torsions:
REMARK  status: ('A' for Active; 'I' for Inactive)
REMARK    1  A    between atoms: C_1  and  N_2
REMARK    2  A    between atoms: C_1  and  C_22
REMARK    3  A    between atoms: C_3  and  N_9
REMARK    4  A    between atoms: C_4  and  O_18
REMARK    5  A    between atoms: C_10  and  C_14
REMARK    6  A    between atoms: N_21  and  C_25
REMARK    7  A    between atoms: C_28  and  N_32
REMARK                            x       y       z     vdW  Elec       q    Type
REMARK                         _______ _______ _______ _____ _____    ______ ____
ROOT
ATOM      1  C   UNL     1      36.245 -20.733 -20.652  0.00  0.00    +0.010 C 
ENDROOT
BRANCH   1   2
ATOM      2  N   UNL     1      35.753 -21.179 -19.358  0.00  0.00    +0.396 N 
ATOM      3  C   UNL     1      36.074 -22.208 -17.313  0.00  0.00    +0.076 C 
ATOM      4  C   UNL     1      34.973 -22.980 -18.042  0.00  0.00    +0.106 C 
ATOM      5  C   UNL     1      36.836 -21.508 -18.430  0.00  0.00    -0.054 C 
ATOM      6  C   UNL     1      34.938 -22.396 -19.456  0.00  0.00    -0.045 C 
ATOM      7  H   UNL     1      35.202 -20.392 -19.018  0.00  0.00    -0.079 HD
BRANCH   3   9
ATOM      8  O   UNL     1      35.458 -23.242 -14.763  0.00  0.00    -0.270 OA
ATOM      9  N   UNL     1      36.920 -23.065 -16.527  0.00  0.00    -0.302 N 
ATOM     10  C   UNL     1      36.542 -23.538 -15.268  0.00  0.00    +0.252 C 
ATOM     11  H   UNL     1      37.796 -23.329 -16.889  0.00  0.00    +0.150 HD
BRANCH  10  14
ATOM     12 CL   UNL     1      40.959 -26.583 -14.169  0.00  0.00    -0.075 Cl
ATOM     13  S   UNL     1      38.942 -24.793 -15.411  0.00  0.00    -0.071 S 
ATOM     14  C   UNL     1      37.501 -24.431 -14.601  0.00  0.00    +0.084 C 
ATOM     15  C   UNL     1      37.371 -25.016 -13.389  0.00  0.00    +0.012 C 
ATOM     16  C   UNL     1      38.515 -25.813 -13.092  0.00  0.00    +0.019 C 
ATOM     17  C   UNL     1      39.446 -25.780 -14.106  0.00  0.00    +0.087 C 
ENDBRANCH  10  14
ENDBRANCH   3   9
BRANCH   4  18
ATOM     18  O   UNL     1      33.733 -22.770 -17.378  0.00  0.00    -0.385 OA
ATOM     19  H   UNL     1      33.364 -23.624 -17.106  0.00  0.00    +0.210 HD
ENDBRANCH   4  18
ENDBRANCH   1   2
BRANCH   1  22
ATOM     20  O   UNL     1      34.219 -19.921 -21.681  0.00  0.00    -0.277 OA
ATOM     21  N   UNL     1      35.902 -18.403 -21.066  0.00  0.00    -0.284 N 
ATOM     22  C   UNL     1      35.319 -19.662 -21.202  0.00  0.00    +0.205 C 
ATOM     23  H   UNL     1      36.795 -18.381 -20.651  0.00  0.00    +0.155 HD
BRANCH  21  25
ATOM     24  F   UNL     1      35.628 -17.723 -23.744  0.00  0.00    -0.203 F 
ATOM     25  C   UNL     1      35.362 -17.154 -21.454  0.00  0.00    +0.078 C 
ATOM     26  C   UNL     1      35.242 -16.853 -22.800  0.00  0.00    +0.155 C 
ATOM     27  C   UNL     1      34.965 -16.258 -20.474  0.00  0.00    +0.018 C 
ATOM     28  C   UNL     1      34.305 -14.706 -22.205  0.00  0.00    +0.061 C 
ATOM     29  C   UNL     1      34.709 -15.620 -23.178  0.00  0.00    +0.046 C 
ATOM     30  C   UNL     1      34.433 -15.026 -20.853  0.00  0.00    +0.017 C 
BRANCH  28  32
ATOM     31  O   UNL     1      31.962 -13.469 -21.046  0.00  0.00    -0.269 OA
ATOM     32  N   UNL     1      33.752 -13.425 -22.599  0.00  0.00    -0.233 N 
ATOM     33  C   UNL     1      32.617 -12.907 -21.923  0.00  0.00    +0.257 C 
ATOM     34  C   UNL     1      34.315 -12.706 -23.655  0.00  0.00    +0.072 C 
ATOM     35  C   UNL     1      32.141 -11.558 -22.361  0.00  0.00    +0.059 C 
ATOM     36  C   UNL     1      33.850 -11.516 -24.050  0.00  0.00    +0.017 C 
ATOM     37  C   UNL     1      32.733 -10.924 -23.375  0.00  0.00    +0.006 C 
ENDBRANCH  28  32
ENDBRANCH  21  25
ENDBRANCH   1  22
TORSDOF 7
ENDMDL
MODEL 4
REMARK VINA RESULT:     -11.5      3.821      6.604
REMARK  Name = 11979006
REMARK  7 active torsions:
REMARK  status: ('A' for Active; 'I' for Inactive)
REMARK    1  A    between atoms: C_1  and  N_2
REMARK    2  A    between atoms: C_1  and  C_22
REMARK    3  A    between atoms: C_3  and  N_9
REMARK    4  A    between atoms: C_4  and  O_18
REMARK    5  A    between atoms: C_10  and  C_14
REMARK    6  A    between atoms: N_21  and  C_25
REMARK    7  A    between atoms: C_28  and  N_32
REMARK                            x       y       z     vdW  Elec       q    Type
REMARK                         _______ _______ _______ _____ _____    ______ ____
ROOT
ATOM      1  C   UNL     1      35.825 -21.310 -20.475  0.00  0.00    +0.010 C 
ENDROOT
BRANCH   1   2
ATOM      2  N   UNL     1      35.424 -21.619 -19.111  0.00  0.00    +0.396 N 
ATOM      3  C   UNL     1      35.870 -22.487 -17.015  0.00  0.00    +0.076 C 
ATOM      4  C   UNL     1      34.677 -23.259 -17.582  0.00  0.00    +0.106 C 
ATOM      5  C   UNL     1      36.565 -21.924 -18.247  0.00  0.00    -0.054 C 
ATOM      6  C   UNL     1      34.550 -22.796 -19.035  0.00  0.00    -0.045 C 
ATOM      7  H   UNL     1      34.940 -20.778 -18.799  0.00  0.00    -0.079 HD
BRANCH   3   9
ATOM      8  O   UNL     1      35.357 -23.387 -14.392  0.00  0.00    -0.270 OA
ATOM      9  N   UNL     1      36.739 -23.316 -16.226  0.00  0.00    -0.302 N 
ATOM     10  C   UNL     1      36.413 -23.722 -14.930  0.00  0.00    +0.252 C 
ATOM     11  H   UNL     1      37.595 -23.609 -16.613  0.00  0.00    +0.150 HD
BRANCH  10  14
ATOM     12 CL   UNL     1      40.898 -26.663 -13.825  0.00  0.00    -0.075 Cl
ATOM     13  S   UNL     1      38.844 -24.916 -15.066  0.00  0.00    -0.071 S 
ATOM     14  C   UNL     1      37.390 -24.596 -14.263  0.00  0.00    +0.084 C 
ATOM     15  C   UNL     1      37.268 -25.192 -13.056  0.00  0.00    +0.012 C 
ATOM     16  C   UNL     1      38.429 -25.962 -12.758  0.00  0.00    +0.019 C 
ATOM     17  C   UNL     1      39.365 -25.899 -13.765  0.00  0.00    +0.087 C 
ENDBRANCH  10  14
ENDBRANCH   3   9
BRANCH   4  18
ATOM     18  O   UNL     1      33.509 -22.930 -16.842  0.00  0.00    -0.385 OA
ATOM     19  H   UNL     1      33.700 -22.989 -15.893  0.00  0.00    +0.210 HD
ENDBRANCH   4  18
ENDBRANCH   1   2
BRANCH   1  22
ATOM     20  O   UNL     1      33.770 -20.077 -20.758  0.00  0.00    -0.277 OA
ATOM     21  N   UNL     1      35.740 -19.308 -21.778  0.00  0.00    -0.284 N 
ATOM     22  C   UNL     1      34.968 -20.174 -21.007  0.00  0.00    +0.205 C 
ATOM     23  H   UNL     1      36.693 -19.540 -21.869  0.00  0.00    +0.155 HD
BRANCH  21  25
ATOM     24  F   UNL     1      35.510 -16.890 -20.432  0.00  0.00    -0.203 F 
ATOM     25  C   UNL     1      35.316 -18.134 -22.446  0.00  0.00    +0.078 C 
ATOM     26  C   UNL     1      35.214 -16.948 -21.739  0.00  0.00    +0.155 C 
ATOM     27  C   UNL     1      35.012 -18.200 -23.796  0.00  0.00    +0.018 C 
ATOM     28  C   UNL     1      34.485 -15.842 -23.760  0.00  0.00    +0.061 C 
ATOM     29  C   UNL     1      34.796 -15.793 -22.400  0.00  0.00    +0.046 C 
ATOM     30  C   UNL     1      34.593 -17.045 -24.457  0.00  0.00    +0.017 C 
BRANCH  28  32
ATOM     31  O   UNL     1      33.473 -15.739 -26.467  0.00  0.00    -0.269 OA
ATOM     32  N   UNL     1      34.049 -14.641 -24.446  0.00  0.00    -0.233 N 
ATOM     33  C   UNL     1      33.533 -14.730 -25.766  0.00  0.00    +0.257 C 
ATOM     34  C   UNL     1      34.153 -13.394 -23.827  0.00  0.00    +0.072 C 
ATOM     35  C   UNL     1      33.063 -13.451 -26.382  0.00  0.00    +0.059 C 
ATOM     36  C   UNL     1      33.756 -12.260 -24.413  0.00  0.00    +0.017 C 
ATOM     37  C   UNL     1      33.187 -12.294 -25.728  0.00  0.00    +0.006 C 
ENDBRANCH  28  32
ENDBRANCH  21  25
ENDBRANCH   1  22
TORSDOF 7
ENDMDL
MODEL 5
REMARK VINA RESULT:     -11.4      5.203     10.996
REMARK  Name = 11979006
REMARK  7 active torsions:
REMARK  status: ('A' for Active; 'I' for Inactive)
REMARK    1  A    between atoms: C_1  and  N_2
REMARK    2  A    between atoms: C_1  and  C_22
REMARK    3  A    between atoms: C_3  and  N_9
REMARK    4  A    between atoms: C_4  and  O_18
REMARK    5  A    between atoms: C_10  and  C_14
REMARK    6  A    between atoms: N_21  and  C_25
REMARK    7  A    between atoms: C_28  and  N_32
REMARK                            x       y       z     vdW  Elec       q    Type
REMARK                         _______ _______ _______ _____ _____    ______ ____
ROOT
ATOM      1  C   UNL     1      33.324 -13.242 -26.078  0.00  0.00    +0.010 C 
ENDROOT
BRANCH   1   2
ATOM      2  N   UNL     1      33.844 -12.289 -25.109  0.00  0.00    +0.396 N 
ATOM      3  C   UNL     1      33.605 -10.407 -23.788  0.00  0.00    +0.076 C 
ATOM      4  C   UNL     1      34.788 -10.157 -24.727  0.00  0.00    +0.106 C 
ATOM      5  C   UNL     1      32.790 -11.478 -24.499  0.00  0.00    -0.054 C 
ATOM      6  C   UNL     1      34.779 -11.330 -25.709  0.00  0.00    -0.045 C 
ATOM      7  H   UNL     1      34.308 -12.873 -24.414  0.00  0.00    -0.079 HD
BRANCH   3   9
ATOM      8  O   UNL     1      34.571  -8.063 -22.554  0.00  0.00    -0.270 OA
ATOM      9  N   UNL     1      32.842  -9.216 -23.535  0.00  0.00    -0.302 N 
ATOM     10  C   UNL     1      33.394  -8.091 -22.916  0.00  0.00    +0.252 C 
ATOM     11  H   UNL     1      31.896  -9.191 -23.806  0.00  0.00    +0.150 HD
BRANCH  10  14
ATOM     12 CL   UNL     1      30.891  -3.273 -23.629  0.00  0.00    -0.075 Cl
ATOM     13  S   UNL     1      32.647  -5.657 -23.849  0.00  0.00    -0.071 S 
ATOM     14  C   UNL     1      32.496  -6.938 -22.754  0.00  0.00    +0.084 C 
ATOM     15  C   UNL     1      31.539  -6.769 -21.815  0.00  0.00    +0.012 C 
ATOM     16  C   UNL     1      30.881  -5.517 -21.989  0.00  0.00    +0.019 C 
ATOM     17  C   UNL     1      31.385  -4.813 -23.060  0.00  0.00    +0.087 C 
ENDBRANCH  10  14
ENDBRANCH   3   9
BRANCH   4  18
ATOM     18  O   UNL     1      35.992 -10.139 -23.971  0.00  0.00    -0.385 OA
ATOM     19  H   UNL     1      35.830 -10.526 -23.096  0.00  0.00    +0.210 HD
ENDBRANCH   4  18
ENDBRANCH   1   2
BRANCH   1  22
ATOM     20  O   UNL     1      32.569 -15.521 -25.840  0.00  0.00    -0.277 OA
ATOM     21  N   UNL     1      34.316 -14.725 -24.487  0.00  0.00    -0.284 N 
ATOM     22  C   UNL     1      33.334 -14.635 -25.472  0.00  0.00    +0.205 C 
ATOM     23  H   UNL     1      34.844 -13.910 -24.325  0.00  0.00    +0.155 HD
BRANCH  21  25
ATOM     24  F   UNL     1      34.734 -14.482 -21.753  0.00  0.00    -0.203 F 
ATOM     25  C   UNL     1      34.642 -15.850 -23.692  0.00  0.00    +0.078 C 
ATOM     26  C   UNL     1      34.843 -15.687 -22.332  0.00  0.00    +0.155 C 
ATOM     27  C   UNL     1      34.752 -17.092 -24.295  0.00  0.00    +0.018 C 
ATOM     28  C   UNL     1      35.280 -18.056 -22.143  0.00  0.00    +0.061 C 
ATOM     29  C   UNL     1      35.164 -16.797 -21.552  0.00  0.00    +0.046 C 
ATOM     30  C   UNL     1      35.075 -18.202 -23.516  0.00  0.00    +0.017 C 
BRANCH  28  32
ATOM     31  O   UNL     1      37.957 -18.843 -21.382  0.00  0.00    -0.269 OA
ATOM     32  N   UNL     1      35.615 -19.209 -21.332  0.00  0.00    -0.233 N 
ATOM     33  C   UNL     1      36.970 -19.466 -20.993  0.00  0.00    +0.257 C 
ATOM     34  C   UNL     1      34.617 -20.085 -20.899  0.00  0.00    +0.072 C 
ATOM     35  C   UNL     1      37.222 -20.650 -20.114  0.00  0.00    +0.059 C 
ATOM     36  C   UNL     1      34.873 -21.155 -20.140  0.00  0.00    +0.017 C 
ATOM     37  C   UNL     1      36.217 -21.440 -19.732  0.00  0.00    +0.006 C 
ENDBRANCH  28  32
ENDBRANCH  21  25
ENDBRANCH   1  22
TORSDOF 7
ENDMDL
MODEL 6
REMARK VINA RESULT:     -11.3      6.003     10.006
REMARK  Name = 11979006
REMARK  7 active torsions:
REMARK  status: ('A' for Active; 'I' for Inactive)
REMARK    1  A    between atoms: C_1  and  N_2
REMARK    2  A    between atoms: C_1  and  C_22
REMARK    3  A    between atoms: C_3  and  N_9
REMARK    4  A    between atoms: C_4  and  O_18
REMARK    5  A    between atoms: C_10  and  C_14
REMARK    6  A    between atoms: N_21  and  C_25
REMARK    7  A    between atoms: C_28  and  N_32
REMARK                            x       y       z     vdW  Elec       q    Type
REMARK                         _______ _______ _______ _____ _____    ______ ____
ROOT
ATOM      1  C   UNL     1      31.891 -24.056 -16.275  0.00  0.00    +0.010 C 
ENDROOT
BRANCH   1   2
ATOM      2  N   UNL     1      32.934 -23.781 -15.299  0.00  0.00    +0.396 N 
ATOM      3  C   UNL     1      35.128 -23.923 -14.584  0.00  0.00    +0.076 C 
ATOM      4  C   UNL     1      34.259 -24.599 -13.522  0.00  0.00    +0.106 C 
ATOM      5  C   UNL     1      34.278 -23.977 -15.846  0.00  0.00    -0.054 C 
ATOM      6  C   UNL     1      32.856 -24.662 -14.128  0.00  0.00    -0.045 C 
ATOM      7  H   UNL     1      32.780 -22.807 -15.040  0.00  0.00    -0.079 HD
BRANCH   3   9
ATOM      8  O   UNL     1      37.555 -23.131 -13.388  0.00  0.00    -0.270 OA
ATOM      9  N   UNL     1      36.398 -24.574 -14.752  0.00  0.00    -0.302 N 
ATOM     10  C   UNL     1      37.561 -24.119 -14.123  0.00  0.00    +0.252 C 
ATOM     11  H   UNL     1      36.453 -25.368 -15.330  0.00  0.00    +0.150 HD
BRANCH  10  14
ATOM     12 CL   UNL     1      41.723 -27.627 -13.527  0.00  0.00    -0.075 Cl
ATOM     13  S   UNL     1      39.284 -25.975 -13.155  0.00  0.00    -0.071 S 
ATOM     14  C   UNL     1      38.776 -24.910 -14.367  0.00  0.00    +0.084 C 
ATOM     15  C   UNL     1      39.560 -24.890 -15.467  0.00  0.00    +0.012 C 
ATOM     16  C   UNL     1      40.649 -25.798 -15.324  0.00  0.00    +0.019 C 
ATOM     17  C   UNL     1      40.619 -26.455 -14.113  0.00  0.00    +0.087 C 
ENDBRANCH  10  14
ENDBRANCH   3   9
BRANCH   4  18
ATOM     18  O   UNL     1      34.263 -23.810 -12.339  0.00  0.00    -0.385 OA
ATOM     19  H   UNL     1      34.357 -22.874 -12.575  0.00  0.00    +0.210 HD
ENDBRANCH   4  18
ENDBRANCH   1   2
BRANCH   1  22
ATOM     20  O   UNL     1      30.874 -22.219 -17.465  0.00  0.00    -0.277 OA
ATOM     21  N   UNL     1      33.067 -22.875 -17.989  0.00  0.00    -0.284 N 
ATOM     22  C   UNL     1      31.855 -22.939 -17.304  0.00  0.00    +0.205 C 
ATOM     23  H   UNL     1      33.751 -23.533 -17.724  0.00  0.00    +0.155 HD
BRANCH  21  25
ATOM     24  F   UNL     1      35.729 -22.459 -18.660  0.00  0.00    -0.203 F 
ATOM     25  C   UNL     1      33.432 -21.975 -19.019  0.00  0.00    +0.078 C 
ATOM     26  C   UNL     1      34.771 -21.796 -19.323  0.00  0.00    +0.155 C 
ATOM     27  C   UNL     1      32.438 -21.293 -19.700  0.00  0.00    +0.018 C 
ATOM     28  C   UNL     1      34.138 -20.212 -21.035  0.00  0.00    +0.061 C 
ATOM     29  C   UNL     1      35.126 -20.908 -20.339  0.00  0.00    +0.046 C 
ATOM     30  C   UNL     1      32.793 -20.405 -20.715  0.00  0.00    +0.017 C 
BRANCH  28  32
ATOM     31  O   UNL     1      35.616 -17.755 -20.663  0.00  0.00    -0.269 OA
ATOM     32  N   UNL     1      34.508 -19.289 -22.090  0.00  0.00    -0.233 N 
ATOM     33  C   UNL     1      35.272 -18.133 -21.782  0.00  0.00    +0.257 C 
ATOM     34  C   UNL     1      34.100 -19.517 -23.406  0.00  0.00    +0.072 C 
ATOM     35  C   UNL     1      35.650 -17.260 -22.935  0.00  0.00    +0.059 C 
ATOM     36  C   UNL     1      34.424 -18.703 -24.415  0.00  0.00    +0.017 C 
ATOM     37  C   UNL     1      35.230 -17.543 -24.170  0.00  0.00    +0.006 C 
ENDBRANCH  28  32
ENDBRANCH  21  25
ENDBRANCH   1  22
TORSDOF 7
ENDMDL
MODEL 7
REMARK VINA RESULT:     -11.1      5.761      9.987
REMARK  Name = 11979006
REMARK  7 active torsions:
REMARK  status: ('A' for Active; 'I' for Inactive)
REMARK    1  A    between atoms: C_1  and  N_2
REMARK    2  A    between atoms: C_1  and  C_22
REMARK    3  A    between atoms: C_3  and  N_9
REMARK    4  A    between atoms: C_4  and  O_18
REMARK    5  A    between atoms: C_10  and  C_14
REMARK    6  A    between atoms: N_21  and  C_25
REMARK    7  A    between atoms: C_28  and  N_32
REMARK                            x       y       z     vdW  Elec       q    Type
REMARK                         _______ _______ _______ _____ _____    ______ ____
ROOT
ATOM      1  C   UNL     1      35.243 -24.395 -15.993  0.00  0.00    +0.010 C 
ENDROOT
BRANCH   1   2
ATOM      2  N   UNL     1      34.051 -24.330 -15.161  0.00  0.00    +0.396 N 
ATOM      3  C   UNL     1      31.786 -23.953 -14.893  0.00  0.00    +0.076 C 
ATOM      4  C   UNL     1      32.522 -22.968 -13.983  0.00  0.00    +0.106 C 
ATOM      5  C   UNL     1      32.818 -24.320 -15.950  0.00  0.00    -0.054 C 
ATOM      6  C   UNL     1      34.001 -23.113 -14.343  0.00  0.00    -0.045 C 
ATOM      7  H   UNL     1      34.110 -25.165 -14.579  0.00  0.00    -0.079 HD
BRANCH   3   9
ATOM      8  O   UNL     1      29.177 -24.983 -14.608  0.00  0.00    -0.270 OA
ATOM      9  N   UNL     1      30.594 -23.389 -15.465  0.00  0.00    -0.302 N 
ATOM     10  C   UNL     1      29.332 -23.960 -15.277  0.00  0.00    +0.252 C 
ATOM     11  H   UNL     1      30.668 -22.572 -16.008  0.00  0.00    +0.150 HD
BRANCH  10  14
ATOM     12 CL   UNL     1      25.870 -21.856 -18.961  0.00  0.00    -0.075 Cl
ATOM     13  S   UNL     1      28.100 -23.254 -17.587  0.00  0.00    -0.071 S 
ATOM     14  C   UNL     1      28.204 -23.250 -15.899  0.00  0.00    +0.084 C 
ATOM     15  C   UNL     1      27.215 -22.575 -15.272  0.00  0.00    +0.012 C 
ATOM     16  C   UNL     1      26.307 -22.021 -16.221  0.00  0.00    +0.019 C 
ATOM     17  C   UNL     1      26.670 -22.315 -17.517  0.00  0.00    +0.087 C 
ENDBRANCH  10  14
ENDBRANCH   3   9
BRANCH   4  18
ATOM     18  O   UNL     1      32.295 -23.323 -12.625  0.00  0.00    -0.385 OA
ATOM     19  H   UNL     1      31.359 -23.191 -12.408  0.00  0.00    +0.210 HD
ENDBRANCH   4  18
ENDBRANCH   1   2
BRANCH   1  22
ATOM     20  O   UNL     1      35.943 -22.092 -16.161  0.00  0.00    -0.277 OA
ATOM     21  N   UNL     1      34.964 -23.150 -18.014  0.00  0.00    -0.284 N 
ATOM     22  C   UNL     1      35.434 -23.068 -16.705  0.00  0.00    +0.205 C 
ATOM     23  H   UNL     1      34.588 -24.019 -18.286  0.00  0.00    +0.155 HD
BRANCH  21  25
ATOM     24  F   UNL     1      32.590 -22.069 -18.963  0.00  0.00    -0.203 F 
ATOM     25  C   UNL     1      34.963 -22.133 -18.998  0.00  0.00    +0.078 C 
ATOM     26  C   UNL     1      33.757 -21.620 -19.445  0.00  0.00    +0.155 C 
ATOM     27  C   UNL     1      36.172 -21.673 -19.493  0.00  0.00    +0.018 C 
ATOM     28  C   UNL     1      34.969 -20.143 -20.925  0.00  0.00    +0.061 C 
ATOM     29  C   UNL     1      33.760 -20.617 -20.415  0.00  0.00    +0.046 C 
ATOM     30  C   UNL     1      36.175 -20.671 -20.464  0.00  0.00    +0.017 C 
BRANCH  28  32
ATOM     31  O   UNL     1      35.632 -17.367 -20.460  0.00  0.00    -0.269 OA
ATOM     32  N   UNL     1      34.971 -19.102 -21.934  0.00  0.00    -0.233 N 
ATOM     33  C   UNL     1      35.355 -17.780 -21.585  0.00  0.00    +0.257 C 
ATOM     34  C   UNL     1      34.576 -19.383 -23.243  0.00  0.00    +0.072 C 
ATOM     35  C   UNL     1      35.375 -16.779 -22.696  0.00  0.00    +0.059 C 
ATOM     36  C   UNL     1      34.571 -18.462 -24.211  0.00  0.00    +0.017 C 
ATOM     37  C   UNL     1      34.991 -17.121 -23.928  0.00  0.00    +0.006 C 
ENDBRANCH  28  32
ENDBRANCH  21  25
ENDBRANCH   1  22
TORSDOF 7
ENDMDL
MODEL 8
REMARK VINA RESULT:     -11.0      4.347     11.058
REMARK  Name = 11979006
REMARK  7 active torsions:
REMARK  status: ('A' for Active; 'I' for Inactive)
REMARK    1  A    between atoms: C_1  and  N_2
REMARK    2  A    between atoms: C_1  and  C_22
REMARK    3  A    between atoms: C_3  and  N_9
REMARK    4  A    between atoms: C_4  and  O_18
REMARK    5  A    between atoms: C_10  and  C_14
REMARK    6  A    between atoms: N_21  and  C_25
REMARK    7  A    between atoms: C_28  and  N_32
REMARK                            x       y       z     vdW  Elec       q    Type
REMARK                         _______ _______ _______ _____ _____    ______ ____
ROOT
ATOM      1  C   UNL     1      36.441 -18.937 -22.801  0.00  0.00    +0.010 C 
ENDROOT
BRANCH   1   2
ATOM      2  N   UNL     1      35.808 -17.877 -23.570  0.00  0.00    +0.396 N 
ATOM      3  C   UNL     1      34.767 -15.817 -23.707  0.00  0.00    +0.076 C 
ATOM      4  C   UNL     1      33.793 -16.857 -24.265  0.00  0.00    +0.106 C 
ATOM      5  C   UNL     1      35.701 -16.626 -22.818  0.00  0.00    -0.054 C 
ATOM      6  C   UNL     1      34.436 -18.213 -23.967  0.00  0.00    -0.045 C 
ATOM      7  H   UNL     1      36.412 -17.768 -24.384  0.00  0.00    -0.079 HD
BRANCH   3   9
ATOM      8  O   UNL     1      33.392 -13.645 -24.865  0.00  0.00    -0.270 OA
ATOM      9  N   UNL     1      34.100 -14.767 -22.988  0.00  0.00    -0.302 N 
ATOM     10  C   UNL     1      33.438 -13.721 -23.636  0.00  0.00    +0.252 C 
ATOM     11  H   UNL     1      34.110 -14.784 -22.005  0.00  0.00    +0.150 HD
BRANCH  10  14
ATOM     12 CL   UNL     1      31.628  -9.022 -21.482  0.00  0.00    -0.075 Cl
ATOM     13  S   UNL     1      32.920 -11.101 -23.163  0.00  0.00    -0.071 S 
ATOM     14  C   UNL     1      32.776 -12.739 -22.764  0.00  0.00    +0.084 C 
ATOM     15  C   UNL     1      32.047 -12.989 -21.654  0.00  0.00    +0.012 C 
ATOM     16  C   UNL     1      31.571 -11.773 -21.082  0.00  0.00    +0.019 C 
ATOM     17  C   UNL     1      31.973 -10.671 -21.804  0.00  0.00    +0.087 C 
ENDBRANCH  10  14
ENDBRANCH   3   9
BRANCH   4  18
ATOM     18  O   UNL     1      33.648 -16.662 -25.666  0.00  0.00    -0.385 OA
ATOM     19  H   UNL     1      32.908 -17.198 -25.992  0.00  0.00    +0.210 HD
ENDBRANCH   4  18
ENDBRANCH   1   2
BRANCH   1  22
ATOM     20  O   UNL     1      35.184 -18.271 -20.852  0.00  0.00    -0.277 OA
ATOM     21  N   UNL     1      35.530 -20.551 -21.291  0.00  0.00    -0.284 N 
ATOM     22  C   UNL     1      35.645 -19.184 -21.531  0.00  0.00    +0.205 C 
ATOM     23  H   UNL     1      35.962 -21.145 -21.948  0.00  0.00    +0.155 HD
BRANCH  21  25
ATOM     24  F   UNL     1      32.762 -20.519 -21.088  0.00  0.00    -0.203 F 
ATOM     25  C   UNL     1      34.867 -21.188 -20.215  0.00  0.00    +0.078 C 
ATOM     26  C   UNL     1      33.484 -21.149 -20.150  0.00  0.00    +0.155 C 
ATOM     27  C   UNL     1      35.618 -21.837 -19.250  0.00  0.00    +0.018 C 
ATOM     28  C   UNL     1      33.574 -22.435 -18.107  0.00  0.00    +0.061 C 
ATOM     29  C   UNL     1      32.833 -21.777 -19.088  0.00  0.00    +0.046 C 
ATOM     30  C   UNL     1      34.967 -22.465 -18.187  0.00  0.00    +0.017 C 
BRANCH  28  32
ATOM     31  O   UNL     1      34.864 -24.001 -16.045  0.00  0.00    -0.269 OA
ATOM     32  N   UNL     1      32.897 -23.087 -17.003  0.00  0.00    -0.233 N 
ATOM     33  C   UNL     1      33.651 -23.796 -16.031  0.00  0.00    +0.257 C 
ATOM     34  C   UNL     1      31.505 -23.042 -16.900  0.00  0.00    +0.072 C 
ATOM     35  C   UNL     1      32.878 -24.398 -14.900  0.00  0.00    +0.059 C 
ATOM     36  C   UNL     1      30.835 -23.617 -15.896  0.00  0.00    +0.017 C 
ATOM     37  C   UNL     1      31.547 -24.309 -14.863  0.00  0.00    +0.006 C 
ENDBRANCH  28  32
ENDBRANCH  21  25
ENDBRANCH   1  22
TORSDOF 7
ENDMDL
MODEL 9
REMARK VINA RESULT:     -11.0      5.063     12.029
REMARK  Name = 11979006
REMARK  7 active torsions:
REMARK  status: ('A' for Active; 'I' for Inactive)
REMARK    1  A    between atoms: C_1  and  N_2
REMARK    2  A    between atoms: C_1  and  C_22
REMARK    3  A    between atoms: C_3  and  N_9
REMARK    4  A    between atoms: C_4  and  O_18
REMARK    5  A    between atoms: C_10  and  C_14
REMARK    6  A    between atoms: N_21  and  C_25
REMARK    7  A    between atoms: C_28  and  N_32
REMARK                            x       y       z     vdW  Elec       q    Type
REMARK                         _______ _______ _______ _____ _____    ______ ____
ROOT
ATOM      1  C   UNL     1      34.793 -20.229 -21.724  0.00  0.00    +0.010 C 
ENDROOT
BRANCH   1   2
ATOM      2  N   UNL     1      35.217 -18.941 -22.251  0.00  0.00    +0.396 N 
ATOM      3  C   UNL     1      35.111 -16.632 -22.286  0.00  0.00    +0.076 C 
ATOM      4  C   UNL     1      34.739 -17.126 -23.686  0.00  0.00    +0.106 C 
ATOM      5  C   UNL     1      34.827 -17.827 -21.386  0.00  0.00    -0.054 C 
ATOM      6  C   UNL     1      34.624 -18.646 -23.561  0.00  0.00    -0.045 C 
ATOM      7  H   UNL     1      36.231 -19.022 -22.314  0.00  0.00    -0.079 HD
BRANCH   3   9
ATOM      8  O   UNL     1      34.078 -14.679 -24.038  0.00  0.00    -0.270 OA
ATOM      9  N   UNL     1      34.367 -15.465 -21.898  0.00  0.00    -0.302 N 
ATOM     10  C   UNL     1      33.886 -14.540 -22.829  0.00  0.00    +0.252 C 
ATOM     11  H   UNL     1      34.189 -15.311 -20.942  0.00  0.00    +0.150 HD
BRANCH  10  14
ATOM     12 CL   UNL     1      31.568  -9.625 -22.158  0.00  0.00    -0.075 Cl
ATOM     13  S   UNL     1      33.089 -11.970 -23.159  0.00  0.00    -0.071 S 
ATOM     14  C   UNL     1      33.115 -13.415 -22.280  0.00  0.00    +0.084 C 
ATOM     15  C   UNL     1      32.407 -13.390 -21.129  0.00  0.00    +0.012 C 
ATOM     16  C   UNL     1      31.799 -12.114 -20.942  0.00  0.00    +0.019 C 
ATOM     17  C   UNL     1      32.088 -11.248 -21.973  0.00  0.00    +0.087 C 
ENDBRANCH  10  14
ENDBRANCH   3   9
BRANCH   4  18
ATOM     18  O   UNL     1      35.770 -16.770 -24.598  0.00  0.00    -0.385 OA
ATOM     19  H   UNL     1      36.630 -16.832 -24.154  0.00  0.00    +0.210 HD
ENDBRANCH   4  18
ENDBRANCH   1   2
BRANCH   1  22
ATOM     20  O   UNL     1      36.666 -20.008 -20.219  0.00  0.00    -0.277 OA
ATOM     21  N   UNL     1      34.943 -21.523 -19.720  0.00  0.00    -0.284 N 
ATOM     22  C   UNL     1      35.598 -20.555 -20.478  0.00  0.00    +0.205 C 
ATOM     23  H   UNL     1      34.086 -21.850 -20.079  0.00  0.00    +0.155 HD
BRANCH  21  25
ATOM     24  F   UNL     1      33.187 -22.970 -18.127  0.00  0.00    -0.203 F 
ATOM     25  C   UNL     1      35.363 -22.092 -18.494  0.00  0.00    +0.078 C 
ATOM     26  C   UNL     1      34.457 -22.807 -17.729  0.00  0.00    +0.155 C 
ATOM     27  C   UNL     1      36.676 -21.920 -18.087  0.00  0.00    +0.018 C 
ATOM     28  C   UNL     1      36.194 -23.202 -16.096  0.00  0.00    +0.061 C 
ATOM     29  C   UNL     1      34.875 -23.366 -16.521  0.00  0.00    +0.046 C 
ATOM     30  C   UNL     1      37.094 -22.478 -16.879  0.00  0.00    +0.017 C 
BRANCH  28  32
ATOM     31  O   UNL     1      36.413 -26.034 -15.551  0.00  0.00    -0.269 OA
ATOM     32  N   UNL     1      36.628 -23.782 -14.840  0.00  0.00    -0.233 N 
ATOM     33  C   UNL     1      36.731 -25.192 -14.712  0.00  0.00    +0.257 C 
ATOM     34  C   UNL     1      36.924 -22.966 -13.747  0.00  0.00    +0.072 C 
ATOM     35  C   UNL     1      37.231 -25.705 -13.399  0.00  0.00    +0.059 C 
ATOM     36  C   UNL     1      37.338 -23.451 -12.572  0.00  0.00    +0.017 C 
ATOM     37  C   UNL     1      37.503 -24.864 -12.399  0.00  0.00    +0.006 C 
ENDBRANCH  28  32
ENDBRANCH  21  25
ENDBRANCH   1  22
TORSDOF 7
ENDMDL
