MODEL 1
REMARK VINA RESULT:     -11.7      0.000      0.000
REMARK  Name = 23586146
REMARK  5 active torsions:
REMARK  status: ('A' for Active; 'I' for Inactive)
REMARK    1  A    between atoms: N_1  and  C_12
REMARK    2  A    between atoms: C_8  and  N_18
REMARK    3  A    between atoms: N_18  and  C_20
REMARK    4  A    between atoms: C_23  and  S_26
REMARK    5  A    between atoms: S_26  and  N_29
REMARK                            x       y       z     vdW  Elec       q    Type
REMARK                         _______ _______ _______ _____ _____    ______ ____
ROOT
ATOM      1  N   UNL     1      35.712 -24.496 -14.371  0.00  0.00    -0.309 N 
ATOM      2  N   UNL     1      33.462 -24.043 -14.349  0.00  0.00    -0.321 NA
ATOM      3  N   UNL     1      32.381 -23.437 -16.408  0.00  0.00    -0.106 N 
ATOM      4  N   UNL     1      31.134 -23.104 -16.835  0.00  0.00    -0.139 NA
ATOM      5  N   UNL     1      31.110 -23.518 -14.596  0.00  0.00    -0.145 NA
ATOM      6  C   UNL     1      34.587 -24.147 -15.016  0.00  0.00    +0.196 C 
ATOM      7  C   UNL     1      34.685 -23.889 -16.496  0.00  0.00    +0.081 C 
ATOM      8  C   UNL     1      33.564 -23.540 -17.145  0.00  0.00    +0.140 C 
ATOM      9  C   UNL     1      32.342 -23.687 -15.035  0.00  0.00    +0.176 C 
ATOM     10  C   UNL     1      30.423 -23.170 -15.714  0.00  0.00    +0.230 C 
ATOM     11  H   UNL     1      36.551 -24.554 -14.883  0.00  0.00    +0.149 HD
ENDROOT
BRANCH   1  12
ATOM     12  C   UNL     1      35.744 -24.791 -12.950  0.00  0.00    +0.071 C 
ATOM     13  C   UNL     1      36.742 -25.919 -12.670  0.00  0.00    +0.020 C 
ATOM     14  C   UNL     1      36.089 -23.526 -12.159  0.00  0.00    +0.020 C 
ATOM     15  C   UNL     1      38.197 -25.480 -12.844  0.00  0.00    +0.002 C 
ATOM     16  C   UNL     1      37.545 -23.095 -12.335  0.00  0.00    +0.002 C 
ATOM     17  C   UNL     1      38.511 -24.234 -12.023  0.00  0.00    +0.000 C 
ENDBRANCH   1  12
BRANCH   8  18
ATOM     18  N   UNL     1      33.502 -23.276 -18.483  0.00  0.00    -0.299 N 
ATOM     19  H   UNL     1      32.930 -23.877 -19.013  0.00  0.00    +0.153 HD
BRANCH  18  20
ATOM     20  C   UNL     1      34.147 -22.260 -19.197  0.00  0.00    +0.049 C 
ATOM     21  C   UNL     1      35.537 -22.150 -19.153  0.00  0.00    +0.016 C 
ATOM     22  C   UNL     1      33.400 -21.357 -19.954  0.00  0.00    +0.016 C 
ATOM     23  C   UNL     1      35.432 -20.234 -20.622  0.00  0.00    +0.122 C 
ATOM     24  C   UNL     1      36.180 -21.137 -19.866  0.00  0.00    +0.021 C 
ATOM     25  C   UNL     1      34.043 -20.345 -20.666  0.00  0.00    +0.021 C 
BRANCH  23  26
ATOM     26  S   UNL     1      36.237 -18.968 -21.513  0.00  0.00    +0.057 S 
ATOM     27  O   UNL     1      37.652 -18.995 -21.173  0.00  0.00    -0.153 OA
ATOM     28  O   UNL     1      35.826 -19.049 -22.908  0.00  0.00    -0.153 OA
BRANCH  26  29
ATOM     29  N   UNL     1      35.530 -17.577 -20.815  0.00  0.00    -0.203 NA
ATOM     30  H   UNL     1      35.539 -17.664 -19.800  0.00  0.00    +0.144 HD
ATOM     31  H   UNL     1      34.567 -17.485 -21.139  0.00  0.00    +0.144 HD
ENDBRANCH  26  29
ENDBRANCH  23  26
ENDBRANCH  18  20
ENDBRANCH   8  18
TORSDOF 5
ENDMDL
MODEL 2
REMARK VINA RESULT:     -10.7      5.808     11.442
REMARK  Name = 23586146
REMARK  5 active torsions:
REMARK  status: ('A' for Active; 'I' for Inactive)
REMARK    1  A    between atoms: N_1  and  C_12
REMARK    2  A    between atoms: C_8  and  N_18
REMARK    3  A    between atoms: N_18  and  C_20
REMARK    4  A    between atoms: C_23  and  S_26
REMARK    5  A    between atoms: S_26  and  N_29
REMARK                            x       y       z     vdW  Elec       q    Type
REMARK                         _______ _______ _______ _____ _____    ______ ____
ROOT
ATOM      1  N   UNL     1      33.949 -13.688 -23.492  0.00  0.00    -0.309 N 
ATOM      2  N   UNL     1      33.564 -15.509 -24.835  0.00  0.00    -0.321 NA
ATOM      3  N   UNL     1      34.604 -17.602 -24.278  0.00  0.00    -0.106 N 
ATOM      4  N   UNL     1      34.650 -18.870 -24.767  0.00  0.00    -0.139 NA
ATOM      5  N   UNL     1      33.321 -17.572 -26.083  0.00  0.00    -0.145 NA
ATOM      6  C   UNL     1      34.144 -14.985 -23.781  0.00  0.00    +0.196 C 
ATOM      7  C   UNL     1      35.037 -15.777 -22.864  0.00  0.00    +0.081 C 
ATOM      8  C   UNL     1      35.236 -17.072 -23.150  0.00  0.00    +0.140 C 
ATOM      9  C   UNL     1      33.784 -16.826 -25.100  0.00  0.00    +0.176 C 
ATOM     10  C   UNL     1      33.868 -18.789 -25.839  0.00  0.00    +0.230 C 
ATOM     11  H   UNL     1      34.405 -13.307 -22.707  0.00  0.00    +0.149 HD
ENDROOT
BRANCH   1  12
ATOM     12  C   UNL     1      33.094 -12.825 -24.286  0.00  0.00    +0.071 C 
ATOM     13  C   UNL     1      32.415 -11.787 -23.388  0.00  0.00    +0.020 C 
ATOM     14  C   UNL     1      33.910 -12.158 -25.398  0.00  0.00    +0.020 C 
ATOM     15  C   UNL     1      33.387 -10.728 -22.866  0.00  0.00    +0.002 C 
ATOM     16  C   UNL     1      34.876 -11.098 -24.870  0.00  0.00    +0.002 C 
ATOM     17  C   UNL     1      34.162 -10.068 -24.001  0.00  0.00    +0.000 C 
ENDBRANCH   1  12
BRANCH   8  18
ATOM     18  N   UNL     1      36.018 -17.911 -22.410  0.00  0.00    -0.299 N 
ATOM     19  H   UNL     1      36.984 -17.720 -22.423  0.00  0.00    +0.153 HD
BRANCH  18  20
ATOM     20  C   UNL     1      35.623 -19.006 -21.633  0.00  0.00    +0.049 C 
ATOM     21  C   UNL     1      36.579 -19.753 -20.943  0.00  0.00    +0.016 C 
ATOM     22  C   UNL     1      34.275 -19.351 -21.547  0.00  0.00    +0.016 C 
ATOM     23  C   UNL     1      34.836 -21.189 -20.084  0.00  0.00    +0.122 C 
ATOM     24  C   UNL     1      36.185 -20.844 -20.168  0.00  0.00    +0.021 C 
ATOM     25  C   UNL     1      33.882 -20.442 -20.773  0.00  0.00    +0.021 C 
BRANCH  23  26
ATOM     26  S   UNL     1      34.344 -22.554 -19.114  0.00  0.00    +0.057 S 
ATOM     27  O   UNL     1      34.333 -23.739 -19.962  0.00  0.00    -0.153 OA
ATOM     28  O   UNL     1      35.123 -22.553 -17.883  0.00  0.00    -0.153 OA
BRANCH  26  29
ATOM     29  N   UNL     1      32.731 -22.128 -18.744  0.00  0.00    -0.203 NA
ATOM     30  H   UNL     1      32.132 -22.946 -18.839  0.00  0.00    +0.144 HD
ATOM     31  H   UNL     1      32.417 -21.399 -19.385  0.00  0.00    +0.144 HD
ENDBRANCH  26  29
ENDBRANCH  23  26
ENDBRANCH  18  20
ENDBRANCH   8  18
TORSDOF 5
ENDMDL
MODEL 3
REMARK VINA RESULT:      -9.8      1.918      4.650
REMARK  Name = 23586146
REMARK  5 active torsions:
REMARK  status: ('A' for Active; 'I' for Inactive)
REMARK    1  A    between atoms: N_1  and  C_12
REMARK    2  A    between atoms: C_8  and  N_18
REMARK    3  A    between atoms: N_18  and  C_20
REMARK    4  A    between atoms: C_23  and  S_26
REMARK    5  A    between atoms: S_26  and  N_29
REMARK                            x       y       z     vdW  Elec       q    Type
REMARK                         _______ _______ _______ _____ _____    ______ ____
ROOT
ATOM      1  N   UNL     1      31.135 -23.150 -15.954  0.00  0.00    -0.309 N 
ATOM      2  N   UNL     1      33.233 -23.300 -15.034  0.00  0.00    -0.321 NA
ATOM      3  N   UNL     1      35.145 -23.196 -16.485  0.00  0.00    -0.106 N 
ATOM      4  N   UNL     1      36.500 -23.242 -16.378  0.00  0.00    -0.139 NA
ATOM      5  N   UNL     1      35.544 -23.436 -14.320  0.00  0.00    -0.145 NA
ATOM      6  C   UNL     1      32.471 -23.168 -16.094  0.00  0.00    +0.196 C 
ATOM      7  C   UNL     1      33.026 -23.037 -17.487  0.00  0.00    +0.081 C 
ATOM      8  C   UNL     1      34.359 -23.055 -17.632  0.00  0.00    +0.140 C 
ATOM      9  C   UNL     1      34.582 -23.316 -15.213  0.00  0.00    +0.176 C 
ATOM     10  C   UNL     1      36.676 -23.385 -15.068  0.00  0.00    +0.230 C 
ATOM     11  H   UNL     1      30.577 -23.066 -16.760  0.00  0.00    +0.149 HD
ENDROOT
BRANCH   1  12
ATOM     12  C   UNL     1      30.479 -23.247 -14.663  0.00  0.00    +0.071 C 
ATOM     13  C   UNL     1      28.958 -23.206 -14.841  0.00  0.00    +0.020 C 
ATOM     14  C   UNL     1      30.927 -24.522 -13.941  0.00  0.00    +0.020 C 
ATOM     15  C   UNL     1      28.403 -24.482 -15.476  0.00  0.00    +0.002 C 
ATOM     16  C   UNL     1      30.364 -25.792 -14.578  0.00  0.00    +0.002 C 
ATOM     17  C   UNL     1      28.846 -25.728 -14.718  0.00  0.00    +0.000 C 
ENDBRANCH   1  12
BRANCH   8  18
ATOM     18  N   UNL     1      35.003 -22.946 -18.831  0.00  0.00    -0.299 N 
ATOM     19  H   UNL     1      35.399 -23.776 -19.183  0.00  0.00    +0.153 HD
BRANCH  18  20
ATOM     20  C   UNL     1      35.170 -21.806 -19.626  0.00  0.00    +0.049 C 
ATOM     21  C   UNL     1      36.446 -21.278 -19.828  0.00  0.00    +0.016 C 
ATOM     22  C   UNL     1      34.062 -21.197 -20.214  0.00  0.00    +0.016 C 
ATOM     23  C   UNL     1      35.503 -19.533 -21.209  0.00  0.00    +0.122 C 
ATOM     24  C   UNL     1      36.612 -20.142 -20.621  0.00  0.00    +0.021 C 
ATOM     25  C   UNL     1      34.229 -20.061 -21.006  0.00  0.00    +0.021 C 
BRANCH  23  26
ATOM     26  S   UNL     1      35.712 -18.111 -22.200  0.00  0.00    +0.057 S 
ATOM     27  O   UNL     1      35.023 -18.327 -23.464  0.00  0.00    -0.153 OA
ATOM     28  O   UNL     1      35.400 -16.937 -21.397  0.00  0.00    -0.153 OA
BRANCH  26  29
ATOM     29  N   UNL     1      37.398 -18.153 -22.478  0.00  0.00    -0.203 NA
ATOM     30  H   UNL     1      37.766 -19.063 -22.203  0.00  0.00    +0.144 HD
ATOM     31  H   UNL     1      37.851 -17.423 -21.928  0.00  0.00    +0.144 HD
ENDBRANCH  26  29
ENDBRANCH  23  26
ENDBRANCH  18  20
ENDBRANCH   8  18
TORSDOF 5
ENDMDL
MODEL 4
REMARK VINA RESULT:      -9.0      5.771      9.036
REMARK  Name = 23586146
REMARK  5 active torsions:
REMARK  status: ('A' for Active; 'I' for Inactive)
REMARK    1  A    between atoms: N_1  and  C_12
REMARK    2  A    between atoms: C_8  and  N_18
REMARK    3  A    between atoms: N_18  and  C_20
REMARK    4  A    between atoms: C_23  and  S_26
REMARK    5  A    between atoms: S_26  and  N_29
REMARK                            x       y       z     vdW  Elec       q    Type
REMARK                         _______ _______ _______ _____ _____    ______ ____
ROOT
ATOM      1  N   UNL     1      35.211 -19.978 -20.661  0.00  0.00    -0.309 N 
ATOM      2  N   UNL     1      34.640 -19.571 -22.847  0.00  0.00    -0.321 NA
ATOM      3  N   UNL     1      34.699 -17.311 -23.660  0.00  0.00    -0.106 N 
ATOM      4  N   UNL     1      34.454 -16.647 -24.821  0.00  0.00    -0.139 NA
ATOM      5  N   UNL     1      34.086 -18.877 -25.101  0.00  0.00    -0.145 NA
ATOM      6  C   UNL     1      35.032 -19.120 -21.679  0.00  0.00    +0.196 C 
ATOM      7  C   UNL     1      35.295 -17.662 -21.415  0.00  0.00    +0.081 C 
ATOM      8  C   UNL     1      35.117 -16.801 -22.428  0.00  0.00    +0.140 C 
ATOM      9  C   UNL     1      34.468 -18.674 -23.856  0.00  0.00    +0.176 C 
ATOM     10  C   UNL     1      34.094 -17.631 -25.639  0.00  0.00    +0.230 C 
ATOM     11  H   UNL     1      35.489 -19.622 -19.788  0.00  0.00    +0.149 HD
ENDROOT
BRANCH   1  12
ATOM     12  C   UNL     1      35.011 -21.409 -20.796  0.00  0.00    +0.071 C 
ATOM     13  C   UNL     1      36.100 -22.167 -20.030  0.00  0.00    +0.020 C 
ATOM     14  C   UNL     1      33.610 -21.792 -20.306  0.00  0.00    +0.020 C 
ATOM     15  C   UNL     1      35.943 -22.055 -18.513  0.00  0.00    +0.002 C 
ATOM     16  C   UNL     1      33.463 -21.683 -18.789  0.00  0.00    +0.002 C 
ATOM     17  C   UNL     1      34.548 -22.468 -18.059  0.00  0.00    +0.000 C 
ENDBRANCH   1  12
BRANCH   8  18
ATOM     18  N   UNL     1      35.316 -15.454 -22.334  0.00  0.00    -0.299 N 
ATOM     19  H   UNL     1      36.251 -15.153 -22.403  0.00  0.00    +0.153 HD
BRANCH  18  20
ATOM     20  C   UNL     1      34.362 -14.446 -22.155  0.00  0.00    +0.049 C 
ATOM     21  C   UNL     1      33.622 -14.388 -20.974  0.00  0.00    +0.016 C 
ATOM     22  C   UNL     1      34.151 -13.499 -23.157  0.00  0.00    +0.016 C 
ATOM     23  C   UNL     1      32.460 -12.436 -21.798  0.00  0.00    +0.122 C 
ATOM     24  C   UNL     1      32.672 -13.382 -20.795  0.00  0.00    +0.021 C 
ATOM     25  C   UNL     1      33.200 -12.495 -22.978  0.00  0.00    +0.021 C 
BRANCH  23  26
ATOM     26  S   UNL     1      31.271 -11.179 -21.574  0.00  0.00    +0.057 S 
ATOM     27  O   UNL     1      31.589 -10.079 -22.473  0.00  0.00    -0.153 OA
ATOM     28  O   UNL     1      29.946 -11.782 -21.610  0.00  0.00    -0.153 OA
BRANCH  26  29
ATOM     29  N   UNL     1      31.608 -10.693 -19.970  0.00  0.00    -0.203 NA
ATOM     30  H   UNL     1      31.024  -9.895 -19.726  0.00  0.00    +0.144 HD
ATOM     31  H   UNL     1      32.591 -10.432 -19.894  0.00  0.00    +0.144 HD
ENDBRANCH  26  29
ENDBRANCH  23  26
ENDBRANCH  18  20
ENDBRANCH   8  18
TORSDOF 5
ENDMDL
MODEL 5
REMARK VINA RESULT:      -9.0      9.199     14.356
REMARK  Name = 23586146
REMARK  5 active torsions:
REMARK  status: ('A' for Active; 'I' for Inactive)
REMARK    1  A    between atoms: N_1  and  C_12
REMARK    2  A    between atoms: C_8  and  N_18
REMARK    3  A    between atoms: N_18  and  C_20
REMARK    4  A    between atoms: C_23  and  S_26
REMARK    5  A    between atoms: S_26  and  N_29
REMARK                            x       y       z     vdW  Elec       q    Type
REMARK                         _______ _______ _______ _____ _____    ______ ____
ROOT
ATOM      1  N   UNL     1      34.099  -8.514 -24.001  0.00  0.00    -0.309 N 
ATOM      2  N   UNL     1      32.810  -9.585 -22.432  0.00  0.00    -0.321 NA
ATOM      3  N   UNL     1      32.496 -11.960 -22.614  0.00  0.00    -0.106 N 
ATOM      4  N   UNL     1      31.847 -12.949 -21.943  0.00  0.00    -0.139 NA
ATOM      5  N   UNL     1      31.502 -10.947 -20.914  0.00  0.00    -0.145 NA
ATOM      6  C   UNL     1      33.552  -9.640 -23.513  0.00  0.00    +0.196 C 
ATOM      7  C   UNL     1      33.825 -10.923 -24.250  0.00  0.00    +0.081 C 
ATOM      8  C   UNL     1      33.281 -12.050 -23.767  0.00  0.00    +0.140 C 
ATOM      9  C   UNL     1      32.271 -10.744 -21.966  0.00  0.00    +0.176 C 
ATOM     10  C   UNL     1      31.275 -12.284 -20.944  0.00  0.00    +0.230 C 
ATOM     11  H   UNL     1      34.639  -8.570 -24.821  0.00  0.00    +0.149 HD
ENDROOT
BRANCH   1  12
ATOM     12  C   UNL     1      33.927  -7.219 -23.370  0.00  0.00    +0.071 C 
ATOM     13  C   UNL     1      34.694  -6.147 -24.151  0.00  0.00    +0.020 C 
ATOM     14  C   UNL     1      32.437  -6.880 -23.265  0.00  0.00    +0.020 C 
ATOM     15  C   UNL     1      34.055  -5.829 -25.503  0.00  0.00    +0.002 C 
ATOM     16  C   UNL     1      31.806  -6.558 -24.619  0.00  0.00    +0.002 C 
ATOM     17  C   UNL     1      32.580  -5.470 -25.358  0.00  0.00    +0.000 C 
ENDBRANCH   1  12
BRANCH   8  18
ATOM     18  N   UNL     1      33.442 -13.283 -24.329  0.00  0.00    -0.299 N 
ATOM     19  H   UNL     1      33.121 -13.378 -25.255  0.00  0.00    +0.153 HD
BRANCH  18  20
ATOM     20  C   UNL     1      34.007 -14.429 -23.759  0.00  0.00    +0.049 C 
ATOM     21  C   UNL     1      34.098 -15.607 -24.503  0.00  0.00    +0.016 C 
ATOM     22  C   UNL     1      34.480 -14.396 -22.448  0.00  0.00    +0.016 C 
ATOM     23  C   UNL     1      35.134 -16.715 -22.622  0.00  0.00    +0.122 C 
ATOM     24  C   UNL     1      34.662 -16.749 -23.935  0.00  0.00    +0.021 C 
ATOM     25  C   UNL     1      35.044 -15.538 -21.880  0.00  0.00    +0.021 C 
BRANCH  23  26
ATOM     26  S   UNL     1      35.840 -18.145 -21.912  0.00  0.00    +0.057 S 
ATOM     27  O   UNL     1      37.038 -18.488 -22.665  0.00  0.00    -0.153 OA
ATOM     28  O   UNL     1      35.920 -17.955 -20.471  0.00  0.00    -0.153 OA
BRANCH  26  29
ATOM     29  N   UNL     1      34.630 -19.305 -22.245  0.00  0.00    -0.203 NA
ATOM     30  H   UNL     1      33.777 -18.832 -22.541  0.00  0.00    +0.144 HD
ATOM     31  H   UNL     1      34.442 -19.852 -21.405  0.00  0.00    +0.144 HD
ENDBRANCH  26  29
ENDBRANCH  23  26
ENDBRANCH  18  20
ENDBRANCH   8  18
TORSDOF 5
ENDMDL
MODEL 6
REMARK VINA RESULT:      -8.9     10.319     14.204
REMARK  Name = 23586146
REMARK  5 active torsions:
REMARK  status: ('A' for Active; 'I' for Inactive)
REMARK    1  A    between atoms: N_1  and  C_12
REMARK    2  A    between atoms: C_8  and  N_18
REMARK    3  A    between atoms: N_18  and  C_20
REMARK    4  A    between atoms: C_23  and  S_26
REMARK    5  A    between atoms: S_26  and  N_29
REMARK                            x       y       z     vdW  Elec       q    Type
REMARK                         _______ _______ _______ _____ _____    ______ ____
ROOT
ATOM      1  N   UNL     1      32.136  -8.757 -23.659  0.00  0.00    -0.309 N 
ATOM      2  N   UNL     1      31.650 -10.410 -22.142  0.00  0.00    -0.321 NA
ATOM      3  N   UNL     1      32.813 -12.506 -22.300  0.00  0.00    -0.106 N 
ATOM      4  N   UNL     1      32.840 -13.699 -21.647  0.00  0.00    -0.139 NA
ATOM      5  N   UNL     1      31.324 -12.308 -20.672  0.00  0.00    -0.145 NA
ATOM      6  C   UNL     1      32.336  -9.996 -23.182  0.00  0.00    +0.196 C 
ATOM      7  C   UNL     1      33.355 -10.856 -23.881  0.00  0.00    +0.081 C 
ATOM      8  C   UNL     1      33.558 -12.094 -23.408  0.00  0.00    +0.140 C 
ATOM      9  C   UNL     1      31.878 -11.671 -21.685  0.00  0.00    +0.176 C 
ATOM     10  C   UNL     1      31.934 -13.520 -20.691  0.00  0.00    +0.230 C 
ATOM     11  H   UNL     1      32.647  -8.468 -24.449  0.00  0.00    +0.149 HD
ENDROOT
BRANCH   1  12
ATOM     12  C   UNL     1      31.198  -7.826 -23.060  0.00  0.00    +0.071 C 
ATOM     13  C   UNL     1      31.869  -7.071 -21.908  0.00  0.00    +0.020 C 
ATOM     14  C   UNL     1      30.661  -6.864 -24.125  0.00  0.00    +0.020 C 
ATOM     15  C   UNL     1      32.915  -6.064 -22.389  0.00  0.00    +0.002 C 
ATOM     16  C   UNL     1      31.710  -5.858 -24.597  0.00  0.00    +0.002 C 
ATOM     17  C   UNL     1      32.339  -5.107 -23.427  0.00  0.00    +0.000 C 
ENDBRANCH   1  12
BRANCH   8  18
ATOM     18  N   UNL     1      34.447 -12.983 -23.940  0.00  0.00    -0.299 N 
ATOM     19  H   UNL     1      35.350 -12.633 -24.115  0.00  0.00    +0.153 HD
BRANCH  18  20
ATOM     20  C   UNL     1      34.240 -14.328 -24.266  0.00  0.00    +0.049 C 
ATOM     21  C   UNL     1      33.429 -14.665 -25.351  0.00  0.00    +0.016 C 
ATOM     22  C   UNL     1      34.843 -15.331 -23.508  0.00  0.00    +0.016 C 
ATOM     23  C   UNL     1      33.826 -17.009 -24.917  0.00  0.00    +0.122 C 
ATOM     24  C   UNL     1      33.223 -16.006 -25.677  0.00  0.00    +0.021 C 
ATOM     25  C   UNL     1      34.636 -16.671 -23.834  0.00  0.00    +0.021 C 
BRANCH  23  26
ATOM     26  S   UNL     1      33.567 -18.686 -25.326  0.00  0.00    +0.057 S 
ATOM     27  O   UNL     1      34.550 -19.072 -26.329  0.00  0.00    -0.153 OA
ATOM     28  O   UNL     1      33.454 -19.452 -24.092  0.00  0.00    -0.153 OA
BRANCH  26  29
ATOM     29  N   UNL     1      32.028 -18.608 -26.065  0.00  0.00    -0.203 NA
ATOM     30  H   UNL     1      31.971 -19.303 -26.808  0.00  0.00    +0.144 HD
ATOM     31  H   UNL     1      31.886 -17.677 -26.458  0.00  0.00    +0.144 HD
ENDBRANCH  26  29
ENDBRANCH  23  26
ENDBRANCH  18  20
ENDBRANCH   8  18
TORSDOF 5
ENDMDL
MODEL 7
REMARK VINA RESULT:      -8.8      4.495      8.495
REMARK  Name = 23586146
REMARK  5 active torsions:
REMARK  status: ('A' for Active; 'I' for Inactive)
REMARK    1  A    between atoms: N_1  and  C_12
REMARK    2  A    between atoms: C_8  and  N_18
REMARK    3  A    between atoms: N_18  and  C_20
REMARK    4  A    between atoms: C_23  and  S_26
REMARK    5  A    between atoms: S_26  and  N_29
REMARK                            x       y       z     vdW  Elec       q    Type
REMARK                         _______ _______ _______ _____ _____    ______ ____
ROOT
ATOM      1  N   UNL     1      35.648 -20.312 -20.713  0.00  0.00    -0.309 N 
ATOM      2  N   UNL     1      34.135 -21.535 -19.493  0.00  0.00    -0.321 NA
ATOM      3  N   UNL     1      34.926 -22.838 -17.637  0.00  0.00    -0.106 N 
ATOM      4  N   UNL     1      34.409 -23.668 -16.691  0.00  0.00    -0.139 NA
ATOM      5  N   UNL     1      32.752 -22.907 -18.054  0.00  0.00    -0.145 NA
ATOM      6  C   UNL     1      35.373 -21.150 -19.700  0.00  0.00    +0.196 C 
ATOM      7  C   UNL     1      36.522 -21.609 -18.844  0.00  0.00    +0.081 C 
ATOM      8  C   UNL     1      36.253 -22.447 -17.832  0.00  0.00    +0.140 C 
ATOM      9  C   UNL     1      33.892 -22.385 -18.459  0.00  0.00    +0.176 C 
ATOM     10  C   UNL     1      33.114 -23.669 -16.991  0.00  0.00    +0.230 C 
ATOM     11  H   UNL     1      36.583 -20.046 -20.863  0.00  0.00    +0.149 HD
ENDROOT
BRANCH   1  12
ATOM     12  C   UNL     1      34.624 -19.782 -21.595  0.00  0.00    +0.071 C 
ATOM     13  C   UNL     1      34.139 -18.423 -21.081  0.00  0.00    +0.020 C 
ATOM     14  C   UNL     1      35.164 -19.682 -23.025  0.00  0.00    +0.020 C 
ATOM     15  C   UNL     1      35.182 -17.318 -21.252  0.00  0.00    +0.002 C 
ATOM     16  C   UNL     1      36.203 -18.573 -23.189  0.00  0.00    +0.002 C 
ATOM     17  C   UNL     1      35.678 -17.230 -22.691  0.00  0.00    +0.000 C 
ENDBRANCH   1  12
BRANCH   8  18
ATOM     18  N   UNL     1      37.193 -22.944 -16.976  0.00  0.00    -0.299 N 
ATOM     19  H   UNL     1      38.118 -22.951 -17.311  0.00  0.00    +0.153 HD
BRANCH  18  20
ATOM     20  C   UNL     1      37.009 -23.445 -15.682  0.00  0.00    +0.049 C 
ATOM     21  C   UNL     1      37.080 -24.820 -15.449  0.00  0.00    +0.016 C 
ATOM     22  C   UNL     1      36.755 -22.572 -14.625  0.00  0.00    +0.016 C 
ATOM     23  C   UNL     1      36.643 -24.444 -13.103  0.00  0.00    +0.122 C 
ATOM     24  C   UNL     1      36.898 -25.319 -14.160  0.00  0.00    +0.021 C 
ATOM     25  C   UNL     1      36.572 -23.072 -13.336  0.00  0.00    +0.021 C 
BRANCH  23  26
ATOM     26  S   UNL     1      36.415 -25.070 -11.489  0.00  0.00    +0.057 S 
ATOM     27  O   UNL     1      37.289 -24.337 -10.584  0.00  0.00    -0.153 OA
ATOM     28  O   UNL     1      34.986 -25.141 -11.217  0.00  0.00    -0.153 OA
BRANCH  26  29
ATOM     29  N   UNL     1      37.018 -26.660 -11.668  0.00  0.00    -0.203 NA
ATOM     30  H   UNL     1      37.308 -27.018 -10.759  0.00  0.00    +0.144 HD
ATOM     31  H   UNL     1      37.818 -26.651 -12.301  0.00  0.00    +0.144 HD
ENDBRANCH  26  29
ENDBRANCH  23  26
ENDBRANCH  18  20
ENDBRANCH   8  18
TORSDOF 5
ENDMDL
MODEL 8
REMARK VINA RESULT:      -8.8      6.079     11.506
REMARK  Name = 23586146
REMARK  5 active torsions:
REMARK  status: ('A' for Active; 'I' for Inactive)
REMARK    1  A    between atoms: N_1  and  C_12
REMARK    2  A    between atoms: C_8  and  N_18
REMARK    3  A    between atoms: N_18  and  C_20
REMARK    4  A    between atoms: C_23  and  S_26
REMARK    5  A    between atoms: S_26  and  N_29
REMARK                            x       y       z     vdW  Elec       q    Type
REMARK                         _______ _______ _______ _____ _____    ______ ____
ROOT
ATOM      1  N   UNL     1      33.148 -12.973 -22.362  0.00  0.00    -0.309 N 
ATOM      2  N   UNL     1      33.012 -14.362 -24.184  0.00  0.00    -0.321 NA
ATOM      3  N   UNL     1      34.418 -16.308 -24.266  0.00  0.00    -0.106 N 
ATOM      4  N   UNL     1      34.655 -17.350 -25.107  0.00  0.00    -0.139 NA
ATOM      5  N   UNL     1      33.063 -15.980 -25.987  0.00  0.00    -0.145 NA
ATOM      6  C   UNL     1      33.546 -14.073 -23.021  0.00  0.00    +0.196 C 
ATOM      7  C   UNL     1      34.603 -14.927 -22.375  0.00  0.00    +0.081 C 
ATOM      8  C   UNL     1      35.005 -16.027 -23.029  0.00  0.00    +0.140 C 
ATOM      9  C   UNL     1      33.440 -15.484 -24.825  0.00  0.00    +0.176 C 
ATOM     10  C   UNL     1      33.820 -17.099 -26.111  0.00  0.00    +0.230 C 
ATOM     11  H   UNL     1      33.569 -12.762 -21.498  0.00  0.00    +0.149 HD
ENDROOT
BRANCH   1  12
ATOM     12  C   UNL     1      32.121 -12.081 -22.869  0.00  0.00    +0.071 C 
ATOM     13  C   UNL     1      31.201 -11.636 -21.729  0.00  0.00    +0.020 C 
ATOM     14  C   UNL     1      32.767 -10.882 -23.570  0.00  0.00    +0.020 C 
ATOM     15  C   UNL     1      31.884 -10.670 -20.759  0.00  0.00    +0.002 C 
ATOM     16  C   UNL     1      33.444  -9.920 -22.595  0.00  0.00    +0.002 C 
ATOM     17  C   UNL     1      32.492  -9.477 -21.488  0.00  0.00    +0.000 C 
ENDBRANCH   1  12
BRANCH   8  18
ATOM     18  N   UNL     1      35.953 -16.893 -22.566  0.00  0.00    -0.299 N 
ATOM     19  H   UNL     1      36.888 -16.647 -22.754  0.00  0.00    +0.153 HD
BRANCH  18  20
ATOM     20  C   UNL     1      35.768 -18.086 -21.858  0.00  0.00    +0.049 C 
ATOM     21  C   UNL     1      36.856 -18.713 -21.250  0.00  0.00    +0.016 C 
ATOM     22  C   UNL     1      34.495 -18.648 -21.759  0.00  0.00    +0.016 C 
ATOM     23  C   UNL     1      35.397 -20.463 -20.446  0.00  0.00    +0.122 C 
ATOM     24  C   UNL     1      36.670 -19.901 -20.544  0.00  0.00    +0.021 C 
ATOM     25  C   UNL     1      34.310 -19.836 -21.054  0.00  0.00    +0.021 C 
BRANCH  23  26
ATOM     26  S   UNL     1      35.166 -21.951 -19.562  0.00  0.00    +0.057 S 
ATOM     27  O   UNL     1      33.861 -21.905 -18.919  0.00  0.00    -0.153 OA
ATOM     28  O   UNL     1      35.503 -23.066 -20.436  0.00  0.00    -0.153 OA
BRANCH  26  29
ATOM     29  N   UNL     1      36.376 -21.809 -18.363  0.00  0.00    -0.203 NA
ATOM     30  H   UNL     1      36.027 -21.241 -17.593  0.00  0.00    +0.144 HD
ATOM     31  H   UNL     1      37.202 -21.366 -18.765  0.00  0.00    +0.144 HD
ENDBRANCH  26  29
ENDBRANCH  23  26
ENDBRANCH  18  20
ENDBRANCH   8  18
TORSDOF 5
ENDMDL
