MODEL 1
REMARK VINA RESULT:     -11.6      0.000      0.000
REMARK  Name = 24878044
REMARK  6 active torsions:
REMARK  status: ('A' for Active; 'I' for Inactive)
REMARK    1  A    between atoms: N_2  and  C_6
REMARK    2  A    between atoms: C_3  and  C_18
REMARK    3  A    between atoms: C_7  and  S_12
REMARK    4  A    between atoms: S_12  and  N_15
REMARK    5  A    between atoms: C_18  and  S_19
REMARK    6  A    between atoms: S_19  and  C_31
REMARK                            x       y       z     vdW  Elec       q    Type
REMARK                         _______ _______ _______ _____ _____    ______ ____
ROOT
ATOM      1  O   UNL     1      34.586 -19.601 -24.353  0.00  0.00    -0.274 OA
ATOM      2  N   UNL     1      34.759 -18.563 -22.251  0.00  0.00    -0.283 N 
ATOM      3  C   UNL     1      34.736 -18.611 -23.640  0.00  0.00    +0.238 C 
ATOM      4  H   UNL     1      34.905 -17.677 -21.849  0.00  0.00    +0.155 HD
ENDROOT
BRANCH   2   6
ATOM      5 CL   UNL     1      37.293 -19.626 -20.934  0.00  0.00    -0.081 Cl
ATOM      6  C   UNL     1      34.596 -19.642 -21.349  0.00  0.00    +0.061 C 
ATOM      7  C   UNL     1      34.206 -21.766 -19.584  0.00  0.00    +0.123 C 
ATOM      8  C   UNL     1      35.686 -20.208 -20.688  0.00  0.00    +0.072 C 
ATOM      9  C   UNL     1      33.311 -20.138 -21.128  0.00  0.00    +0.017 C 
ATOM     10  C   UNL     1      35.490 -21.270 -19.805  0.00  0.00    +0.033 C 
ATOM     11  C   UNL     1      33.115 -21.200 -20.244  0.00  0.00    +0.021 C 
BRANCH   7  12
ATOM     12  S   UNL     1      33.960 -23.095 -18.478  0.00  0.00    +0.057 S 
ATOM     13  O   UNL     1      33.920 -24.331 -19.247  0.00  0.00    -0.153 OA
ATOM     14  O   UNL     1      34.901 -22.959 -17.375  0.00  0.00    -0.153 OA
BRANCH  12  15
ATOM     15  N   UNL     1      32.388 -22.754 -17.903  0.00  0.00    -0.203 NA
ATOM     16  H   UNL     1      32.285 -21.747 -17.773  0.00  0.00    +0.144 HD
ATOM     17  H   UNL     1      32.240 -23.229 -17.013  0.00  0.00    +0.144 HD
ENDBRANCH  12  15
ENDBRANCH   7  12
ENDBRANCH   2   6
BRANCH   3  18
ATOM     18  C   UNL     1      34.947 -17.245 -24.258  0.00  0.00    +0.152 C 
BRANCH  18  19
ATOM     19  S   UNL     1      35.074 -16.021 -22.937  0.00  0.00    -0.047 S 
BRANCH  19  31
ATOM     20  O   UNL     1      33.783 -14.688 -24.765  0.00  0.00    -0.262 OA
ATOM     21  N   UNL     1      33.500 -13.843 -22.590  0.00  0.00    -0.250 N 
ATOM     22  C   UNL     1      31.940 -13.679 -20.657  0.00  0.00    +0.027 C 
ATOM     23  C   UNL     1      32.018 -12.168 -20.661  0.00  0.00    +0.029 C 
ATOM     24  C   UNL     1      33.238 -14.257 -21.195  0.00  0.00    +0.099 C 
ATOM     25  C   UNL     1      32.483 -11.651 -21.996  0.00  0.00    -0.009 C 
ATOM     26  C   UNL     1      33.199 -12.459 -22.910  0.00  0.00    +0.051 C 
ATOM     27  C   UNL     1      32.217 -10.302 -22.297  0.00  0.00    -0.007 C 
ATOM     28  C   UNL     1      33.639 -11.857 -24.104  0.00  0.00    +0.014 C 
ATOM     29  C   UNL     1      32.643  -9.741 -23.495  0.00  0.00    -0.022 C 
ATOM     30  C   UNL     1      33.358 -10.518 -24.395  0.00  0.00    -0.003 C 
ATOM     31  C   UNL     1      34.007 -14.739 -23.559  0.00  0.00    +0.280 C 
ATOM     32  C   UNL     1      32.321  -8.322 -23.816  0.00  0.00    +0.031 C 
ENDBRANCH  19  31
ENDBRANCH  18  19
ENDBRANCH   3  18
TORSDOF 6
ENDMDL
MODEL 2
REMARK VINA RESULT:     -11.6      1.026      2.220
REMARK  Name = 24878044
REMARK  6 active torsions:
REMARK  status: ('A' for Active; 'I' for Inactive)
REMARK    1  A    between atoms: N_2  and  C_6
REMARK    2  A    between atoms: C_3  and  C_18
REMARK    3  A    between atoms: C_7  and  S_12
REMARK    4  A    between atoms: S_12  and  N_15
REMARK    5  A    between atoms: C_18  and  S_19
REMARK    6  A    between atoms: S_19  and  C_31
REMARK                            x       y       z     vdW  Elec       q    Type
REMARK                         _______ _______ _______ _____ _____    ______ ____
ROOT
ATOM      1  O   UNL     1      34.251 -19.008 -24.525  0.00  0.00    -0.274 OA
ATOM      2  N   UNL     1      35.186 -18.273 -22.498  0.00  0.00    -0.283 N 
ATOM      3  C   UNL     1      34.833 -18.172 -23.839  0.00  0.00    +0.238 C 
ATOM      4  H   UNL     1      35.664 -17.503 -22.115  0.00  0.00    +0.155 HD
ENDROOT
BRANCH   2   6
ATOM      5 CL   UNL     1      37.613 -19.485 -21.110  0.00  0.00    -0.081 Cl
ATOM      6  C   UNL     1      34.936 -19.356 -21.621  0.00  0.00    +0.061 C 
ATOM      7  C   UNL     1      34.373 -21.483 -19.907  0.00  0.00    +0.123 C 
ATOM      8  C   UNL     1      35.970 -19.988 -20.932  0.00  0.00    +0.072 C 
ATOM      9  C   UNL     1      33.620 -19.788 -21.454  0.00  0.00    +0.017 C 
ATOM     10  C   UNL     1      35.689 -21.051 -20.074  0.00  0.00    +0.033 C 
ATOM     11  C   UNL     1      33.338 -20.851 -20.596  0.00  0.00    +0.021 C 
BRANCH   7  12
ATOM     12  S   UNL     1      34.020 -22.815 -18.834  0.00  0.00    +0.057 S 
ATOM     13  O   UNL     1      33.955 -24.036 -19.623  0.00  0.00    -0.153 OA
ATOM     14  O   UNL     1      34.919 -22.738 -17.691  0.00  0.00    -0.153 OA
BRANCH  12  15
ATOM     15  N   UNL     1      32.442 -22.408 -18.319  0.00  0.00    -0.203 NA
ATOM     16  H   UNL     1      32.495 -21.675 -17.610  0.00  0.00    +0.144 HD
ATOM     17  H   UNL     1      31.990 -23.232 -17.924  0.00  0.00    +0.144 HD
ENDBRANCH  12  15
ENDBRANCH   7  12
ENDBRANCH   2   6
BRANCH   3  18
ATOM     18  C   UNL     1      35.275 -16.856 -24.444  0.00  0.00    +0.152 C 
BRANCH  18  19
ATOM     19  S   UNL     1      33.816 -15.832 -24.740  0.00  0.00    -0.047 S 
BRANCH  19  31
ATOM     20  O   UNL     1      34.314 -15.114 -22.287  0.00  0.00    -0.262 OA
ATOM     21  N   UNL     1      33.493 -13.377 -23.640  0.00  0.00    -0.250 N 
ATOM     22  C   UNL     1      34.100 -11.316 -24.898  0.00  0.00    +0.027 C 
ATOM     23  C   UNL     1      33.072 -10.498 -24.145  0.00  0.00    +0.029 C 
ATOM     24  C   UNL     1      33.639 -12.761 -24.977  0.00  0.00    +0.099 C 
ATOM     25  C   UNL     1      32.697 -11.158 -22.845  0.00  0.00    -0.009 C 
ATOM     26  C   UNL     1      32.896 -12.540 -22.616  0.00  0.00    +0.051 C 
ATOM     27  C   UNL     1      32.093 -10.354 -21.861  0.00  0.00    -0.007 C 
ATOM     28  C   UNL     1      32.453 -13.065 -21.387  0.00  0.00    +0.014 C 
ATOM     29  C   UNL     1      31.688 -10.896 -20.647  0.00  0.00    -0.022 C 
ATOM     30  C   UNL     1      31.864 -12.252 -20.413  0.00  0.00    -0.003 C 
ATOM     31  C   UNL     1      33.914 -14.700 -23.370  0.00  0.00    +0.280 C 
ATOM     32  C   UNL     1      31.083 -10.025 -19.600  0.00  0.00    +0.031 C 
ENDBRANCH  19  31
ENDBRANCH  18  19
ENDBRANCH   3  18
TORSDOF 6
ENDMDL
MODEL 3
REMARK VINA RESULT:     -10.6      3.372     10.032
REMARK  Name = 24878044
REMARK  6 active torsions:
REMARK  status: ('A' for Active; 'I' for Inactive)
REMARK    1  A    between atoms: N_2  and  C_6
REMARK    2  A    between atoms: C_3  and  C_18
REMARK    3  A    between atoms: C_7  and  S_12
REMARK    4  A    between atoms: S_12  and  N_15
REMARK    5  A    between atoms: C_18  and  S_19
REMARK    6  A    between atoms: S_19  and  C_31
REMARK                            x       y       z     vdW  Elec       q    Type
REMARK                         _______ _______ _______ _____ _____    ______ ____
ROOT
ATOM      1  O   UNL     1      32.984 -14.397 -26.246  0.00  0.00    -0.274 OA
ATOM      2  N   UNL     1      33.603 -14.200 -23.988  0.00  0.00    -0.283 N 
ATOM      3  C   UNL     1      33.384 -14.871 -25.186  0.00  0.00    +0.238 C 
ATOM      4  H   UNL     1      33.914 -14.749 -23.232  0.00  0.00    +0.155 HD
ENDROOT
BRANCH   2   6
ATOM      5 CL   UNL     1      32.019 -13.471 -21.488  0.00  0.00    -0.081 Cl
ATOM      6  C   UNL     1      33.431 -12.819 -23.730  0.00  0.00    +0.061 C 
ATOM      7  C   UNL     1      33.130 -10.082 -23.282  0.00  0.00    +0.123 C 
ATOM      8  C   UNL     1      32.724 -12.369 -22.616  0.00  0.00    +0.072 C 
ATOM      9  C   UNL     1      33.987 -11.900 -24.621  0.00  0.00    +0.017 C 
ATOM     10  C   UNL     1      32.574 -11.000 -22.391  0.00  0.00    +0.033 C 
ATOM     11  C   UNL     1      33.838 -10.532 -24.397  0.00  0.00    +0.021 C 
BRANCH   7  12
ATOM     12  S   UNL     1      32.943  -8.369 -23.001  0.00  0.00    +0.057 S 
ATOM     13  O   UNL     1      34.226  -7.722 -23.230  0.00  0.00    -0.153 OA
ATOM     14  O   UNL     1      31.762  -7.909 -23.719  0.00  0.00    -0.153 OA
BRANCH  12  15
ATOM     15  N   UNL     1      32.607  -8.349 -21.325  0.00  0.00    -0.203 NA
ATOM     16  H   UNL     1      31.975  -9.116 -21.096  0.00  0.00    +0.144 HD
ATOM     17  H   UNL     1      32.171  -7.462 -21.076  0.00  0.00    +0.144 HD
ENDBRANCH  12  15
ENDBRANCH   7  12
ENDBRANCH   2   6
BRANCH   3  18
ATOM     18  C   UNL     1      33.679 -16.351 -25.069  0.00  0.00    +0.152 C 
BRANCH  18  19
ATOM     19  S   UNL     1      34.933 -16.596 -23.791  0.00  0.00    -0.047 S 
BRANCH  19  31
ATOM     20  O   UNL     1      33.753 -18.914 -23.930  0.00  0.00    -0.262 OA
ATOM     21  N   UNL     1      35.382 -18.773 -22.242  0.00  0.00    -0.250 N 
ATOM     22  C   UNL     1      37.692 -19.426 -21.581  0.00  0.00    +0.027 C 
ATOM     23  C   UNL     1      37.195 -20.078 -20.309  0.00  0.00    +0.029 C 
ATOM     24  C   UNL     1      36.756 -18.296 -21.972  0.00  0.00    +0.099 C 
ATOM     25  C   UNL     1      35.731 -20.418 -20.409  0.00  0.00    -0.009 C 
ATOM     26  C   UNL     1      34.870 -19.782 -21.332  0.00  0.00    +0.051 C 
ATOM     27  C   UNL     1      35.227 -21.377 -19.509  0.00  0.00    -0.007 C 
ATOM     28  C   UNL     1      33.507 -20.133 -21.298  0.00  0.00    +0.014 C 
ATOM     29  C   UNL     1      33.881 -21.721 -19.516  0.00  0.00    -0.022 C 
ATOM     30  C   UNL     1      33.021 -21.095 -20.407  0.00  0.00    -0.003 C 
ATOM     31  C   UNL     1      34.612 -18.283 -23.322  0.00  0.00    +0.280 C 
ATOM     32  C   UNL     1      33.368 -22.765 -18.583  0.00  0.00    +0.031 C 
ENDBRANCH  19  31
ENDBRANCH  18  19
ENDBRANCH   3  18
TORSDOF 6
ENDMDL
MODEL 4
REMARK VINA RESULT:     -10.4      4.005     11.100
REMARK  Name = 24878044
REMARK  6 active torsions:
REMARK  status: ('A' for Active; 'I' for Inactive)
REMARK    1  A    between atoms: N_2  and  C_6
REMARK    2  A    between atoms: C_3  and  C_18
REMARK    3  A    between atoms: C_7  and  S_12
REMARK    4  A    between atoms: S_12  and  N_15
REMARK    5  A    between atoms: C_18  and  S_19
REMARK    6  A    between atoms: S_19  and  C_31
REMARK                            x       y       z     vdW  Elec       q    Type
REMARK                         _______ _______ _______ _____ _____    ______ ____
ROOT
ATOM      1  O   UNL     1      34.359 -20.121 -21.239  0.00  0.00    -0.274 OA
ATOM      2  N   UNL     1      35.986 -18.455 -20.920  0.00  0.00    -0.283 N 
ATOM      3  C   UNL     1      35.453 -19.736 -20.834  0.00  0.00    +0.238 C 
ATOM      4  H   UNL     1      36.878 -18.327 -20.525  0.00  0.00    +0.155 HD
ENDROOT
BRANCH   2   6
ATOM      5 CL   UNL     1      35.594 -18.538 -23.941  0.00  0.00    -0.081 Cl
ATOM      6  C   UNL     1      35.392 -17.314 -21.510  0.00  0.00    +0.061 C 
ATOM      7  C   UNL     1      34.217 -15.035 -22.610  0.00  0.00    +0.123 C 
ATOM      8  C   UNL     1      35.165 -17.241 -22.884  0.00  0.00    +0.072 C 
ATOM      9  C   UNL     1      35.033 -16.247 -20.686  0.00  0.00    +0.017 C 
ATOM     10  C   UNL     1      34.577 -16.101 -23.434  0.00  0.00    +0.033 C 
ATOM     11  C   UNL     1      34.445 -15.107 -21.235  0.00  0.00    +0.021 C 
BRANCH   7  12
ATOM     12  S   UNL     1      33.482 -13.608 -23.297  0.00  0.00    +0.057 S 
ATOM     13  O   UNL     1      32.360 -13.219 -22.456  0.00  0.00    -0.153 OA
ATOM     14  O   UNL     1      34.532 -12.645 -23.596  0.00  0.00    -0.153 OA
BRANCH  12  15
ATOM     15  N   UNL     1      32.876 -14.232 -24.769  0.00  0.00    -0.203 NA
ATOM     16  H   UNL     1      33.022 -15.242 -24.795  0.00  0.00    +0.144 HD
ATOM     17  H   UNL     1      33.366 -13.797 -25.550  0.00  0.00    +0.144 HD
ENDBRANCH  12  15
ENDBRANCH   7  12
ENDBRANCH   2   6
BRANCH   3  18
ATOM     18  C   UNL     1      36.390 -20.693 -20.128  0.00  0.00    +0.152 C 
BRANCH  18  19
ATOM     19  S   UNL     1      35.421 -22.044 -19.421  0.00  0.00    -0.047 S 
BRANCH  19  31
ATOM     20  O   UNL     1      36.972 -21.328 -17.455  0.00  0.00    -0.262 OA
ATOM     21  N   UNL     1      35.387 -22.963 -16.873  0.00  0.00    -0.250 N 
ATOM     22  C   UNL     1      33.240 -23.386 -15.687  0.00  0.00    +0.027 C 
ATOM     23  C   UNL     1      33.874 -24.454 -14.820  0.00  0.00    +0.029 C 
ATOM     24  C   UNL     1      33.961 -23.321 -17.022  0.00  0.00    +0.099 C 
ATOM     25  C   UNL     1      35.370 -24.297 -14.772  0.00  0.00    -0.009 C 
ATOM     26  C   UNL     1      36.087 -23.587 -15.764  0.00  0.00    +0.051 C 
ATOM     27  C   UNL     1      36.053 -24.924 -13.713  0.00  0.00    -0.007 C 
ATOM     28  C   UNL     1      37.490 -23.555 -15.654  0.00  0.00    +0.014 C 
ATOM     29  C   UNL     1      37.438 -24.854 -13.617  0.00  0.00    -0.022 C 
ATOM     30  C   UNL     1      38.155 -24.173 -14.590  0.00  0.00    -0.003 C 
ATOM     31  C   UNL     1      36.035 -22.063 -17.751  0.00  0.00    +0.280 C 
ATOM     32  C   UNL     1      38.144 -25.492 -12.470  0.00  0.00    +0.031 C 
ENDBRANCH  19  31
ENDBRANCH  18  19
ENDBRANCH   3  18
TORSDOF 6
ENDMDL
MODEL 5
REMARK VINA RESULT:     -10.4      5.847     12.268
REMARK  Name = 24878044
REMARK  6 active torsions:
REMARK  status: ('A' for Active; 'I' for Inactive)
REMARK    1  A    between atoms: N_2  and  C_6
REMARK    2  A    between atoms: C_3  and  C_18
REMARK    3  A    between atoms: C_7  and  S_12
REMARK    4  A    between atoms: S_12  and  N_15
REMARK    5  A    between atoms: C_18  and  S_19
REMARK    6  A    between atoms: S_19  and  C_31
REMARK                            x       y       z     vdW  Elec       q    Type
REMARK                         _______ _______ _______ _____ _____    ______ ____
ROOT
ATOM      1  O   UNL     1      33.830  -9.251 -23.650  0.00  0.00    -0.274 OA
ATOM      2  N   UNL     1      31.743  -8.836 -22.651  0.00  0.00    -0.283 N 
ATOM      3  C   UNL     1      32.826  -9.616 -23.044  0.00  0.00    +0.238 C 
ATOM      4  H   UNL     1      31.016  -9.306 -22.182  0.00  0.00    +0.155 HD
ENDROOT
BRANCH   2   6
ATOM      5 CL   UNL     1      32.312  -7.045 -20.252  0.00  0.00    -0.081 Cl
ATOM      6  C   UNL     1      31.568  -7.445 -22.847  0.00  0.00    +0.061 C 
ATOM      7  C   UNL     1      31.204  -4.717 -23.300  0.00  0.00    +0.123 C 
ATOM      8  C   UNL     1      31.799  -6.531 -21.820  0.00  0.00    +0.072 C 
ATOM      9  C   UNL     1      31.154  -6.995 -24.101  0.00  0.00    +0.017 C 
ATOM     10  C   UNL     1      31.618  -5.167 -22.047  0.00  0.00    +0.033 C 
ATOM     11  C   UNL     1      30.972  -5.631 -24.328  0.00  0.00    +0.021 C 
BRANCH   7  12
ATOM     12  S   UNL     1      30.976  -3.010 -23.585  0.00  0.00    +0.057 S 
ATOM     13  O   UNL     1      32.280  -2.362 -23.561  0.00  0.00    -0.153 OA
ATOM     14  O   UNL     1      30.107  -2.845 -24.742  0.00  0.00    -0.153 OA
BRANCH  12  15
ATOM     15  N   UNL     1      30.112  -2.559 -22.181  0.00  0.00    -0.203 NA
ATOM     16  H   UNL     1      30.029  -3.364 -21.560  0.00  0.00    +0.144 HD
ATOM     17  H   UNL     1      29.181  -2.234 -22.444  0.00  0.00    +0.144 HD
ENDBRANCH  12  15
ENDBRANCH   7  12
ENDBRANCH   2   6
BRANCH   3  18
ATOM     18  C   UNL     1      32.649 -11.068 -22.655  0.00  0.00    +0.152 C 
BRANCH  18  19
ATOM     19  S   UNL     1      33.617 -12.096 -23.782  0.00  0.00    -0.047 S 
BRANCH  19  31
ATOM     20  O   UNL     1      33.034 -13.738 -21.845  0.00  0.00    -0.262 OA
ATOM     21  N   UNL     1      33.978 -14.781 -23.728  0.00  0.00    -0.250 N 
ATOM     22  C   UNL     1      33.504 -16.181 -25.731  0.00  0.00    +0.027 C 
ATOM     23  C   UNL     1      34.525 -17.216 -25.308  0.00  0.00    +0.029 C 
ATOM     24  C   UNL     1      33.915 -14.817 -25.205  0.00  0.00    +0.099 C 
ATOM     25  C   UNL     1      34.816 -17.121 -23.834  0.00  0.00    -0.009 C 
ATOM     26  C   UNL     1      34.558 -15.948 -23.088  0.00  0.00    +0.051 C 
ATOM     27  C   UNL     1      35.404 -18.241 -23.217  0.00  0.00    -0.007 C 
ATOM     28  C   UNL     1      34.926 -15.948 -21.729  0.00  0.00    +0.014 C 
ATOM     29  C   UNL     1      35.734 -18.221 -21.867  0.00  0.00    -0.022 C 
ATOM     30  C   UNL     1      35.499 -17.072 -21.126  0.00  0.00    -0.003 C 
ATOM     31  C   UNL     1      33.498 -13.681 -22.980  0.00  0.00    +0.280 C 
ATOM     32  C   UNL     1      36.321 -19.427 -21.219  0.00  0.00    +0.031 C 
ENDBRANCH  19  31
ENDBRANCH  18  19
ENDBRANCH   3  18
TORSDOF 6
ENDMDL
MODEL 6
REMARK VINA RESULT:     -10.3      5.769     11.925
REMARK  Name = 24878044
REMARK  6 active torsions:
REMARK  status: ('A' for Active; 'I' for Inactive)
REMARK    1  A    between atoms: N_2  and  C_6
REMARK    2  A    between atoms: C_3  and  C_18
REMARK    3  A    between atoms: C_7  and  S_12
REMARK    4  A    between atoms: S_12  and  N_15
REMARK    5  A    between atoms: C_18  and  S_19
REMARK    6  A    between atoms: S_19  and  C_31
REMARK                            x       y       z     vdW  Elec       q    Type
REMARK                         _______ _______ _______ _____ _____    ______ ____
ROOT
ATOM      1  O   UNL     1      31.896 -22.383 -18.020  0.00  0.00    -0.274 OA
ATOM      2  N   UNL     1      34.190 -22.720 -18.403  0.00  0.00    -0.283 N 
ATOM      3  C   UNL     1      32.954 -22.975 -17.821  0.00  0.00    +0.238 C 
ATOM      4  H   UNL     1      34.936 -23.292 -18.111  0.00  0.00    +0.155 HD
ENDROOT
BRANCH   2   6
ATOM      5 CL   UNL     1      37.121 -21.919 -18.635  0.00  0.00    -0.081 Cl
ATOM      6  C   UNL     1      34.500 -21.732 -19.369  0.00  0.00    +0.061 C 
ATOM      7  C   UNL     1      35.041 -19.783 -21.290  0.00  0.00    +0.123 C 
ATOM      8  C   UNL     1      35.807 -21.288 -19.563  0.00  0.00    +0.072 C 
ATOM      9  C   UNL     1      33.462 -21.201 -20.136  0.00  0.00    +0.017 C 
ATOM     10  C   UNL     1      36.078 -20.314 -20.524  0.00  0.00    +0.033 C 
ATOM     11  C   UNL     1      33.732 -20.227 -21.097  0.00  0.00    +0.021 C 
BRANCH   7  12
ATOM     12  S   UNL     1      35.379 -18.563 -22.493  0.00  0.00    +0.057 S 
ATOM     13  O   UNL     1      34.843 -19.015 -23.769  0.00  0.00    -0.153 OA
ATOM     14  O   UNL     1      34.984 -17.267 -21.960  0.00  0.00    -0.153 OA
BRANCH  12  15
ATOM     15  N   UNL     1      37.085 -18.634 -22.556  0.00  0.00    -0.203 NA
ATOM     16  H   UNL     1      37.455 -17.711 -22.788  0.00  0.00    +0.144 HD
ATOM     17  H   UNL     1      37.372 -19.304 -23.269  0.00  0.00    +0.144 HD
ENDBRANCH  12  15
ENDBRANCH   7  12
ENDBRANCH   2   6
BRANCH   3  18
ATOM     18  C   UNL     1      33.020 -24.116 -16.828  0.00  0.00    +0.152 C 
BRANCH  18  19
ATOM     19  S   UNL     1      33.127 -23.432 -15.160  0.00  0.00    -0.047 S 
BRANCH  19  31
ATOM     20  O   UNL     1      35.535 -22.613 -15.722  0.00  0.00    -0.262 OA
ATOM     21  N   UNL     1      35.433 -24.093 -13.899  0.00  0.00    -0.250 N 
ATOM     22  C   UNL     1      35.534 -24.277 -11.418  0.00  0.00    +0.027 C 
ATOM     23  C   UNL     1      36.659 -25.287 -11.492  0.00  0.00    +0.029 C 
ATOM     24  C   UNL     1      34.672 -24.384 -12.665  0.00  0.00    +0.099 C 
ATOM     25  C   UNL     1      37.374 -25.209 -12.814  0.00  0.00    -0.009 C 
ATOM     26  C   UNL     1      36.775 -24.642 -13.964  0.00  0.00    +0.051 C 
ATOM     27  C   UNL     1      38.665 -25.766 -12.886  0.00  0.00    -0.007 C 
ATOM     28  C   UNL     1      37.510 -24.677 -15.163  0.00  0.00    +0.014 C 
ATOM     29  C   UNL     1      39.377 -25.764 -14.080  0.00  0.00    -0.022 C 
ATOM     30  C   UNL     1      38.797 -25.223 -15.218  0.00  0.00    -0.003 C 
ATOM     31  C   UNL     1      34.892 -23.321 -14.953  0.00  0.00    +0.280 C 
ATOM     32  C   UNL     1      40.757 -26.323 -14.132  0.00  0.00    +0.031 C 
ENDBRANCH  19  31
ENDBRANCH  18  19
ENDBRANCH   3  18
TORSDOF 6
ENDMDL
MODEL 7
REMARK VINA RESULT:     -10.3      4.430      6.741
REMARK  Name = 24878044
REMARK  6 active torsions:
REMARK  status: ('A' for Active; 'I' for Inactive)
REMARK    1  A    between atoms: N_2  and  C_6
REMARK    2  A    between atoms: C_3  and  C_18
REMARK    3  A    between atoms: C_7  and  S_12
REMARK    4  A    between atoms: S_12  and  N_15
REMARK    5  A    between atoms: C_18  and  S_19
REMARK    6  A    between atoms: S_19  and  C_31
REMARK                            x       y       z     vdW  Elec       q    Type
REMARK                         _______ _______ _______ _____ _____    ______ ____
ROOT
ATOM      1  O   UNL     1      35.040 -22.777 -18.062  0.00  0.00    -0.274 OA
ATOM      2  N   UNL     1      37.078 -22.352 -16.972  0.00  0.00    -0.283 N 
ATOM      3  C   UNL     1      36.164 -22.285 -18.018  0.00  0.00    +0.238 C 
ATOM      4  H   UNL     1      37.943 -21.905 -17.121  0.00  0.00    +0.155 HD
ENDROOT
BRANCH   2   6
ATOM      5 CL   UNL     1      39.407 -24.050 -15.982  0.00  0.00    -0.081 Cl
ATOM      6  C   UNL     1      36.907 -22.987 -15.719  0.00  0.00    +0.061 C 
ATOM      7  C   UNL     1      36.506 -24.209 -13.244  0.00  0.00    +0.123 C 
ATOM      8  C   UNL     1      37.906 -23.788 -15.167  0.00  0.00    +0.072 C 
ATOM      9  C   UNL     1      35.707 -22.798 -15.033  0.00  0.00    +0.017 C 
ATOM     10  C   UNL     1      37.706 -24.399 -13.929  0.00  0.00    +0.033 C 
ATOM     11  C   UNL     1      35.506 -23.408 -13.795  0.00  0.00    +0.021 C 
BRANCH   7  12
ATOM     12  S   UNL     1      36.255 -24.974 -11.694  0.00  0.00    +0.057 S 
ATOM     13  O   UNL     1      37.107 -24.317 -10.714  0.00  0.00    -0.153 OA
ATOM     14  O   UNL     1      34.822 -25.076 -11.456  0.00  0.00    -0.153 OA
BRANCH  12  15
ATOM     15  N   UNL     1      36.872 -26.538 -12.000  0.00  0.00    -0.203 NA
ATOM     16  H   UNL     1      37.599 -26.483 -12.714  0.00  0.00    +0.144 HD
ATOM     17  H   UNL     1      36.119 -27.144 -12.326  0.00  0.00    +0.144 HD
ENDBRANCH  12  15
ENDBRANCH   7  12
ENDBRANCH   2   6
BRANCH   3  18
ATOM     18  C   UNL     1      36.712 -21.515 -19.201  0.00  0.00    +0.152 C 
BRANCH  18  19
ATOM     19  S   UNL     1      35.347 -21.100 -20.309  0.00  0.00    -0.047 S 
BRANCH  19  31
ATOM     20  O   UNL     1      36.720 -18.886 -20.274  0.00  0.00    -0.262 OA
ATOM     21  N   UNL     1      35.230 -19.056 -22.084  0.00  0.00    -0.250 N 
ATOM     22  C   UNL     1      35.037 -19.486 -24.528  0.00  0.00    +0.027 C 
ATOM     23  C   UNL     1      34.322 -18.170 -24.751  0.00  0.00    +0.029 C 
ATOM     24  C   UNL     1      34.749 -19.989 -23.125  0.00  0.00    +0.099 C 
ATOM     25  C   UNL     1      34.586 -17.210 -23.622  0.00  0.00    -0.009 C 
ATOM     26  C   UNL     1      35.014 -17.644 -22.346  0.00  0.00    +0.051 C 
ATOM     27  C   UNL     1      34.350 -15.844 -23.866  0.00  0.00    -0.007 C 
ATOM     28  C   UNL     1      35.171 -16.667 -21.346  0.00  0.00    +0.014 C 
ATOM     29  C   UNL     1      34.539 -14.898 -22.866  0.00  0.00    -0.022 C 
ATOM     30  C   UNL     1      34.945 -15.311 -21.605  0.00  0.00    -0.003 C 
ATOM     31  C   UNL     1      35.869 -19.505 -20.905  0.00  0.00    +0.280 C 
ATOM     32  C   UNL     1      34.321 -13.451 -23.149  0.00  0.00    +0.031 C 
ENDBRANCH  19  31
ENDBRANCH  18  19
ENDBRANCH   3  18
TORSDOF 6
ENDMDL
MODEL 8
REMARK VINA RESULT:     -10.1      3.158      4.445
REMARK  Name = 24878044
REMARK  6 active torsions:
REMARK  status: ('A' for Active; 'I' for Inactive)
REMARK    1  A    between atoms: N_2  and  C_6
REMARK    2  A    between atoms: C_3  and  C_18
REMARK    3  A    between atoms: C_7  and  S_12
REMARK    4  A    between atoms: S_12  and  N_15
REMARK    5  A    between atoms: C_18  and  S_19
REMARK    6  A    between atoms: S_19  and  C_31
REMARK                            x       y       z     vdW  Elec       q    Type
REMARK                         _______ _______ _______ _____ _____    ______ ____
ROOT
ATOM      1  O   UNL     1      37.009 -20.029 -19.877  0.00  0.00    -0.274 OA
ATOM      2  N   UNL     1      35.259 -21.559 -19.534  0.00  0.00    -0.283 N 
ATOM      3  C   UNL     1      35.977 -20.594 -20.230  0.00  0.00    +0.238 C 
ATOM      4  H   UNL     1      34.441 -21.892 -19.970  0.00  0.00    +0.155 HD
ENDROOT
BRANCH   2   6
ATOM      5 CL   UNL     1      32.968 -22.916 -18.052  0.00  0.00    -0.081 Cl
ATOM      6  C   UNL     1      35.568 -22.120 -18.272  0.00  0.00    +0.061 C 
ATOM      7  C   UNL     1      36.246 -23.203 -15.792  0.00  0.00    +0.123 C 
ATOM      8  C   UNL     1      34.599 -22.765 -17.505  0.00  0.00    +0.072 C 
ATOM      9  C   UNL     1      36.877 -22.015 -17.799  0.00  0.00    +0.017 C 
ATOM     10  C   UNL     1      34.939 -23.307 -16.265  0.00  0.00    +0.033 C 
ATOM     11  C   UNL     1      37.216 -22.557 -16.559  0.00  0.00    +0.021 C 
BRANCH   7  12
ATOM     12  S   UNL     1      36.671 -23.881 -14.240  0.00  0.00    +0.057 S 
ATOM     13  O   UNL     1      36.786 -25.325 -14.385  0.00  0.00    -0.153 OA
ATOM     14  O   UNL     1      37.783 -23.117 -13.691  0.00  0.00    -0.153 OA
BRANCH  12  15
ATOM     15  N   UNL     1      35.265 -23.528 -13.336  0.00  0.00    -0.203 NA
ATOM     16  H   UNL     1      35.252 -24.101 -12.491  0.00  0.00    +0.144 HD
ATOM     17  H   UNL     1      34.439 -23.732 -13.898  0.00  0.00    +0.144 HD
ENDBRANCH  12  15
ENDBRANCH   7  12
ENDBRANCH   2   6
BRANCH   3  18
ATOM     18  C   UNL     1      35.327 -20.248 -21.553  0.00  0.00    +0.152 C 
BRANCH  18  19
ATOM     19  S   UNL     1      36.191 -18.835 -22.276  0.00  0.00    -0.047 S 
BRANCH  19  31
ATOM     20  O   UNL     1      34.117 -18.691 -23.844  0.00  0.00    -0.262 OA
ATOM     21  N   UNL     1      34.760 -16.627 -22.922  0.00  0.00    -0.250 N 
ATOM     22  C   UNL     1      34.214 -14.903 -21.212  0.00  0.00    +0.027 C 
ATOM     23  C   UNL     1      34.156 -13.813 -22.261  0.00  0.00    +0.029 C 
ATOM     24  C   UNL     1      35.180 -15.986 -21.658  0.00  0.00    +0.099 C 
ATOM     25  C   UNL     1      33.935 -14.390 -23.634  0.00  0.00    -0.009 C 
ATOM     26  C   UNL     1      34.234 -15.738 -23.943  0.00  0.00    +0.051 C 
ATOM     27  C   UNL     1      33.452 -13.522 -24.631  0.00  0.00    -0.007 C 
ATOM     28  C   UNL     1      34.047 -16.156 -25.273  0.00  0.00    +0.014 C 
ATOM     29  C   UNL     1      33.253 -13.971 -25.931  0.00  0.00    -0.022 C 
ATOM     30  C   UNL     1      33.555 -15.287 -26.252  0.00  0.00    -0.003 C 
ATOM     31  C   UNL     1      34.856 -18.023 -23.129  0.00  0.00    +0.280 C 
ATOM     32  C   UNL     1      32.705 -13.051 -26.968  0.00  0.00    +0.031 C 
ENDBRANCH  19  31
ENDBRANCH  18  19
ENDBRANCH   3  18
TORSDOF 6
ENDMDL
MODEL 9
REMARK VINA RESULT:      -9.9      5.172      8.058
REMARK  Name = 24878044
REMARK  6 active torsions:
REMARK  status: ('A' for Active; 'I' for Inactive)
REMARK    1  A    between atoms: N_2  and  C_6
REMARK    2  A    between atoms: C_3  and  C_18
REMARK    3  A    between atoms: C_7  and  S_12
REMARK    4  A    between atoms: S_12  and  N_15
REMARK    5  A    between atoms: C_18  and  S_19
REMARK    6  A    between atoms: S_19  and  C_31
REMARK                            x       y       z     vdW  Elec       q    Type
REMARK                         _______ _______ _______ _____ _____    ______ ____
ROOT
ATOM      1  O   UNL     1      32.347 -23.834 -15.714  0.00  0.00    -0.274 OA
ATOM      2  N   UNL     1      34.500 -23.282 -16.478  0.00  0.00    -0.283 N 
ATOM      3  C   UNL     1      33.121 -23.430 -16.578  0.00  0.00    +0.238 C 
ATOM      4  H   UNL     1      34.962 -22.955 -17.284  0.00  0.00    +0.155 HD
ENDROOT
BRANCH   2   6
ATOM      5 CL   UNL     1      37.187 -21.848 -16.379  0.00  0.00    -0.081 Cl
ATOM      6  C   UNL     1      35.315 -23.547 -15.352  0.00  0.00    +0.061 C 
ATOM      7  C   UNL     1      36.871 -24.113 -13.107  0.00  0.00    +0.123 C 
ATOM      8  C   UNL     1      36.565 -22.947 -15.200  0.00  0.00    +0.072 C 
ATOM      9  C   UNL     1      34.843 -24.432 -14.381  0.00  0.00    +0.017 C 
ATOM     10  C   UNL     1      37.342 -23.230 -14.077  0.00  0.00    +0.033 C 
ATOM     11  C   UNL     1      35.621 -24.714 -13.258  0.00  0.00    +0.021 C 
BRANCH   7  12
ATOM     12  S   UNL     1      37.844 -24.467 -11.701  0.00  0.00    +0.057 S 
ATOM     13  O   UNL     1      38.230 -25.870 -11.751  0.00  0.00    -0.153 OA
ATOM     14  O   UNL     1      38.867 -23.439 -11.575  0.00  0.00    -0.153 OA
BRANCH  12  15
ATOM     15  N   UNL     1      36.698 -24.256 -10.450  0.00  0.00    -0.203 NA
ATOM     16  H   UNL     1      35.989 -23.585 -10.749  0.00  0.00    +0.144 HD
ATOM     17  H   UNL     1      37.166 -23.907  -9.615  0.00  0.00    +0.144 HD
ENDBRANCH  12  15
ENDBRANCH   7  12
ENDBRANCH   2   6
BRANCH   3  18
ATOM     18  C   UNL     1      32.608 -23.044 -17.949  0.00  0.00    +0.152 C 
BRANCH  18  19
ATOM     19  S   UNL     1      33.993 -23.028 -19.108  0.00  0.00    -0.047 S 
BRANCH  19  31
ATOM     20  O   UNL     1      32.696 -20.894 -19.847  0.00  0.00    -0.262 OA
ATOM     21  N   UNL     1      34.985 -20.850 -20.378  0.00  0.00    -0.250 N 
ATOM     22  C   UNL     1      37.200 -19.898 -19.757  0.00  0.00    +0.027 C 
ATOM     23  C   UNL     1      37.410 -19.353 -21.154  0.00  0.00    +0.029 C 
ATOM     24  C   UNL     1      36.324 -21.138 -19.822  0.00  0.00    +0.099 C 
ATOM     25  C   UNL     1      36.102 -19.218 -21.887  0.00  0.00    -0.009 C 
ATOM     26  C   UNL     1      34.948 -19.945 -21.512  0.00  0.00    +0.051 C 
ATOM     27  C   UNL     1      36.072 -18.362 -23.004  0.00  0.00    -0.007 C 
ATOM     28  C   UNL     1      33.795 -19.788 -22.305  0.00  0.00    +0.014 C 
ATOM     29  C   UNL     1      34.912 -18.208 -23.753  0.00  0.00    -0.022 C 
ATOM     30  C   UNL     1      33.776 -18.925 -23.406  0.00  0.00    -0.003 C 
ATOM     31  C   UNL     1      33.807 -21.415 -19.837  0.00  0.00    +0.280 C 
ATOM     32  C   UNL     1      34.883 -17.270 -24.911  0.00  0.00    +0.031 C 
ENDBRANCH  19  31
ENDBRANCH  18  19
ENDBRANCH   3  18
TORSDOF 6
ENDMDL
