MODEL 1
REMARK VINA RESULT:     -11.6      0.000      0.000
REMARK  Name = 24778473
REMARK  2 active torsions:
REMARK  status: ('A' for Active; 'I' for Inactive)
REMARK    1  A    between atoms: C_11  and  C_22
REMARK    2  A    between atoms: C_17  and  N_29
REMARK                            x       y       z     vdW  Elec       q    Type
REMARK                         _______ _______ _______ _____ _____    ______ ____
ROOT
ATOM      1  O   UNL     1      32.780 -22.534 -18.291  0.00  0.00    -0.270 OA
ATOM      2  O   UNL     1      36.902 -23.177 -16.351  0.00  0.00    -0.270 OA
ATOM      3  N   UNL     1      31.191 -24.730 -13.772  0.00  0.00    -0.353 N 
ATOM      4  N   UNL     1      35.006 -22.705 -17.626  0.00  0.00    -0.248 N 
ATOM      5  C   UNL     1      32.257 -23.849 -15.529  0.00  0.00    +0.022 A 
ATOM      6  C   UNL     1      33.432 -23.468 -16.191  0.00  0.00    +0.060 C 
ATOM      7  C   UNL     1      32.438 -24.425 -14.261  0.00  0.00    +0.057 A 
ATOM      8  C   UNL     1      30.845 -23.822 -15.784  0.00  0.00    +0.018 A 
ATOM      9  C   UNL     1      34.683 -23.659 -15.608  0.00  0.00    +0.058 C 
ATOM     10  C   UNL     1      30.213 -24.377 -14.668  0.00  0.00    +0.057 A 
ATOM     11  C   UNL     1      34.849 -24.226 -14.364  0.00  0.00    +0.007 C 
ATOM     12  C   UNL     1      33.704 -24.620 -13.667  0.00  0.00    +0.017 C 
ATOM     13  C   UNL     1      33.644 -22.850 -17.498  0.00  0.00    +0.252 C 
ATOM     14  C   UNL     1      35.699 -23.167 -16.536  0.00  0.00    +0.252 C 
ATOM     15  C   UNL     1      30.028 -23.382 -16.849  0.00  0.00    +0.016 C 
ATOM     16  C   UNL     1      28.822 -24.514 -14.566  0.00  0.00    +0.018 C 
ATOM     17  C   UNL     1      28.637 -23.511 -16.762  0.00  0.00    +0.051 C 
ATOM     18  C   UNL     1      28.043 -24.070 -15.635  0.00  0.00    +0.016 C 
ATOM     19  H   UNL     1      31.023 -25.145 -12.896  0.00  0.00    +0.166 HD
ATOM     20  H   UNL     1      35.439 -22.311 -18.417  0.00  0.00    +0.158 HD
ENDROOT
BRANCH  11  22
ATOM     21 CL   UNL     1      36.469 -26.694 -15.252  0.00  0.00    -0.082 Cl
ATOM     22  C   UNL     1      36.150 -24.422 -13.761  0.00  0.00    +0.011 C 
ATOM     23  C   UNL     1      36.960 -25.506 -14.095  0.00  0.00    +0.058 C 
ATOM     24  C   UNL     1      36.587 -23.487 -12.822  0.00  0.00    +0.001 C 
ATOM     25  C   UNL     1      38.208 -25.657 -13.491  0.00  0.00    +0.011 C 
ATOM     26  C   UNL     1      37.835 -23.638 -12.217  0.00  0.00    +0.000 C 
ATOM     27  C   UNL     1      38.645 -24.723 -12.552  0.00  0.00    +0.001 C 
ENDBRANCH  11  22
BRANCH  17  29
ATOM     28  O   UNL     1      26.088 -21.865 -16.777  0.00  0.00    -0.265 OA
ATOM     29  N   UNL     1      27.836 -23.075 -17.819  0.00  0.00    -0.277 N 
ATOM     30  C   UNL     1      26.672 -22.317 -17.753  0.00  0.00    +0.303 C 
ATOM     31  H   UNL     1      28.132 -23.334 -18.721  0.00  0.00    +0.155 HD
ENDBRANCH  17  29
TORSDOF 2
ENDMDL
MODEL 2
REMARK VINA RESULT:     -10.5     14.194     16.307
REMARK  Name = 24778473
REMARK  2 active torsions:
REMARK  status: ('A' for Active; 'I' for Inactive)
REMARK    1  A    between atoms: C_11  and  C_22
REMARK    2  A    between atoms: C_17  and  N_29
REMARK                            x       y       z     vdW  Elec       q    Type
REMARK                         _______ _______ _______ _____ _____    ______ ____
ROOT
ATOM      1  O   UNL     1      31.016  -9.731 -20.787  0.00  0.00    -0.270 OA
ATOM      2  O   UNL     1      31.987 -14.172 -21.497  0.00  0.00    -0.270 OA
ATOM      3  N   UNL     1      34.558  -9.157 -24.645  0.00  0.00    -0.353 N 
ATOM      4  N   UNL     1      31.257 -12.047 -20.869  0.00  0.00    -0.248 N 
ATOM      5  C   UNL     1      33.130  -9.817 -23.056  0.00  0.00    +0.022 A 
ATOM      6  C   UNL     1      32.503 -10.821 -22.306  0.00  0.00    +0.060 C 
ATOM      7  C   UNL     1      34.051 -10.268 -24.016  0.00  0.00    +0.057 A 
ATOM      8  C   UNL     1      33.105  -8.385 -23.134  0.00  0.00    +0.018 A 
ATOM      9  C   UNL     1      32.793 -12.168 -22.517  0.00  0.00    +0.058 C 
ATOM     10  C   UNL     1      34.005  -8.009 -24.134  0.00  0.00    +0.057 A 
ATOM     11  C   UNL     1      33.698 -12.598 -23.460  0.00  0.00    +0.007 C 
ATOM     12  C   UNL     1      34.347 -11.632 -24.233  0.00  0.00    +0.017 C 
ATOM     13  C   UNL     1      31.508 -10.746 -21.238  0.00  0.00    +0.252 C 
ATOM     14  C   UNL     1      31.988 -12.959 -21.589  0.00  0.00    +0.252 C 
ATOM     15  C   UNL     1      32.410  -7.358 -22.459  0.00  0.00    +0.016 C 
ATOM     16  C   UNL     1      34.243  -6.674 -24.487  0.00  0.00    +0.018 C 
ATOM     17  C   UNL     1      32.635  -6.019 -22.800  0.00  0.00    +0.051 C 
ATOM     18  C   UNL     1      33.540  -5.683 -23.802  0.00  0.00    +0.016 C 
ATOM     19  H   UNL     1      35.227  -9.182 -25.366  0.00  0.00    +0.166 HD
ATOM     20  H   UNL     1      30.619 -12.299 -20.163  0.00  0.00    +0.158 HD
ENDROOT
BRANCH  11  22
ATOM     21 CL   UNL     1      32.686 -13.873 -26.078  0.00  0.00    -0.082 Cl
ATOM     22  C   UNL     1      33.995 -13.997 -23.679  0.00  0.00    +0.011 C 
ATOM     23  C   UNL     1      33.583 -14.666 -24.831  0.00  0.00    +0.058 C 
ATOM     24  C   UNL     1      34.718 -14.677 -22.698  0.00  0.00    +0.001 C 
ATOM     25  C   UNL     1      33.892 -16.016 -25.003  0.00  0.00    +0.011 C 
ATOM     26  C   UNL     1      35.027 -16.027 -22.870  0.00  0.00    +0.000 C 
ATOM     27  C   UNL     1      34.614 -16.695 -24.022  0.00  0.00    +0.001 C 
ENDBRANCH  11  22
BRANCH  17  29
ATOM     28  O   UNL     1      30.513  -4.078 -23.767  0.00  0.00    -0.265 OA
ATOM     29  N   UNL     1      31.944  -5.010 -22.127  0.00  0.00    -0.277 N 
ATOM     30  C   UNL     1      30.976  -4.151 -22.637  0.00  0.00    +0.303 C 
ATOM     31  H   UNL     1      32.169  -4.892 -21.177  0.00  0.00    +0.155 HD
ENDBRANCH  17  29
TORSDOF 2
ENDMDL
MODEL 3
REMARK VINA RESULT:     -10.4      2.325      7.611
REMARK  Name = 24778473
REMARK  2 active torsions:
REMARK  status: ('A' for Active; 'I' for Inactive)
REMARK    1  A    between atoms: C_11  and  C_22
REMARK    2  A    between atoms: C_17  and  N_29
REMARK                            x       y       z     vdW  Elec       q    Type
REMARK                         _______ _______ _______ _____ _____    ______ ____
ROOT
ATOM      1  O   UNL     1      36.102 -23.220 -17.109  0.00  0.00    -0.270 OA
ATOM      2  O   UNL     1      31.600 -22.641 -17.855  0.00  0.00    -0.270 OA
ATOM      3  N   UNL     1      34.303 -24.986 -12.483  0.00  0.00    -0.353 N 
ATOM      4  N   UNL     1      33.927 -22.794 -17.827  0.00  0.00    -0.248 N 
ATOM      5  C   UNL     1      34.655 -24.174 -14.536  0.00  0.00    +0.022 A 
ATOM      6  C   UNL     1      34.187 -23.653 -15.749  0.00  0.00    +0.060 C 
ATOM      7  C   UNL     1      33.663 -24.496 -13.595  0.00  0.00    +0.057 A 
ATOM      8  C   UNL     1      35.922 -24.490 -13.941  0.00  0.00    +0.018 A 
ATOM      9  C   UNL     1      32.823 -23.477 -15.982  0.00  0.00    +0.058 C 
ATOM     10  C   UNL     1      35.664 -24.994 -12.663  0.00  0.00    +0.057 A 
ATOM     11  C   UNL     1      31.860 -23.796 -15.051  0.00  0.00    +0.007 C 
ATOM     12  C   UNL     1      32.281 -24.319 -13.826  0.00  0.00    +0.017 C 
ATOM     13  C   UNL     1      34.899 -23.210 -16.947  0.00  0.00    +0.252 C 
ATOM     14  C   UNL     1      32.657 -22.922 -17.323  0.00  0.00    +0.252 C 
ATOM     15  C   UNL     1      37.270 -24.403 -14.351  0.00  0.00    +0.016 C 
ATOM     16  C   UNL     1      36.675 -25.409 -11.786  0.00  0.00    +0.018 C 
ATOM     17  C   UNL     1      38.292 -24.814 -13.487  0.00  0.00    +0.051 C 
ATOM     18  C   UNL     1      37.997 -25.311 -12.222  0.00  0.00    +0.016 C 
ATOM     19  H   UNL     1      33.847 -25.291 -11.666  0.00  0.00    +0.166 HD
ATOM     20  H   UNL     1      34.122 -22.441 -18.725  0.00  0.00    +0.158 HD
ENDROOT
BRANCH  11  22
ATOM     21 CL   UNL     1      30.279 -26.218 -16.117  0.00  0.00    -0.082 Cl
ATOM     22  C   UNL     1      30.446 -23.613 -15.296  0.00  0.00    +0.011 C 
ATOM     23  C   UNL     1      29.642 -24.647 -15.777  0.00  0.00    +0.058 C 
ATOM     24  C   UNL     1      29.889 -22.361 -15.034  0.00  0.00    +0.001 C 
ATOM     25  C   UNL     1      28.282 -24.429 -15.997  0.00  0.00    +0.011 C 
ATOM     26  C   UNL     1      28.529 -22.143 -15.255  0.00  0.00    +0.000 C 
ATOM     27  C   UNL     1      27.726 -23.177 -15.736  0.00  0.00    +0.001 C 
ENDBRANCH  11  22
BRANCH  17  29
ATOM     28  O   UNL     1      40.180 -26.921 -14.582  0.00  0.00    -0.265 OA
ATOM     29  N   UNL     1      39.622 -24.724 -13.900  0.00  0.00    -0.277 N 
ATOM     30  C   UNL     1      40.434 -25.739 -14.396  0.00  0.00    +0.303 C 
ATOM     31  H   UNL     1      40.036 -23.834 -13.833  0.00  0.00    +0.155 HD
ENDBRANCH  17  29
TORSDOF 2
ENDMDL
MODEL 4
REMARK VINA RESULT:     -10.0      3.096      5.679
REMARK  Name = 24778473
REMARK  2 active torsions:
REMARK  status: ('A' for Active; 'I' for Inactive)
REMARK    1  A    between atoms: C_11  and  C_22
REMARK    2  A    between atoms: C_17  and  N_29
REMARK                            x       y       z     vdW  Elec       q    Type
REMARK                         _______ _______ _______ _____ _____    ______ ____
ROOT
ATOM      1  O   UNL     1      32.185 -22.717 -18.039  0.00  0.00    -0.270 OA
ATOM      2  O   UNL     1      33.344 -24.858 -14.135  0.00  0.00    -0.270 OA
ATOM      3  N   UNL     1      37.365 -21.756 -18.120  0.00  0.00    -0.353 N 
ATOM      4  N   UNL     1      32.402 -23.882 -16.033  0.00  0.00    -0.248 N 
ATOM      5  C   UNL     1      35.252 -22.367 -17.721  0.00  0.00    +0.022 A 
ATOM      6  C   UNL     1      34.285 -23.009 -16.937  0.00  0.00    +0.060 C 
ATOM      7  C   UNL     1      36.566 -22.432 -17.230  0.00  0.00    +0.057 A 
ATOM      8  C   UNL     1      35.294 -21.621 -18.946  0.00  0.00    +0.018 A 
ATOM      9  C   UNL     1      34.630 -23.660 -15.753  0.00  0.00    +0.058 C 
ATOM     10  C   UNL     1      36.626 -21.257 -19.163  0.00  0.00    +0.057 A 
ATOM     11  C   UNL     1      35.922 -23.716 -15.281  0.00  0.00    +0.007 C 
ATOM     12  C   UNL     1      36.920 -23.090 -16.032  0.00  0.00    +0.017 C 
ATOM     13  C   UNL     1      32.841 -23.155 -17.115  0.00  0.00    +0.252 C 
ATOM     14  C   UNL     1      33.414 -24.223 -15.171  0.00  0.00    +0.252 C 
ATOM     15  C   UNL     1      34.338 -21.212 -19.901  0.00  0.00    +0.016 C 
ATOM     16  C   UNL     1      37.043 -20.514 -20.274  0.00  0.00    +0.018 C 
ATOM     17  C   UNL     1      34.740 -20.469 -21.018  0.00  0.00    +0.051 C 
ATOM     18  C   UNL     1      36.075 -20.125 -21.201  0.00  0.00    +0.016 C 
ATOM     19  H   UNL     1      38.338 -21.645 -18.022  0.00  0.00    +0.166 HD
ATOM     20  H   UNL     1      31.461 -24.133 -15.892  0.00  0.00    +0.158 HD
ENDROOT
BRANCH  11  22
ATOM     21 CL   UNL     1      36.774 -26.672 -15.487  0.00  0.00    -0.082 Cl
ATOM     22  C   UNL     1      36.278 -24.394 -14.053  0.00  0.00    +0.011 C 
ATOM     23  C   UNL     1      36.677 -25.730 -14.040  0.00  0.00    +0.058 C 
ATOM     24  C   UNL     1      36.215 -23.672 -12.862  0.00  0.00    +0.001 C 
ATOM     25  C   UNL     1      37.014 -26.346 -12.834  0.00  0.00    +0.011 C 
ATOM     26  C   UNL     1      36.550 -24.288 -11.656  0.00  0.00    +0.000 C 
ATOM     27  C   UNL     1      36.950 -25.624 -11.642  0.00  0.00    +0.001 C 
ENDBRANCH  11  22
BRANCH  17  29
ATOM     28  O   UNL     1      35.043 -18.961 -23.633  0.00  0.00    -0.265 OA
ATOM     29  N   UNL     1      33.789 -20.068 -21.958  0.00  0.00    -0.277 N 
ATOM     30  C   UNL     1      34.001 -19.374 -23.145  0.00  0.00    +0.303 C 
ATOM     31  H   UNL     1      32.856 -20.305 -21.757  0.00  0.00    +0.155 HD
ENDBRANCH  17  29
TORSDOF 2
ENDMDL
MODEL 5
REMARK VINA RESULT:      -9.7      5.270      8.444
REMARK  Name = 24778473
REMARK  2 active torsions:
REMARK  status: ('A' for Active; 'I' for Inactive)
REMARK    1  A    between atoms: C_11  and  C_22
REMARK    2  A    between atoms: C_17  and  N_29
REMARK                            x       y       z     vdW  Elec       q    Type
REMARK                         _______ _______ _______ _____ _____    ______ ____
ROOT
ATOM      1  O   UNL     1      37.416 -21.955 -18.428  0.00  0.00    -0.270 OA
ATOM      2  O   UNL     1      37.482 -19.121 -22.052  0.00  0.00    -0.270 OA
ATOM      3  N   UNL     1      32.226 -21.657 -19.291  0.00  0.00    -0.353 N 
ATOM      4  N   UNL     1      37.826 -20.525 -20.220  0.00  0.00    -0.248 N 
ATOM      5  C   UNL     1      34.458 -21.520 -19.258  0.00  0.00    +0.022 A 
ATOM      6  C   UNL     1      35.667 -21.033 -19.770  0.00  0.00    +0.060 C 
ATOM      7  C   UNL     1      33.301 -21.084 -19.926  0.00  0.00    +0.057 A 
ATOM      8  C   UNL     1      34.032 -22.381 -18.192  0.00  0.00    +0.018 A 
ATOM      9  C   UNL     1      35.694 -20.175 -20.869  0.00  0.00    +0.058 C 
ATOM     10  C   UNL     1      32.637 -22.443 -18.243  0.00  0.00    +0.057 A 
ATOM     11  C   UNL     1      34.554 -19.754 -21.514  0.00  0.00    +0.007 C 
ATOM     12  C   UNL     1      33.324 -20.215 -21.039  0.00  0.00    +0.017 C 
ATOM     13  C   UNL     1      37.050 -21.258 -19.353  0.00  0.00    +0.252 C 
ATOM     14  C   UNL     1      37.088 -19.847 -21.158  0.00  0.00    +0.252 C 
ATOM     15  C   UNL     1      34.684 -23.119 -17.181  0.00  0.00    +0.016 C 
ATOM     16  C   UNL     1      31.872 -23.197 -17.344  0.00  0.00    +0.018 C 
ATOM     17  C   UNL     1      33.934 -23.879 -16.275  0.00  0.00    +0.051 C 
ATOM     18  C   UNL     1      32.546 -23.916 -16.357  0.00  0.00    +0.016 C 
ATOM     19  H   UNL     1      31.287 -21.522 -19.553  0.00  0.00    +0.166 HD
ATOM     20  H   UNL     1      38.808 -20.489 -20.174  0.00  0.00    +0.158 HD
ENDROOT
BRANCH  11  22
ATOM     21 CL   UNL     1      35.202 -16.787 -20.984  0.00  0.00    -0.082 Cl
ATOM     22  C   UNL     1      34.584 -18.864 -22.655  0.00  0.00    +0.011 C 
ATOM     23  C   UNL     1      34.868 -17.505 -22.521  0.00  0.00    +0.058 C 
ATOM     24  C   UNL     1      34.321 -19.401 -23.916  0.00  0.00    +0.001 C 
ATOM     25  C   UNL     1      34.889 -16.682 -23.647  0.00  0.00    +0.011 C 
ATOM     26  C   UNL     1      34.341 -18.578 -25.042  0.00  0.00    +0.000 C 
ATOM     27  C   UNL     1      34.626 -17.219 -24.907  0.00  0.00    +0.001 C 
ENDBRANCH  11  22
BRANCH  17  29
ATOM     28  O   UNL     1      35.994 -23.025 -14.218  0.00  0.00    -0.265 OA
ATOM     29  N   UNL     1      34.586 -24.606 -15.278  0.00  0.00    -0.277 N 
ATOM     30  C   UNL     1      35.527 -24.146 -14.362  0.00  0.00    +0.303 C 
ATOM     31  H   UNL     1      34.352 -25.559 -15.214  0.00  0.00    +0.155 HD
ENDBRANCH  17  29
TORSDOF 2
ENDMDL
MODEL 6
REMARK VINA RESULT:      -9.7      9.162     11.362
REMARK  Name = 24778473
REMARK  2 active torsions:
REMARK  status: ('A' for Active; 'I' for Inactive)
REMARK    1  A    between atoms: C_11  and  C_22
REMARK    2  A    between atoms: C_17  and  N_29
REMARK                            x       y       z     vdW  Elec       q    Type
REMARK                         _______ _______ _______ _____ _____    ______ ____
ROOT
ATOM      1  O   UNL     1      34.027 -16.842 -26.102  0.00  0.00    -0.270 OA
ATOM      2  O   UNL     1      35.219 -20.610 -23.748  0.00  0.00    -0.270 OA
ATOM      3  N   UNL     1      34.625 -14.647 -21.350  0.00  0.00    -0.353 N 
ATOM      4  N   UNL     1      34.593 -18.932 -25.241  0.00  0.00    -0.248 N 
ATOM      5  C   UNL     1      34.479 -15.940 -23.168  0.00  0.00    +0.022 A 
ATOM      6  C   UNL     1      34.575 -17.185 -23.803  0.00  0.00    +0.060 C 
ATOM      7  C   UNL     1      34.770 -15.938 -21.794  0.00  0.00    +0.057 A 
ATOM      8  C   UNL     1      34.150 -14.591 -23.533  0.00  0.00    +0.018 A 
ATOM      9  C   UNL     1      34.937 -18.330 -23.094  0.00  0.00    +0.058 C 
ATOM     10  C   UNL     1      34.252 -13.814 -22.376  0.00  0.00    +0.057 A 
ATOM     11  C   UNL     1      35.219 -18.317 -21.748  0.00  0.00    +0.007 C 
ATOM     12  C   UNL     1      35.137 -17.096 -21.073  0.00  0.00    +0.017 C 
ATOM     13  C   UNL     1      34.353 -17.578 -25.193  0.00  0.00    +0.252 C 
ATOM     14  C   UNL     1      34.948 -19.457 -24.024  0.00  0.00    +0.252 C 
ATOM     15  C   UNL     1      33.775 -13.941 -24.728  0.00  0.00    +0.016 C 
ATOM     16  C   UNL     1      34.000 -12.436 -22.356  0.00  0.00    +0.018 C 
ATOM     17  C   UNL     1      33.520 -12.564 -24.725  0.00  0.00    +0.051 C 
ATOM     18  C   UNL     1      33.631 -11.823 -23.553  0.00  0.00    +0.016 C 
ATOM     19  H   UNL     1      34.769 -14.358 -20.421  0.00  0.00    +0.166 HD
ATOM     20  H   UNL     1      34.518 -19.468 -26.063  0.00  0.00    +0.158 HD
ENDROOT
BRANCH  11  22
ATOM     21 CL   UNL     1      32.962 -20.239 -20.904  0.00  0.00    -0.082 Cl
ATOM     22  C   UNL     1      35.596 -19.507 -21.015  0.00  0.00    +0.011 C 
ATOM     23  C   UNL     1      34.650 -20.439 -20.590  0.00  0.00    +0.058 C 
ATOM     24  C   UNL     1      36.949 -19.709 -20.740  0.00  0.00    +0.001 C 
ATOM     25  C   UNL     1      35.056 -21.575 -19.888  0.00  0.00    +0.011 C 
ATOM     26  C   UNL     1      37.354 -20.844 -20.038  0.00  0.00    +0.000 C 
ATOM     27  C   UNL     1      36.408 -21.777 -19.612  0.00  0.00    +0.001 C 
ENDBRANCH  11  22
BRANCH  17  29
ATOM     28  O   UNL     1      33.892 -13.387 -27.621  0.00  0.00    -0.265 OA
ATOM     29  N   UNL     1      33.148 -11.928 -25.911  0.00  0.00    -0.277 N 
ATOM     30  C   UNL     1      33.352 -12.367 -27.215  0.00  0.00    +0.303 C 
ATOM     31  H   UNL     1      32.686 -11.066 -25.813  0.00  0.00    +0.155 HD
ENDBRANCH  17  29
TORSDOF 2
ENDMDL
MODEL 7
REMARK VINA RESULT:      -9.1      4.699      8.533
REMARK  Name = 24778473
REMARK  2 active torsions:
REMARK  status: ('A' for Active; 'I' for Inactive)
REMARK    1  A    between atoms: C_11  and  C_22
REMARK    2  A    between atoms: C_17  and  N_29
REMARK                            x       y       z     vdW  Elec       q    Type
REMARK                         _______ _______ _______ _____ _____    ______ ____
ROOT
ATOM      1  O   UNL     1      32.409 -22.787 -17.890  0.00  0.00    -0.270 OA
ATOM      2  O   UNL     1      32.294 -20.168 -21.670  0.00  0.00    -0.270 OA
ATOM      3  N   UNL     1      37.544 -21.656 -18.223  0.00  0.00    -0.353 N 
ATOM      4  N   UNL     1      31.977 -21.529 -19.803  0.00  0.00    -0.248 N 
ATOM      5  C   UNL     1      35.332 -21.897 -18.433  0.00  0.00    +0.022 A 
ATOM      6  C   UNL     1      34.125 -21.644 -19.097  0.00  0.00    +0.060 C 
ATOM      7  C   UNL     1      36.469 -21.300 -19.000  0.00  0.00    +0.057 A 
ATOM      8  C   UNL     1      35.769 -22.629 -17.279  0.00  0.00    +0.018 A 
ATOM      9  C   UNL     1      34.083 -20.850 -20.243  0.00  0.00    +0.058 C 
ATOM     10  C   UNL     1      37.152 -22.456 -17.179  0.00  0.00    +0.057 A 
ATOM     11  C   UNL     1      35.205 -20.271 -20.791  0.00  0.00    +0.007 C 
ATOM     12  C   UNL     1      36.432 -20.496 -20.161  0.00  0.00    +0.017 C 
ATOM     13  C   UNL     1      32.759 -22.082 -18.815  0.00  0.00    +0.252 C 
ATOM     14  C   UNL     1      32.697 -20.777 -20.697  0.00  0.00    +0.252 C 
ATOM     15  C   UNL     1      35.136 -23.426 -16.300  0.00  0.00    +0.016 C 
ATOM     16  C   UNL     1      37.923 -23.033 -16.162  0.00  0.00    +0.018 C 
ATOM     17  C   UNL     1      35.893 -24.010 -15.277  0.00  0.00    +0.051 C 
ATOM     18  C   UNL     1      37.268 -23.815 -15.210  0.00  0.00    +0.016 C 
ATOM     19  H   UNL     1      38.472 -21.374 -18.392  0.00  0.00    +0.166 HD
ATOM     20  H   UNL     1      31.004 -21.658 -19.862  0.00  0.00    +0.158 HD
ENDROOT
BRANCH  11  22
ATOM     21 CL   UNL     1      35.399 -17.218 -20.409  0.00  0.00    -0.082 Cl
ATOM     22  C   UNL     1      35.159 -19.447 -21.979  0.00  0.00    +0.011 C 
ATOM     23  C   UNL     1      35.241 -18.056 -21.913  0.00  0.00    +0.058 C 
ATOM     24  C   UNL     1      35.033 -20.081 -23.215  0.00  0.00    +0.001 C 
ATOM     25  C   UNL     1      35.194 -17.298 -23.083  0.00  0.00    +0.011 C 
ATOM     26  C   UNL     1      34.985 -19.323 -24.385  0.00  0.00    +0.000 C 
ATOM     27  C   UNL     1      35.066 -17.932 -24.319  0.00  0.00    +0.001 C 
ENDBRANCH  11  22
BRANCH  17  29
ATOM     28  O   UNL     1      35.711 -23.703 -12.265  0.00  0.00    -0.265 OA
ATOM     29  N   UNL     1      35.259 -24.798 -14.314  0.00  0.00    -0.277 N 
ATOM     30  C   UNL     1      35.216 -24.595 -12.939  0.00  0.00    +0.303 C 
ATOM     31  H   UNL     1      34.785 -25.592 -14.649  0.00  0.00    +0.155 HD
ENDBRANCH  17  29
TORSDOF 2
ENDMDL
MODEL 8
REMARK VINA RESULT:      -8.7     13.691     16.167
REMARK  Name = 24778473
REMARK  2 active torsions:
REMARK  status: ('A' for Active; 'I' for Inactive)
REMARK    1  A    between atoms: C_11  and  C_22
REMARK    2  A    between atoms: C_17  and  N_29
REMARK                            x       y       z     vdW  Elec       q    Type
REMARK                         _______ _______ _______ _____ _____    ______ ____
ROOT
ATOM      1  O   UNL     1      32.029 -13.986 -21.512  0.00  0.00    -0.270 OA
ATOM      2  O   UNL     1      31.473  -9.824 -19.632  0.00  0.00    -0.270 OA
ATOM      3  N   UNL     1      33.638 -11.059 -25.587  0.00  0.00    -0.353 N 
ATOM      4  N   UNL     1      31.626 -12.067 -20.254  0.00  0.00    -0.248 N 
ATOM      5  C   UNL     1      32.896 -11.926 -23.664  0.00  0.00    +0.022 A 
ATOM      6  C   UNL     1      32.416 -11.785 -22.356  0.00  0.00    +0.060 C 
ATOM      7  C   UNL     1      33.186 -10.726 -24.334  0.00  0.00    +0.057 A 
ATOM      8  C   UNL     1      33.193 -12.999 -24.571  0.00  0.00    +0.018 A 
ATOM      9  C   UNL     1      32.247 -10.526 -21.781  0.00  0.00    +0.058 C 
ATOM     10  C   UNL     1      33.653 -12.421 -25.757  0.00  0.00    +0.057 A 
ATOM     11  C   UNL     1      32.533  -9.357 -22.446  0.00  0.00    +0.007 C 
ATOM     12  C   UNL     1      33.015  -9.449 -23.755  0.00  0.00    +0.017 C 
ATOM     13  C   UNL     1      32.014 -12.781 -21.364  0.00  0.00    +0.252 C 
ATOM     14  C   UNL     1      31.736 -10.710 -20.424  0.00  0.00    +0.252 C 
ATOM     15  C   UNL     1      33.120 -14.407 -24.512  0.00  0.00    +0.016 C 
ATOM     16  C   UNL     1      34.039 -13.174 -26.874  0.00  0.00    +0.018 C 
ATOM     17  C   UNL     1      33.503 -15.174 -25.620  0.00  0.00    +0.051 C 
ATOM     18  C   UNL     1      33.956 -14.564 -26.784  0.00  0.00    +0.016 C 
ATOM     19  H   UNL     1      33.915 -10.408 -26.271  0.00  0.00    +0.166 HD
ATOM     20  H   UNL     1      31.304 -12.486 -19.423  0.00  0.00    +0.158 HD
ENDROOT
BRANCH  11  22
ATOM     21 CL   UNL     1      30.479  -7.461 -23.747  0.00  0.00    -0.082 Cl
ATOM     22  C   UNL     1      32.358  -8.051 -21.846  0.00  0.00    +0.011 C 
ATOM     23  C   UNL     1      31.453  -7.122 -22.358  0.00  0.00    +0.058 C 
ATOM     24  C   UNL     1      33.123  -7.735 -20.724  0.00  0.00    +0.001 C 
ATOM     25  C   UNL     1      31.313  -5.875 -21.749  0.00  0.00    +0.011 C 
ATOM     26  C   UNL     1      32.984  -6.488 -20.115  0.00  0.00    +0.000 C 
ATOM     27  C   UNL     1      32.079  -5.559 -20.627  0.00  0.00    +0.001 C 
ENDBRANCH  11  22
BRANCH  17  29
ATOM     28  O   UNL     1      35.311 -17.200 -24.268  0.00  0.00    -0.265 OA
ATOM     29  N   UNL     1      33.428 -16.566 -25.554  0.00  0.00    -0.277 N 
ATOM     30  C   UNL     1      34.299 -17.440 -24.911  0.00  0.00    +0.303 C 
ATOM     31  H   UNL     1      32.666 -16.980 -26.019  0.00  0.00    +0.155 HD
ENDBRANCH  17  29
TORSDOF 2
ENDMDL
