MODEL 1
REMARK VINA RESULT:     -13.4      0.000      0.000
REMARK  Name = 89670174
REMARK  4 active torsions:
REMARK  status: ('A' for Active; 'I' for Inactive)
REMARK    1  A    between atoms: C_3  and  C_13
REMARK    2  A    between atoms: C_9  and  O_26
REMARK    3  A    between atoms: C_18  and  C_25
REMARK    4  A    between atoms: O_26  and  C_30
REMARK                            x       y       z     vdW  Elec       q    Type
REMARK                         _______ _______ _______ _____ _____    ______ ____
ROOT
ATOM      1  O   UNL     1      34.645 -19.685 -23.960  0.00  0.00    -0.479 OA
ATOM      2  C   UNL     1      35.496 -18.851 -21.825  0.00  0.00    +0.072 C 
ATOM      3  C   UNL     1      34.462 -19.887 -21.408  0.00  0.00    +0.085 C 
ATOM      4  C   UNL     1      35.258 -20.091 -22.679  0.00  0.00    +0.174 C 
ATOM      5  C   UNL     1      35.126 -17.757 -22.758  0.00  0.00    +0.018 C 
ATOM      6  C   UNL     1      34.657 -18.298 -23.963  0.00  0.00    +0.135 C 
ATOM      7  C   UNL     1      35.179 -16.380 -22.606  0.00  0.00    +0.036 C 
ATOM      8  C   UNL     1      34.234 -17.519 -25.021  0.00  0.00    +0.040 C 
ATOM      9  C   UNL     1      34.759 -15.569 -23.666  0.00  0.00    +0.145 C 
ATOM     10  C   UNL     1      34.291 -16.135 -24.864  0.00  0.00    +0.041 C 
ENDROOT
BRANCH   3  13
ATOM     11  N   UNL     1      35.934 -20.846 -19.567  0.00  0.00    -0.318 N 
ATOM     12  N   UNL     1      33.822 -21.536 -19.646  0.00  0.00    -0.318 N 
ATOM     13  C   UNL     1      34.727 -20.763 -20.204  0.00  0.00    +0.148 C 
ATOM     14  C   UNL     1      35.798 -21.732 -18.528  0.00  0.00    +0.059 C 
ATOM     15  C   UNL     1      34.472 -22.148 -18.598  0.00  0.00    +0.059 C 
ATOM     16  C   UNL     1      36.696 -22.191 -17.563  0.00  0.00    +0.019 C 
ATOM     17  C   UNL     1      33.995 -23.077 -17.659  0.00  0.00    +0.016 C 
ATOM     18  C   UNL     1      36.204 -23.115 -16.635  0.00  0.00    +0.073 C 
ATOM     19  C   UNL     1      34.878 -23.551 -16.680  0.00  0.00    +0.005 C 
ATOM     20  H   UNL     1      36.753 -20.358 -19.810  0.00  0.00    +0.148 HD
ATOM     21  H   UNL     1      32.883 -21.652 -19.918  0.00  0.00    +0.148 HD
BRANCH  18  25
ATOM     22  F   UNL     1      37.024 -24.992 -15.400  0.00  0.00    -0.166 F 
ATOM     23  F   UNL     1      38.436 -23.401 -15.822  0.00  0.00    -0.166 F 
ATOM     24  F   UNL     1      36.864 -23.093 -14.352  0.00  0.00    -0.166 F 
ATOM     25  C   UNL     1      37.115 -23.641 -15.576  0.00  0.00    +0.419 C 
ENDBRANCH  18  25
ENDBRANCH   3  13
BRANCH   9  26
ATOM     26  O   UNL     1      34.804 -14.192 -23.533  0.00  0.00    -0.454 OA
BRANCH  26  30
ATOM     27  O   UNL     1      32.022  -8.499 -23.685  0.00  0.00    -0.275 OA
ATOM     28  N   UNL     1      31.919 -10.473 -22.514  0.00  0.00    -0.270 N 
ATOM     29  N   UNL     1      31.822 -12.452 -21.223  0.00  0.00    -0.229 NA
ATOM     30  C   UNL     1      33.842 -13.598 -22.773  0.00  0.00    +0.146 C 
ATOM     31  C   UNL     1      33.403 -12.301 -23.045  0.00  0.00    +0.045 C 
ATOM     32  C   UNL     1      33.909 -11.535 -24.229  0.00  0.00    +0.042 C 
ATOM     33  C   UNL     1      33.284 -14.311 -21.718  0.00  0.00    +0.058 C 
ATOM     34  C   UNL     1      32.395 -11.769 -22.243  0.00  0.00    +0.133 C 
ATOM     35  C   UNL     1      33.838 -10.038 -23.974  0.00  0.00    +0.090 C 
ATOM     36  C   UNL     1      32.499  -9.602 -23.415  0.00  0.00    +0.227 C 
ATOM     37  C   UNL     1      32.284 -13.699 -20.983  0.00  0.00    +0.103 C 
ATOM     38  H   UNL     1      31.119 -10.166 -22.030  0.00  0.00    +0.156 HD
ENDBRANCH  26  30
ENDBRANCH   9  26
TORSDOF 4
ENDMDL
MODEL 2
REMARK VINA RESULT:     -13.3      5.951     11.612
REMARK  Name = 89670174
REMARK  4 active torsions:
REMARK  status: ('A' for Active; 'I' for Inactive)
REMARK    1  A    between atoms: C_3  and  C_13
REMARK    2  A    between atoms: C_9  and  O_26
REMARK    3  A    between atoms: C_18  and  C_25
REMARK    4  A    between atoms: O_26  and  C_30
REMARK                            x       y       z     vdW  Elec       q    Type
REMARK                         _______ _______ _______ _____ _____    ______ ____
ROOT
ATOM      1  O   UNL     1      33.281 -15.016 -25.861  0.00  0.00    -0.479 OA
ATOM      2  C   UNL     1      33.615 -14.204 -23.580  0.00  0.00    +0.072 C 
ATOM      3  C   UNL     1      34.180 -13.081 -24.435  0.00  0.00    +0.085 C 
ATOM      4  C   UNL     1      33.008 -13.893 -24.942  0.00  0.00    +0.174 C 
ATOM      5  C   UNL     1      34.091 -15.599 -23.765  0.00  0.00    +0.018 C 
ATOM      6  C   UNL     1      33.863 -16.006 -25.086  0.00  0.00    +0.135 C 
ATOM      7  C   UNL     1      34.684 -16.479 -22.873  0.00  0.00    +0.036 C 
ATOM      8  C   UNL     1      34.208 -17.259 -25.555  0.00  0.00    +0.040 C 
ATOM      9  C   UNL     1      35.040 -17.755 -23.324  0.00  0.00    +0.145 C 
ATOM     10  C   UNL     1      34.803 -18.141 -24.655  0.00  0.00    +0.041 C 
ENDROOT
BRANCH   3  13
ATOM     11  N   UNL     1      32.901 -11.204 -23.286  0.00  0.00    -0.318 N 
ATOM     12  N   UNL     1      34.807 -10.668 -24.296  0.00  0.00    -0.318 N 
ATOM     13  C   UNL     1      33.974 -11.643 -24.010  0.00  0.00    +0.148 C 
ATOM     14  C   UNL     1      33.052  -9.855 -23.091  0.00  0.00    +0.059 C 
ATOM     15  C   UNL     1      34.248  -9.544 -23.730  0.00  0.00    +0.059 C 
ATOM     16  C   UNL     1      32.267  -8.909 -22.430  0.00  0.00    +0.019 C 
ATOM     17  C   UNL     1      34.706  -8.216 -23.719  0.00  0.00    +0.016 C 
ATOM     18  C   UNL     1      32.737  -7.591 -22.429  0.00  0.00    +0.073 C 
ATOM     19  C   UNL     1      33.935  -7.249 -23.062  0.00  0.00    +0.005 C 
ATOM     20  H   UNL     1      32.153 -11.757 -22.963  0.00  0.00    +0.148 HD
ATOM     21  H   UNL     1      35.648 -10.727 -24.804  0.00  0.00    +0.148 HD
BRANCH  18  25
ATOM     22  F   UNL     1      31.774  -6.767 -20.402  0.00  0.00    -0.166 F 
ATOM     23  F   UNL     1      32.505  -5.291 -21.813  0.00  0.00    -0.166 F 
ATOM     24  F   UNL     1      30.687  -6.402 -22.249  0.00  0.00    -0.166 F 
ATOM     25  C   UNL     1      31.944  -6.533 -21.736  0.00  0.00    +0.419 C 
ENDBRANCH  18  25
ENDBRANCH   3  13
BRANCH   9  26
ATOM     26  O   UNL     1      35.635 -18.648 -22.450  0.00  0.00    -0.454 OA
BRANCH  26  30
ATOM     27  O   UNL     1      36.606 -22.640 -17.624  0.00  0.00    -0.275 OA
ATOM     28  N   UNL     1      34.888 -21.838 -18.920  0.00  0.00    -0.270 N 
ATOM     29  N   UNL     1      33.091 -21.109 -20.274  0.00  0.00    -0.229 NA
ATOM     30  C   UNL     1      34.819 -19.476 -21.739  0.00  0.00    +0.146 C 
ATOM     31  C   UNL     1      35.315 -20.259 -20.694  0.00  0.00    +0.045 C 
ATOM     32  C   UNL     1      36.744 -20.164 -20.255  0.00  0.00    +0.042 C 
ATOM     33  C   UNL     1      33.467 -19.526 -22.060  0.00  0.00    +0.058 C 
ATOM     34  C   UNL     1      34.416 -21.060 -19.993  0.00  0.00    +0.133 C 
ATOM     35  C   UNL     1      37.205 -21.471 -19.630  0.00  0.00    +0.090 C 
ATOM     36  C   UNL     1      36.223 -22.010 -18.609  0.00  0.00    +0.227 C 
ATOM     37  C   UNL     1      32.654 -20.348 -21.301  0.00  0.00    +0.103 C 
ATOM     38  H   UNL     1      34.223 -22.291 -18.352  0.00  0.00    +0.156 HD
ENDBRANCH  26  30
ENDBRANCH   9  26
TORSDOF 4
ENDMDL
MODEL 3
REMARK VINA RESULT:     -12.8      2.715      4.868
REMARK  Name = 89670174
REMARK  4 active torsions:
REMARK  status: ('A' for Active; 'I' for Inactive)
REMARK    1  A    between atoms: C_3  and  C_13
REMARK    2  A    between atoms: C_9  and  O_26
REMARK    3  A    between atoms: C_18  and  C_25
REMARK    4  A    between atoms: O_26  and  C_30
REMARK                            x       y       z     vdW  Elec       q    Type
REMARK                         _______ _______ _______ _____ _____    ______ ____
ROOT
ATOM      1  O   UNL     1      32.910 -22.056 -19.349  0.00  0.00    -0.479 OA
ATOM      2  C   UNL     1      35.351 -22.175 -19.286  0.00  0.00    +0.072 C 
ATOM      3  C   UNL     1      34.970 -22.071 -17.818  0.00  0.00    +0.085 C 
ATOM      4  C   UNL     1      34.055 -22.796 -18.780  0.00  0.00    +0.174 C 
ATOM      5  C   UNL     1      34.853 -21.173 -20.263  0.00  0.00    +0.018 C 
ATOM      6  C   UNL     1      33.452 -21.161 -20.258  0.00  0.00    +0.135 C 
ATOM      7  C   UNL     1      35.539 -20.317 -21.111  0.00  0.00    +0.036 C 
ATOM      8  C   UNL     1      32.706 -20.323 -21.063  0.00  0.00    +0.040 C 
ATOM      9  C   UNL     1      34.805 -19.461 -21.939  0.00  0.00    +0.145 C 
ATOM     10  C   UNL     1      33.399 -19.464 -21.915  0.00  0.00    +0.041 C 
ENDROOT
BRANCH   3  13
ATOM     11  N   UNL     1      35.179 -23.642 -15.826  0.00  0.00    -0.318 N 
ATOM     12  N   UNL     1      37.063 -22.853 -16.704  0.00  0.00    -0.318 N 
ATOM     13  C   UNL     1      35.752 -22.853 -16.785  0.00  0.00    +0.148 C 
ATOM     14  C   UNL     1      36.190 -24.188 -15.076  0.00  0.00    +0.059 C 
ATOM     15  C   UNL     1      37.355 -23.681 -15.643  0.00  0.00    +0.059 C 
ATOM     16  C   UNL     1      36.183 -25.055 -13.983  0.00  0.00    +0.019 C 
ATOM     17  C   UNL     1      38.597 -24.051 -15.102  0.00  0.00    +0.016 C 
ATOM     18  C   UNL     1      37.429 -25.413 -13.456  0.00  0.00    +0.073 C 
ATOM     19  C   UNL     1      38.615 -24.920 -14.004  0.00  0.00    +0.005 C 
ATOM     20  H   UNL     1      34.215 -23.791 -15.697  0.00  0.00    +0.148 HD
ATOM     21  H   UNL     1      37.700 -22.368 -17.277  0.00  0.00    +0.148 HD
BRANCH  18  25
ATOM     22  F   UNL     1      38.747 -26.503 -11.785  0.00  0.00    -0.166 F 
ATOM     23  F   UNL     1      36.730 -25.934 -11.228  0.00  0.00    -0.166 F 
ATOM     24  F   UNL     1      37.049 -27.595 -12.594  0.00  0.00    -0.166 F 
ATOM     25  C   UNL     1      37.488 -26.340 -12.288  0.00  0.00    +0.419 C 
ENDBRANCH  18  25
ENDBRANCH   3  13
BRANCH   9  26
ATOM     26  O   UNL     1      35.470 -18.598 -22.792  0.00  0.00    -0.454 OA
BRANCH  26  30
ATOM     27  O   UNL     1      33.548 -12.771 -24.383  0.00  0.00    -0.275 OA
ATOM     28  N   UNL     1      33.529 -14.913 -25.212  0.00  0.00    -0.270 N 
ATOM     29  N   UNL     1      33.410 -17.111 -26.078  0.00  0.00    -0.229 NA
ATOM     30  C   UNL     1      34.777 -18.096 -23.852  0.00  0.00    +0.146 C 
ATOM     31  C   UNL     1      34.493 -16.732 -23.951  0.00  0.00    +0.045 C 
ATOM     32  C   UNL     1      35.003 -15.750 -22.941  0.00  0.00    +0.042 C 
ATOM     33  C   UNL     1      34.363 -18.964 -24.855  0.00  0.00    +0.058 C 
ATOM     34  C   UNL     1      33.805 -16.287 -25.078  0.00  0.00    +0.133 C 
ATOM     35  C   UNL     1      34.089 -14.539 -22.855  0.00  0.00    +0.090 C 
ATOM     36  C   UNL     1      33.733 -13.977 -24.217  0.00  0.00    +0.227 C 
ATOM     37  C   UNL     1      33.692 -18.425 -25.938  0.00  0.00    +0.103 C 
ATOM     38  H   UNL     1      33.167 -14.598 -26.071  0.00  0.00    +0.156 HD
ENDBRANCH  26  30
ENDBRANCH   9  26
TORSDOF 4
ENDMDL
MODEL 4
REMARK VINA RESULT:     -12.8      0.877      1.466
REMARK  Name = 89670174
REMARK  4 active torsions:
REMARK  status: ('A' for Active; 'I' for Inactive)
REMARK    1  A    between atoms: C_3  and  C_13
REMARK    2  A    between atoms: C_9  and  O_26
REMARK    3  A    between atoms: C_18  and  C_25
REMARK    4  A    between atoms: O_26  and  C_30
REMARK                            x       y       z     vdW  Elec       q    Type
REMARK                         _______ _______ _______ _____ _____    ______ ____
ROOT
ATOM      1  O   UNL     1      34.631 -19.570 -24.170  0.00  0.00    -0.479 OA
ATOM      2  C   UNL     1      35.485 -18.670 -22.063  0.00  0.00    +0.072 C 
ATOM      3  C   UNL     1      34.502 -19.740 -21.612  0.00  0.00    +0.085 C 
ATOM      4  C   UNL     1      35.282 -19.931 -22.894  0.00  0.00    +0.174 C 
ATOM      5  C   UNL     1      35.054 -17.606 -23.005  0.00  0.00    +0.018 C 
ATOM      6  C   UNL     1      34.587 -18.185 -24.193  0.00  0.00    +0.135 C 
ATOM      7  C   UNL     1      35.055 -16.226 -22.874  0.00  0.00    +0.036 C 
ATOM      8  C   UNL     1      34.114 -17.439 -25.255  0.00  0.00    +0.040 C 
ATOM      9  C   UNL     1      34.584 -15.449 -23.938  0.00  0.00    +0.145 C 
ATOM     10  C   UNL     1      34.117 -16.051 -25.119  0.00  0.00    +0.041 C 
ENDROOT
BRANCH   3  13
ATOM     11  N   UNL     1      33.897 -21.321 -19.712  0.00  0.00    -0.318 N 
ATOM     12  N   UNL     1      36.024 -20.700 -19.882  0.00  0.00    -0.318 N 
ATOM     13  C   UNL     1      34.822 -20.586 -20.400  0.00  0.00    +0.148 C 
ATOM     14  C   UNL     1      34.546 -21.952 -18.682  0.00  0.00    +0.059 C 
ATOM     15  C   UNL     1      35.872 -21.549 -18.809  0.00  0.00    +0.059 C 
ATOM     16  C   UNL     1      34.100 -22.816 -17.680  0.00  0.00    +0.019 C 
ATOM     17  C   UNL     1      36.824 -22.025 -17.892  0.00  0.00    +0.016 C 
ATOM     18  C   UNL     1      35.061 -23.279 -16.775  0.00  0.00    +0.073 C 
ATOM     19  C   UNL     1      36.399 -22.892 -16.878  0.00  0.00    +0.005 C 
ATOM     20  H   UNL     1      32.937 -21.386 -19.919  0.00  0.00    +0.148 HD
ATOM     21  H   UNL     1      36.855 -20.272 -20.193  0.00  0.00    +0.148 HD
BRANCH  18  25
ATOM     22  F   UNL     1      33.302 -24.447 -15.651  0.00  0.00    -0.166 F 
ATOM     23  F   UNL     1      35.226 -25.440 -15.763  0.00  0.00    -0.166 F 
ATOM     24  F   UNL     1      34.963 -23.732 -14.444  0.00  0.00    -0.166 F 
ATOM     25  C   UNL     1      34.646 -24.208 -15.682  0.00  0.00    +0.419 C 
ENDBRANCH  18  25
ENDBRANCH   3  13
BRANCH   9  26
ATOM     26  O   UNL     1      34.575 -14.070 -23.826  0.00  0.00    -0.454 OA
BRANCH  26  30
ATOM     27  O   UNL     1      31.835  -8.370 -23.407  0.00  0.00    -0.275 OA
ATOM     28  N   UNL     1      31.839 -10.399 -22.331  0.00  0.00    -0.270 N 
ATOM     29  N   UNL     1      31.862 -12.440 -21.135  0.00  0.00    -0.229 NA
ATOM     30  C   UNL     1      33.701 -13.512 -22.942  0.00  0.00    +0.146 C 
ATOM     31  C   UNL     1      33.246 -12.202 -23.103  0.00  0.00    +0.045 C 
ATOM     32  C   UNL     1      33.632 -11.379 -24.294  0.00  0.00    +0.042 C 
ATOM     33  C   UNL     1      33.251 -14.275 -21.871  0.00  0.00    +0.058 C 
ATOM     34  C   UNL     1      32.331 -11.708 -22.174  0.00  0.00    +0.133 C 
ATOM     35  C   UNL     1      33.599  -9.896 -23.960  0.00  0.00    +0.090 C 
ATOM     36  C   UNL     1      32.329  -9.485 -23.243  0.00  0.00    +0.227 C 
ATOM     37  C   UNL     1      32.337 -13.698 -21.007  0.00  0.00    +0.103 C 
ATOM     38  H   UNL     1      31.096 -10.114 -21.751  0.00  0.00    +0.156 HD
ENDBRANCH  26  30
ENDBRANCH   9  26
TORSDOF 4
ENDMDL
MODEL 5
REMARK VINA RESULT:     -12.7      5.901     11.472
REMARK  Name = 89670174
REMARK  4 active torsions:
REMARK  status: ('A' for Active; 'I' for Inactive)
REMARK    1  A    between atoms: C_3  and  C_13
REMARK    2  A    between atoms: C_9  and  O_26
REMARK    3  A    between atoms: C_18  and  C_25
REMARK    4  A    between atoms: O_26  and  C_30
REMARK                            x       y       z     vdW  Elec       q    Type
REMARK                         _______ _______ _______ _____ _____    ______ ____
ROOT
ATOM      1  O   UNL     1      37.413 -19.469 -20.967  0.00  0.00    -0.479 OA
ATOM      2  C   UNL     1      35.071 -19.159 -21.597  0.00  0.00    +0.072 C 
ATOM      3  C   UNL     1      35.540 -17.745 -21.293  0.00  0.00    +0.085 C 
ATOM      4  C   UNL     1      36.510 -18.745 -21.884  0.00  0.00    +0.174 C 
ATOM      5  C   UNL     1      35.254 -20.241 -20.596  0.00  0.00    +0.018 C 
ATOM      6  C   UNL     1      36.614 -20.375 -20.286  0.00  0.00    +0.135 C 
ATOM      7  C   UNL     1      34.330 -21.069 -19.978  0.00  0.00    +0.036 C 
ATOM      8  C   UNL     1      37.089 -21.301 -19.378  0.00  0.00    +0.040 C 
ATOM      9  C   UNL     1      34.787 -22.018 -19.057  0.00  0.00    +0.145 C 
ATOM     10  C   UNL     1      36.156 -22.132 -18.759  0.00  0.00    +0.041 C 
ENDROOT
BRANCH   3  13
ATOM     11  N   UNL     1      34.770 -16.683 -23.474  0.00  0.00    -0.318 N 
ATOM     12  N   UNL     1      34.806 -15.388 -21.667  0.00  0.00    -0.318 N 
ATOM     13  C   UNL     1      35.037 -16.593 -22.135  0.00  0.00    +0.148 C 
ATOM     14  C   UNL     1      34.336 -15.452 -23.896  0.00  0.00    +0.059 C 
ATOM     15  C   UNL     1      34.367 -14.661 -22.752  0.00  0.00    +0.059 C 
ATOM     16  C   UNL     1      33.932 -14.977 -25.145  0.00  0.00    +0.019 C 
ATOM     17  C   UNL     1      33.976 -13.315 -22.838  0.00  0.00    +0.016 C 
ATOM     18  C   UNL     1      33.546 -13.634 -25.213  0.00  0.00    +0.073 C 
ATOM     19  C   UNL     1      33.567 -12.817 -24.081  0.00  0.00    +0.005 C 
ATOM     20  H   UNL     1      34.870 -17.486 -24.033  0.00  0.00    +0.148 HD
ATOM     21  H   UNL     1      34.920 -15.072 -20.742  0.00  0.00    +0.148 HD
BRANCH  18  25
ATOM     22  F   UNL     1      33.955 -13.340 -27.551  0.00  0.00    -0.166 F 
ATOM     23  F   UNL     1      31.886 -13.534 -26.932  0.00  0.00    -0.166 F 
ATOM     24  F   UNL     1      32.983 -11.710 -26.489  0.00  0.00    -0.166 F 
ATOM     25  C   UNL     1      33.101 -13.068 -26.521  0.00  0.00    +0.419 C 
ENDBRANCH  18  25
ENDBRANCH   3  13
BRANCH   9  26
ATOM     26  O   UNL     1      33.880 -22.853 -18.428  0.00  0.00    -0.454 OA
BRANCH  26  30
ATOM     27  O   UNL     1      30.080 -24.488 -13.627  0.00  0.00    -0.275 OA
ATOM     28  N   UNL     1      32.313 -24.196 -14.077  0.00  0.00    -0.270 N 
ATOM     29  N   UNL     1      34.619 -23.833 -14.460  0.00  0.00    -0.229 NA
ATOM     30  C   UNL     1      34.102 -23.157 -17.119  0.00  0.00    +0.146 C 
ATOM     31  C   UNL     1      33.049 -23.498 -16.267  0.00  0.00    +0.045 C 
ATOM     32  C   UNL     1      31.644 -23.623 -16.770  0.00  0.00    +0.042 C 
ATOM     33  C   UNL     1      35.405 -23.137 -16.636  0.00  0.00    +0.058 C 
ATOM     34  C   UNL     1      33.356 -23.825 -14.947  0.00  0.00    +0.133 C 
ATOM     35  C   UNL     1      30.645 -23.345 -15.657  0.00  0.00    +0.090 C 
ATOM     36  C   UNL     1      30.970 -24.092 -14.379  0.00  0.00    +0.227 C 
ATOM     37  C   UNL     1      35.608 -23.484 -15.312  0.00  0.00    +0.103 C 
ATOM     38  H   UNL     1      32.558 -24.554 -13.192  0.00  0.00    +0.156 HD
ENDBRANCH  26  30
ENDBRANCH   9  26
TORSDOF 4
ENDMDL
MODEL 6
REMARK VINA RESULT:     -12.6      1.724      2.293
REMARK  Name = 89670174
REMARK  4 active torsions:
REMARK  status: ('A' for Active; 'I' for Inactive)
REMARK    1  A    between atoms: C_3  and  C_13
REMARK    2  A    between atoms: C_9  and  O_26
REMARK    3  A    between atoms: C_18  and  C_25
REMARK    4  A    between atoms: O_26  and  C_30
REMARK                            x       y       z     vdW  Elec       q    Type
REMARK                         _______ _______ _______ _____ _____    ______ ____
ROOT
ATOM      1  O   UNL     1      34.699 -19.798 -23.787  0.00  0.00    -0.479 OA
ATOM      2  C   UNL     1      35.050 -19.012 -21.498  0.00  0.00    +0.072 C 
ATOM      3  C   UNL     1      33.911 -20.009 -21.353  0.00  0.00    +0.085 C 
ATOM      4  C   UNL     1      34.976 -20.236 -22.404  0.00  0.00    +0.174 C 
ATOM      5  C   UNL     1      34.950 -17.898 -22.475  0.00  0.00    +0.018 C 
ATOM      6  C   UNL     1      34.760 -18.413 -23.764  0.00  0.00    +0.135 C 
ATOM      7  C   UNL     1      35.016 -16.525 -22.293  0.00  0.00    +0.036 C 
ATOM      8  C   UNL     1      34.628 -17.610 -24.881  0.00  0.00    +0.040 C 
ATOM      9  C   UNL     1      34.888 -15.691 -23.409  0.00  0.00    +0.145 C 
ATOM     10  C   UNL     1      34.695 -16.231 -24.693  0.00  0.00    +0.041 C 
ENDROOT
BRANCH   3  13
ATOM     11  N   UNL     1      32.691 -21.278 -19.515  0.00  0.00    -0.318 N 
ATOM     12  N   UNL     1      34.910 -21.410 -19.544  0.00  0.00    -0.318 N 
ATOM     13  C   UNL     1      33.851 -20.903 -20.134  0.00  0.00    +0.148 C 
ATOM     14  C   UNL     1      33.024 -22.082 -18.454  0.00  0.00    +0.059 C 
ATOM     15  C   UNL     1      34.414 -22.149 -18.493  0.00  0.00    +0.059 C 
ATOM     16  C   UNL     1      32.252 -22.735 -17.493  0.00  0.00    +0.019 C 
ATOM     17  C   UNL     1      35.090 -22.909 -17.524  0.00  0.00    +0.016 C 
ATOM     18  C   UNL     1      32.942 -23.487 -16.536  0.00  0.00    +0.073 C 
ATOM     19  C   UNL     1      34.335 -23.573 -16.550  0.00  0.00    +0.005 C 
ATOM     20  H   UNL     1      31.780 -21.018 -19.782  0.00  0.00    +0.148 HD
ATOM     21  H   UNL     1      35.854 -21.289 -19.797  0.00  0.00    +0.148 HD
BRANCH  18  25
ATOM     22  F   UNL     1      32.913 -25.133 -14.802  0.00  0.00    -0.166 F 
ATOM     23  F   UNL     1      31.651 -23.392 -14.524  0.00  0.00    -0.166 F 
ATOM     24  F   UNL     1      31.109 -24.900 -15.993  0.00  0.00    -0.166 F 
ATOM     25  C   UNL     1      32.171 -24.212 -15.483  0.00  0.00    +0.419 C 
ENDBRANCH  18  25
ENDBRANCH   3  13
BRANCH   9  26
ATOM     26  O   UNL     1      34.949 -14.319 -23.248  0.00  0.00    -0.454 OA
BRANCH  26  30
ATOM     27  O   UNL     1      32.072  -8.697 -23.789  0.00  0.00    -0.275 OA
ATOM     28  N   UNL     1      31.941 -10.623 -22.545  0.00  0.00    -0.270 N 
ATOM     29  N   UNL     1      31.810 -12.551 -21.180  0.00  0.00    -0.229 NA
ATOM     30  C   UNL     1      33.935 -13.715 -22.568  0.00  0.00    +0.146 C 
ATOM     31  C   UNL     1      33.487 -12.439 -22.917  0.00  0.00    +0.045 C 
ATOM     32  C   UNL     1      34.043 -11.711 -24.102  0.00  0.00    +0.042 C 
ATOM     33  C   UNL     1      33.333 -14.396 -21.516  0.00  0.00    +0.058 C 
ATOM     34  C   UNL     1      32.426 -11.897 -22.194  0.00  0.00    +0.133 C 
ATOM     35  C   UNL     1      33.930 -10.207 -23.914  0.00  0.00    +0.090 C 
ATOM     36  C   UNL     1      32.553  -9.777 -23.448  0.00  0.00    +0.227 C 
ATOM     37  C   UNL     1      32.282 -13.777 -20.864  0.00  0.00    +0.103 C 
ATOM     38  H   UNL     1      31.109 -10.314 -22.118  0.00  0.00    +0.156 HD
ENDBRANCH  26  30
ENDBRANCH   9  26
TORSDOF 4
ENDMDL
MODEL 7
REMARK VINA RESULT:     -12.4      5.585     11.151
REMARK  Name = 89670174
REMARK  4 active torsions:
REMARK  status: ('A' for Active; 'I' for Inactive)
REMARK    1  A    between atoms: C_3  and  C_13
REMARK    2  A    between atoms: C_9  and  O_26
REMARK    3  A    between atoms: C_18  and  C_25
REMARK    4  A    between atoms: O_26  and  C_30
REMARK                            x       y       z     vdW  Elec       q    Type
REMARK                         _______ _______ _______ _____ _____    ______ ____
ROOT
ATOM      1  O   UNL     1      37.290 -18.920 -21.471  0.00  0.00    -0.479 OA
ATOM      2  C   UNL     1      34.871 -18.573 -21.417  0.00  0.00    +0.072 C 
ATOM      3  C   UNL     1      35.426 -17.229 -20.970  0.00  0.00    +0.085 C 
ATOM      4  C   UNL     1      36.197 -18.063 -21.971  0.00  0.00    +0.174 C 
ATOM      5  C   UNL     1      35.284 -19.821 -20.727  0.00  0.00    +0.018 C 
ATOM      6  C   UNL     1      36.675 -19.967 -20.802  0.00  0.00    +0.135 C 
ATOM      7  C   UNL     1      34.532 -20.784 -20.071  0.00  0.00    +0.036 C 
ATOM      8  C   UNL     1      37.349 -21.035 -20.242  0.00  0.00    +0.040 C 
ATOM      9  C   UNL     1      35.192 -21.878 -19.499  0.00  0.00    +0.145 C 
ATOM     10  C   UNL     1      36.589 -22.002 -19.584  0.00  0.00    +0.041 C 
ENDROOT
BRANCH   3  13
ATOM     11  N   UNL     1      33.905 -15.218 -20.627  0.00  0.00    -0.318 N 
ATOM     12  N   UNL     1      34.889 -15.424 -22.610  0.00  0.00    -0.318 N 
ATOM     13  C   UNL     1      34.745 -15.954 -21.416  0.00  0.00    +0.148 C 
ATOM     14  C   UNL     1      33.480 -14.139 -21.361  0.00  0.00    +0.059 C 
ATOM     15  C   UNL     1      34.108 -14.290 -22.594  0.00  0.00    +0.059 C 
ATOM     16  C   UNL     1      32.626 -13.077 -21.060  0.00  0.00    +0.019 C 
ATOM     17  C   UNL     1      33.883 -13.335 -23.599  0.00  0.00    +0.016 C 
ATOM     18  C   UNL     1      32.413 -12.135 -22.073  0.00  0.00    +0.073 C 
ATOM     19  C   UNL     1      33.030 -12.260 -23.320  0.00  0.00    +0.005 C 
ATOM     20  H   UNL     1      33.651 -15.424 -19.699  0.00  0.00    +0.148 HD
ATOM     21  H   UNL     1      35.438 -15.762 -23.354  0.00  0.00    +0.148 HD
BRANCH  18  25
ATOM     22  F   UNL     1      30.199 -11.324 -21.672  0.00  0.00    -0.166 F 
ATOM     23  F   UNL     1      31.821 -10.288 -20.673  0.00  0.00    -0.166 F 
ATOM     24  F   UNL     1      31.542 -10.053 -22.816  0.00  0.00    -0.166 F 
ATOM     25  C   UNL     1      31.512 -10.975 -21.811  0.00  0.00    +0.419 C 
ENDBRANCH  18  25
ENDBRANCH   3  13
BRANCH   9  26
ATOM     26  O   UNL     1      34.460 -22.849 -18.839  0.00  0.00    -0.454 OA
BRANCH  26  30
ATOM     27  O   UNL     1      30.515 -24.074 -14.032  0.00  0.00    -0.275 OA
ATOM     28  N   UNL     1      32.748 -23.704 -14.419  0.00  0.00    -0.270 N 
ATOM     29  N   UNL     1      35.047 -23.251 -14.746  0.00  0.00    -0.229 NA
ATOM     30  C   UNL     1      34.630 -22.964 -17.492  0.00  0.00    +0.146 C 
ATOM     31  C   UNL     1      33.556 -23.255 -16.649  0.00  0.00    +0.045 C 
ATOM     32  C   UNL     1      32.187 -23.533 -17.191  0.00  0.00    +0.042 C 
ATOM     33  C   UNL     1      35.903 -22.800 -16.959  0.00  0.00    +0.058 C 
ATOM     34  C   UNL     1      33.811 -23.386 -15.285  0.00  0.00    +0.133 C 
ATOM     35  C   UNL     1      31.118 -23.174 -16.171  0.00  0.00    +0.090 C 
ATOM     36  C   UNL     1      31.419 -23.725 -14.791  0.00  0.00    +0.227 C 
ATOM     37  C   UNL     1      36.057 -22.956 -15.594  0.00  0.00    +0.103 C 
ATOM     38  H   UNL     1      32.966 -23.926 -13.485  0.00  0.00    +0.156 HD
ENDBRANCH  26  30
ENDBRANCH   9  26
TORSDOF 4
ENDMDL
MODEL 8
REMARK VINA RESULT:     -12.2      5.890     11.468
REMARK  Name = 89670174
REMARK  4 active torsions:
REMARK  status: ('A' for Active; 'I' for Inactive)
REMARK    1  A    between atoms: C_3  and  C_13
REMARK    2  A    between atoms: C_9  and  O_26
REMARK    3  A    between atoms: C_18  and  C_25
REMARK    4  A    between atoms: O_26  and  C_30
REMARK                            x       y       z     vdW  Elec       q    Type
REMARK                         _______ _______ _______ _____ _____    ______ ____
ROOT
ATOM      1  O   UNL     1      37.274 -19.750 -19.920  0.00  0.00    -0.479 OA
ATOM      2  C   UNL     1      35.354 -20.242 -21.352  0.00  0.00    +0.072 C 
ATOM      3  C   UNL     1      35.294 -18.731 -21.196  0.00  0.00    +0.085 C 
ATOM      4  C   UNL     1      36.636 -19.429 -21.213  0.00  0.00    +0.174 C 
ATOM      5  C   UNL     1      35.412 -21.117 -20.154  0.00  0.00    +0.018 C 
ATOM      6  C   UNL     1      36.535 -20.793 -19.382  0.00  0.00    +0.135 C 
ATOM      7  C   UNL     1      34.566 -22.133 -19.732  0.00  0.00    +0.036 C 
ATOM      8  C   UNL     1      36.847 -21.439 -18.202  0.00  0.00    +0.040 C 
ATOM      9  C   UNL     1      34.863 -22.804 -18.542  0.00  0.00    +0.145 C 
ATOM     10  C   UNL     1      35.995 -22.460 -17.783  0.00  0.00    +0.041 C 
ENDROOT
BRANCH   3  13
ATOM     11  N   UNL     1      34.714 -16.518 -22.312  0.00  0.00    -0.318 N 
ATOM     12  N   UNL     1      34.618 -18.348 -23.569  0.00  0.00    -0.318 N 
ATOM     13  C   UNL     1      34.874 -17.874 -22.371  0.00  0.00    +0.148 C 
ATOM     14  C   UNL     1      34.330 -16.087 -23.556  0.00  0.00    +0.059 C 
ATOM     15  C   UNL     1      34.278 -17.247 -24.323  0.00  0.00    +0.059 C 
ATOM     16  C   UNL     1      34.034 -14.820 -24.061  0.00  0.00    +0.019 C 
ATOM     17  C   UNL     1      33.909 -17.158 -25.676  0.00  0.00    +0.016 C 
ATOM     18  C   UNL     1      33.668 -14.750 -25.409  0.00  0.00    +0.073 C 
ATOM     19  C   UNL     1      33.607 -15.897 -26.204  0.00  0.00    +0.005 C 
ATOM     20  H   UNL     1      34.850 -15.951 -21.518  0.00  0.00    +0.148 HD
ATOM     21  H   UNL     1      34.661 -19.286 -23.865  0.00  0.00    +0.148 HD
BRANCH  18  25
ATOM     22  F   UNL     1      34.157 -13.079 -27.048  0.00  0.00    -0.166 F 
ATOM     23  F   UNL     1      32.074 -13.345 -26.509  0.00  0.00    -0.166 F 
ATOM     24  F   UNL     1      33.444 -12.403 -25.108  0.00  0.00    -0.166 F 
ATOM     25  C   UNL     1      33.342 -13.422 -26.009  0.00  0.00    +0.419 C 
ENDBRANCH  18  25
ENDBRANCH   3  13
BRANCH   9  26
ATOM     26  O   UNL     1      34.031 -23.819 -18.103  0.00  0.00    -0.454 OA
BRANCH  26  30
ATOM     27  O   UNL     1      34.893 -24.337 -11.845  0.00  0.00    -0.275 OA
ATOM     28  N   UNL     1      33.302 -23.636 -13.346  0.00  0.00    -0.270 N 
ATOM     29  N   UNL     1      31.596 -22.974 -14.845  0.00  0.00    -0.229 NA
ATOM     30  C   UNL     1      33.239 -23.567 -17.023  0.00  0.00    +0.146 C 
ATOM     31  C   UNL     1      33.704 -23.770 -15.722  0.00  0.00    +0.045 C 
ATOM     32  C   UNL     1      35.114 -24.195 -15.451  0.00  0.00    +0.042 C 
ATOM     33  C   UNL     1      31.952 -23.087 -17.232  0.00  0.00    +0.058 C 
ATOM     34  C   UNL     1      32.847 -23.463 -14.667  0.00  0.00    +0.133 C 
ATOM     35  C   UNL     1      35.206 -24.959 -14.140  0.00  0.00    +0.090 C 
ATOM     36  C   UNL     1      34.485 -24.260 -13.004  0.00  0.00    +0.227 C 
ATOM     37  C   UNL     1      31.180 -22.805 -16.120  0.00  0.00    +0.103 C 
ATOM     38  H   UNL     1      32.740 -23.288 -12.616  0.00  0.00    +0.156 HD
ENDBRANCH  26  30
ENDBRANCH   9  26
TORSDOF 4
ENDMDL
MODEL 9
REMARK VINA RESULT:     -12.1      2.889      4.455
REMARK  Name = 89670174
REMARK  4 active torsions:
REMARK  status: ('A' for Active; 'I' for Inactive)
REMARK    1  A    between atoms: C_3  and  C_13
REMARK    2  A    between atoms: C_9  and  O_26
REMARK    3  A    between atoms: C_18  and  C_25
REMARK    4  A    between atoms: O_26  and  C_30
REMARK                            x       y       z     vdW  Elec       q    Type
REMARK                         _______ _______ _______ _____ _____    ______ ____
ROOT
ATOM      1  O   UNL     1      32.792 -22.229 -19.733  0.00  0.00    -0.479 OA
ATOM      2  C   UNL     1      35.180 -22.161 -19.211  0.00  0.00    +0.072 C 
ATOM      3  C   UNL     1      34.524 -22.197 -17.839  0.00  0.00    +0.085 C 
ATOM      4  C   UNL     1      33.874 -22.918 -19.000  0.00  0.00    +0.174 C 
ATOM      5  C   UNL     1      34.783 -21.130 -20.204  0.00  0.00    +0.018 C 
ATOM      6  C   UNL     1      33.410 -21.228 -20.467  0.00  0.00    +0.135 C 
ATOM      7  C   UNL     1      35.533 -20.162 -20.853  0.00  0.00    +0.036 C 
ATOM      8  C   UNL     1      32.754 -20.393 -21.349  0.00  0.00    +0.040 C 
ATOM      9  C   UNL     1      34.891 -19.306 -21.754  0.00  0.00    +0.145 C 
ATOM     10  C   UNL     1      33.512 -19.421 -22.001  0.00  0.00    +0.041 C 
ENDROOT
BRANCH   3  13
ATOM     11  N   UNL     1      36.479 -22.866 -16.353  0.00  0.00    -0.318 N 
ATOM     12  N   UNL     1      34.536 -23.885 -15.999  0.00  0.00    -0.318 N 
ATOM     13  C   UNL     1      35.169 -22.991 -16.724  0.00  0.00    +0.148 C 
ATOM     14  C   UNL     1      36.705 -23.736 -15.317  0.00  0.00    +0.059 C 
ATOM     15  C   UNL     1      35.478 -24.360 -15.115  0.00  0.00    +0.059 C 
ATOM     16  C   UNL     1      37.845 -24.023 -14.564  0.00  0.00    +0.019 C 
ATOM     17  C   UNL     1      35.361 -25.330 -14.105  0.00  0.00    +0.016 C 
ATOM     18  C   UNL     1      37.710 -24.991 -13.563  0.00  0.00    +0.073 C 
ATOM     19  C   UNL     1      36.491 -25.634 -13.336  0.00  0.00    +0.005 C 
ATOM     20  H   UNL     1      37.141 -22.259 -16.756  0.00  0.00    +0.148 HD
ATOM     21  H   UNL     1      33.592 -24.156 -16.070  0.00  0.00    +0.148 HD
BRANCH  18  25
ATOM     22  F   UNL     1      39.208 -24.380 -11.802  0.00  0.00    -0.166 F 
ATOM     23  F   UNL     1      38.730 -26.486 -11.999  0.00  0.00    -0.166 F 
ATOM     24  F   UNL     1      40.023 -25.527 -13.460  0.00  0.00    -0.166 F 
ATOM     25  C   UNL     1      38.892 -25.339 -12.721  0.00  0.00    +0.419 C 
ENDBRANCH  18  25
ENDBRANCH   3  13
BRANCH   9  26
ATOM     26  O   UNL     1      35.622 -18.332 -22.411  0.00  0.00    -0.454 OA
BRANCH  26  30
ATOM     27  O   UNL     1      32.893 -14.324 -26.493  0.00  0.00    -0.275 OA
ATOM     28  N   UNL     1      33.544 -14.415 -24.293  0.00  0.00    -0.270 N 
ATOM     29  N   UNL     1      34.267 -14.423 -22.040  0.00  0.00    -0.229 NA
ATOM     30  C   UNL     1      35.191 -17.043 -22.314  0.00  0.00    +0.146 C 
ATOM     31  C   UNL     1      34.605 -16.392 -23.401  0.00  0.00    +0.045 C 
ATOM     32  C   UNL     1      34.350 -17.102 -24.695  0.00  0.00    +0.042 C 
ATOM     33  C   UNL     1      35.330 -16.378 -21.101  0.00  0.00    +0.058 C 
ATOM     34  C   UNL     1      34.161 -15.083 -23.218  0.00  0.00    +0.133 C 
ATOM     35  C   UNL     1      34.346 -16.122 -25.858  0.00  0.00    +0.090 C 
ATOM     36  C   UNL     1      33.498 -14.895 -25.586  0.00  0.00    +0.227 C 
ATOM     37  C   UNL     1      34.853 -15.083 -21.017  0.00  0.00    +0.103 C 
ATOM     38  H   UNL     1      33.116 -13.547 -24.110  0.00  0.00    +0.156 HD
ENDBRANCH  26  30
ENDBRANCH   9  26
TORSDOF 4
ENDMDL
