MODEL 1
REMARK VINA RESULT:     -11.7      0.000      0.000
REMARK  Name = 5496659
REMARK  9 active torsions:
REMARK  status: ('A' for Active; 'I' for Inactive)
REMARK    1  A    between atoms: C_1  and  N_4
REMARK    2  A    between atoms: C_1  and  C_20
REMARK    3  A    between atoms: C_5  and  C_7
REMARK    4  A    between atoms: C_10  and  C_15
REMARK    5  A    between atoms: C_20  and  C_22
REMARK    6  A    between atoms: C_20  and  C_25
REMARK    7  A    between atoms: C_22  and  O_23
REMARK    8  A    between atoms: C_25  and  C_26
REMARK    9  A    between atoms: C_29  and  C_34
REMARK                            x       y       z     vdW  Elec       q    Type
REMARK                         _______ _______ _______ _____ _____    ______ ____
ROOT
ATOM      1  C   UNL     1      33.522 -23.986 -15.928  0.00  0.00    +0.083 C 
ATOM      2  C   UNL     1      32.248 -23.668 -15.147  0.00  0.00    +0.022 C 
ENDROOT
BRANCH   1   4
ATOM      3  O   UNL     1      33.748 -24.515 -18.740  0.00  0.00    -0.270 OA
ATOM      4  N   UNL     1      33.722 -23.012 -16.975  0.00  0.00    -0.302 N 
ATOM      5  C   UNL     1      33.819 -23.366 -18.312  0.00  0.00    +0.246 C 
ATOM      6  H   UNL     1      33.792 -22.060 -16.731  0.00  0.00    +0.150 HD
BRANCH   5   7
ATOM      7  C   UNL     1      34.048 -22.250 -19.264  0.00  0.00    +0.053 C 
ATOM      8  C   UNL     1      35.346 -21.930 -19.664  0.00  0.00    +0.005 C 
ATOM      9  C   UNL     1      32.967 -21.520 -19.758  0.00  0.00    +0.005 C 
ATOM     10  C   UNL     1      34.480 -20.151 -21.051  0.00  0.00    +0.000 C 
ATOM     11  C   UNL     1      35.562 -20.880 -20.557  0.00  0.00    +0.000 C 
ATOM     12  C   UNL     1      33.182 -20.471 -20.651  0.00  0.00    +0.000 C 
BRANCH  10  15
ATOM     13  O   UNL     1      35.322 -16.001 -24.574  0.00  0.00    -0.163 OA
ATOM     14  N   UNL     1      35.128 -16.961 -23.760  0.00  0.00    -0.127 N 
ATOM     15  C   UNL     1      34.702 -19.062 -21.977  0.00  0.00    +0.003 C 
ATOM     16  C   UNL     1      34.398 -19.220 -23.325  0.00  0.00    +0.022 C 
ATOM     17  C   UNL     1      35.218 -17.854 -21.520  0.00  0.00    +0.022 C 
ATOM     18  C   UNL     1      34.615 -18.165 -24.204  0.00  0.00    +0.121 C 
ATOM     19  C   UNL     1      35.426 -16.814 -22.420  0.00  0.00    +0.121 C 
ENDBRANCH  10  15
ENDBRANCH   5   7
ENDBRANCH   1   4
BRANCH   1  20
ATOM     20  C   UNL     1      34.756 -24.127 -15.006  0.00  0.00    +0.121 C 
BRANCH  20  22
ATOM     21  O   UNL     1      35.942 -22.048 -14.543  0.00  0.00    -0.250 OA
ATOM     22  C   UNL     1      35.773 -23.021 -15.268  0.00  0.00    +0.319 C 
BRANCH  22  23
ATOM     23  O   UNL     1      36.453 -23.285 -16.422  0.00  0.00    -0.444 OA
ATOM     24  C   UNL     1      37.523 -22.385 -16.726  0.00  0.00    +0.256 C 
ENDBRANCH  22  23
ENDBRANCH  20  22
BRANCH  20  25
ATOM     25  C   UNL     1      35.431 -25.507 -15.150  0.00  0.00    +0.039 C 
BRANCH  25  26
ATOM     26  C   UNL     1      36.660 -25.650 -14.282  0.00  0.00    -0.021 C 
ATOM     27  C   UNL     1      37.889 -25.970 -14.860  0.00  0.00    -0.002 C 
ATOM     28  C   UNL     1      36.566 -25.465 -12.903  0.00  0.00    -0.004 C 
ATOM     29  C   UNL     1      39.022 -26.105 -14.059  0.00  0.00    +0.030 C 
ATOM     30  C   UNL     1      37.700 -25.598 -12.102  0.00  0.00    -0.000 C 
ATOM     31  C   UNL     1      38.928 -25.919 -12.680  0.00  0.00    +0.003 C 
BRANCH  29  34
ATOM     32  N   UNL     1      41.291 -27.109 -13.940  0.00  0.00    -0.343 N 
ATOM     33  N   UNL     1      40.548 -26.106 -15.916  0.00  0.00    -0.285 NA
ATOM     34  C   UNL     1      40.303 -26.440 -14.662  0.00  0.00    +0.117 C 
ATOM     35  H   UNL     1      42.150 -27.327 -14.368  0.00  0.00    +0.144 HD
ATOM     36  H   UNL     1      41.128 -27.364 -13.003  0.00  0.00    +0.144 HD
ATOM     37  H   UNL     1      41.415 -26.333 -16.326  0.00  0.00    +0.188 HD
ENDBRANCH  29  34
ENDBRANCH  25  26
ENDBRANCH  20  25
ENDBRANCH   1  20
TORSDOF 9
ENDMDL
MODEL 2
REMARK VINA RESULT:     -11.0      1.698      2.957
REMARK  Name = 5496659
REMARK  9 active torsions:
REMARK  status: ('A' for Active; 'I' for Inactive)
REMARK    1  A    between atoms: C_1  and  N_4
REMARK    2  A    between atoms: C_1  and  C_20
REMARK    3  A    between atoms: C_5  and  C_7
REMARK    4  A    between atoms: C_10  and  C_15
REMARK    5  A    between atoms: C_20  and  C_22
REMARK    6  A    between atoms: C_20  and  C_25
REMARK    7  A    between atoms: C_22  and  O_23
REMARK    8  A    between atoms: C_25  and  C_26
REMARK    9  A    between atoms: C_29  and  C_34
REMARK                            x       y       z     vdW  Elec       q    Type
REMARK                         _______ _______ _______ _____ _____    ______ ____
ROOT
ATOM      1  C   UNL     1      32.050 -23.712 -16.097  0.00  0.00    +0.083 C 
ATOM      2  C   UNL     1      30.900 -23.103 -15.297  0.00  0.00    +0.022 C 
ENDROOT
BRANCH   1   4
ATOM      3  O   UNL     1      33.922 -24.272 -18.200  0.00  0.00    -0.270 OA
ATOM      4  N   UNL     1      32.446 -22.818 -17.160  0.00  0.00    -0.302 N 
ATOM      5  C   UNL     1      33.362 -23.181 -18.135  0.00  0.00    +0.246 C 
ATOM      6  H   UNL     1      32.050 -21.917 -17.194  0.00  0.00    +0.150 HD
BRANCH   5   7
ATOM      7  C   UNL     1      33.682 -22.140 -19.144  0.00  0.00    +0.053 C 
ATOM      8  C   UNL     1      32.654 -21.443 -19.778  0.00  0.00    +0.005 C 
ATOM      9  C   UNL     1      35.011 -21.859 -19.459  0.00  0.00    +0.005 C 
ATOM     10  C   UNL     1      34.284 -20.185 -21.041  0.00  0.00    +0.000 C 
ATOM     11  C   UNL     1      32.954 -20.466 -20.727  0.00  0.00    +0.000 C 
ATOM     12  C   UNL     1      35.313 -20.882 -20.407  0.00  0.00    +0.000 C 
BRANCH  10  15
ATOM     13  O   UNL     1      35.482 -16.331 -24.790  0.00  0.00    -0.163 OA
ATOM     14  N   UNL     1      35.205 -17.221 -23.924  0.00  0.00    -0.127 N 
ATOM     15  C   UNL     1      34.598 -19.172 -22.026  0.00  0.00    +0.003 C 
ATOM     16  C   UNL     1      35.267 -18.014 -21.644  0.00  0.00    +0.022 C 
ATOM     17  C   UNL     1      34.232 -19.356 -23.354  0.00  0.00    +0.022 C 
ATOM     18  C   UNL     1      35.564 -17.049 -22.600  0.00  0.00    +0.121 C 
ATOM     19  C   UNL     1      34.540 -18.375 -24.292  0.00  0.00    +0.121 C 
ENDBRANCH  10  15
ENDBRANCH   5   7
ENDBRANCH   1   4
BRANCH   1  20
ATOM     20  C   UNL     1      33.236 -24.126 -15.196  0.00  0.00    +0.121 C 
BRANCH  20  22
ATOM     21  O   UNL     1      33.091 -24.135 -12.762  0.00  0.00    -0.250 OA
ATOM     22  C   UNL     1      32.754 -24.620 -13.836  0.00  0.00    +0.319 C 
BRANCH  22  23
ATOM     23  O   UNL     1      31.901 -25.672 -14.005  0.00  0.00    -0.444 OA
ATOM     24  C   UNL     1      30.601 -25.510 -13.428  0.00  0.00    +0.256 C 
ENDBRANCH  22  23
ENDBRANCH  20  22
BRANCH  20  25
ATOM     25  C   UNL     1      34.249 -22.976 -15.008  0.00  0.00    +0.039 C 
BRANCH  25  26
ATOM     26  C   UNL     1      35.682 -23.426 -15.172  0.00  0.00    -0.021 C 
ATOM     27  C   UNL     1      36.088 -24.660 -14.665  0.00  0.00    -0.002 C 
ATOM     28  C   UNL     1      36.600 -22.605 -15.828  0.00  0.00    -0.004 C 
ATOM     29  C   UNL     1      37.411 -25.074 -14.815  0.00  0.00    +0.030 C 
ATOM     30  C   UNL     1      37.923 -23.020 -15.978  0.00  0.00    -0.000 C 
ATOM     31  C   UNL     1      38.329 -24.253 -15.471  0.00  0.00    +0.003 C 
BRANCH  29  34
ATOM     32  N   UNL     1      37.107 -27.010 -13.288  0.00  0.00    -0.343 N 
ATOM     33  N   UNL     1      38.933 -26.932 -14.745  0.00  0.00    -0.285 NA
ATOM     34  C   UNL     1      37.836 -26.361 -14.284  0.00  0.00    +0.117 C 
ATOM     35  H   UNL     1      37.413 -27.879 -12.944  0.00  0.00    +0.144 HD
ATOM     36  H   UNL     1      36.288 -26.598 -12.930  0.00  0.00    +0.144 HD
ATOM     37  H   UNL     1      39.222 -27.804 -14.387  0.00  0.00    +0.188 HD
ENDBRANCH  29  34
ENDBRANCH  25  26
ENDBRANCH  20  25
ENDBRANCH   1  20
TORSDOF 9
ENDMDL
MODEL 3
REMARK VINA RESULT:     -10.6      4.022     11.101
REMARK  Name = 5496659
REMARK  9 active torsions:
REMARK  status: ('A' for Active; 'I' for Inactive)
REMARK    1  A    between atoms: C_1  and  N_4
REMARK    2  A    between atoms: C_1  and  C_20
REMARK    3  A    between atoms: C_5  and  C_7
REMARK    4  A    between atoms: C_10  and  C_15
REMARK    5  A    between atoms: C_20  and  C_22
REMARK    6  A    between atoms: C_20  and  C_25
REMARK    7  A    between atoms: C_22  and  O_23
REMARK    8  A    between atoms: C_25  and  C_26
REMARK    9  A    between atoms: C_29  and  C_34
REMARK                            x       y       z     vdW  Elec       q    Type
REMARK                         _______ _______ _______ _____ _____    ______ ____
ROOT
ATOM      1  C   UNL     1      36.125 -19.761 -21.680  0.00  0.00    +0.083 C 
ATOM      2  C   UNL     1      37.412 -19.102 -21.188  0.00  0.00    +0.022 C 
ENDROOT
BRANCH   1   4
ATOM      3  O   UNL     1      36.992 -22.085 -20.234  0.00  0.00    -0.270 OA
ATOM      4  N   UNL     1      35.439 -20.399 -20.581  0.00  0.00    -0.302 N 
ATOM      5  C   UNL     1      35.940 -21.523 -19.943  0.00  0.00    +0.246 C 
ATOM      6  H   UNL     1      34.583 -20.021 -20.273  0.00  0.00    +0.150 HD
BRANCH   5   7
ATOM      7  C   UNL     1      35.103 -22.074 -18.847  0.00  0.00    +0.053 C 
ATOM      8  C   UNL     1      33.722 -22.185 -19.012  0.00  0.00    +0.005 C 
ATOM      9  C   UNL     1      35.696 -22.479 -17.652  0.00  0.00    +0.005 C 
ATOM     10  C   UNL     1      33.530 -23.108 -16.788  0.00  0.00    +0.000 C 
ATOM     11  C   UNL     1      32.936 -22.702 -17.983  0.00  0.00    +0.000 C 
ATOM     12  C   UNL     1      34.911 -22.996 -16.622  0.00  0.00    +0.000 C 
BRANCH  10  15
ATOM     13  O   UNL     1      30.430 -25.140 -12.713  0.00  0.00    -0.163 OA
ATOM     14  N   UNL     1      31.147 -24.671 -13.655  0.00  0.00    -0.127 N 
ATOM     15  C   UNL     1      32.716 -23.642 -15.718  0.00  0.00    +0.003 C 
ATOM     16  C   UNL     1      33.319 -24.235 -14.614  0.00  0.00    +0.022 C 
ATOM     17  C   UNL     1      31.329 -23.563 -15.792  0.00  0.00    +0.022 C 
ATOM     18  C   UNL     1      32.525 -24.744 -13.592  0.00  0.00    +0.121 C 
ATOM     19  C   UNL     1      30.558 -24.080 -14.756  0.00  0.00    +0.121 C 
ENDBRANCH  10  15
ENDBRANCH   5   7
ENDBRANCH   1   4
BRANCH   1  20
ATOM     20  C   UNL     1      35.219 -18.774 -22.453  0.00  0.00    +0.121 C 
BRANCH  20  22
ATOM     21  O   UNL     1      35.144 -20.387 -24.280  0.00  0.00    -0.250 OA
ATOM     22  C   UNL     1      34.656 -19.413 -23.719  0.00  0.00    +0.319 C 
BRANCH  22  23
ATOM     23  O   UNL     1      33.541 -18.736 -24.119  0.00  0.00    -0.444 OA
ATOM     24  C   UNL     1      33.458 -18.461 -25.521  0.00  0.00    +0.256 C 
ENDBRANCH  22  23
ENDBRANCH  20  22
BRANCH  20  25
ATOM     25  C   UNL     1      35.959 -17.468 -22.809  0.00  0.00    +0.039 C 
BRANCH  25  26
ATOM     26  C   UNL     1      35.151 -16.231 -22.488  0.00  0.00    -0.021 C 
ATOM     27  C   UNL     1      34.658 -15.433 -23.519  0.00  0.00    -0.002 C 
ATOM     28  C   UNL     1      34.901 -15.888 -21.159  0.00  0.00    -0.004 C 
ATOM     29  C   UNL     1      33.915 -14.291 -23.222  0.00  0.00    +0.030 C 
ATOM     30  C   UNL     1      34.158 -14.746 -20.862  0.00  0.00    -0.000 C 
ATOM     31  C   UNL     1      33.665 -13.947 -21.893  0.00  0.00    +0.003 C 
BRANCH  29  34
ATOM     32  N   UNL     1      32.766 -14.013 -25.407  0.00  0.00    -0.343 N 
ATOM     33  N   UNL     1      33.539 -12.144 -24.235  0.00  0.00    -0.285 NA
ATOM     34  C   UNL     1      33.402 -13.456 -24.298  0.00  0.00    +0.117 C 
ATOM     35  H   UNL     1      32.427 -13.430 -26.123  0.00  0.00    +0.144 HD
ATOM     36  H   UNL     1      32.657 -14.989 -25.473  0.00  0.00    +0.144 HD
ATOM     37  H   UNL     1      33.192 -11.578 -24.963  0.00  0.00    +0.188 HD
ENDBRANCH  29  34
ENDBRANCH  25  26
ENDBRANCH  20  25
ENDBRANCH   1  20
TORSDOF 9
ENDMDL
MODEL 4
REMARK VINA RESULT:     -10.5      7.186     15.001
REMARK  Name = 5496659
REMARK  9 active torsions:
REMARK  status: ('A' for Active; 'I' for Inactive)
REMARK    1  A    between atoms: C_1  and  N_4
REMARK    2  A    between atoms: C_1  and  C_20
REMARK    3  A    between atoms: C_5  and  C_7
REMARK    4  A    between atoms: C_10  and  C_15
REMARK    5  A    between atoms: C_20  and  C_22
REMARK    6  A    between atoms: C_20  and  C_25
REMARK    7  A    between atoms: C_22  and  O_23
REMARK    8  A    between atoms: C_25  and  C_26
REMARK    9  A    between atoms: C_29  and  C_34
REMARK                            x       y       z     vdW  Elec       q    Type
REMARK                         _______ _______ _______ _____ _____    ______ ____
ROOT
ATOM      1  C   UNL     1      33.626 -11.234 -24.026  0.00  0.00    +0.083 C 
ATOM      2  C   UNL     1      34.822 -10.510 -24.644  0.00  0.00    +0.022 C 
ENDROOT
BRANCH   1   4
ATOM      3  O   UNL     1      33.274 -13.780 -25.304  0.00  0.00    -0.270 OA
ATOM      4  N   UNL     1      34.034 -12.520 -23.512  0.00  0.00    -0.302 N 
ATOM      5  C   UNL     1      33.819 -13.701 -24.206  0.00  0.00    +0.246 C 
ATOM      6  H   UNL     1      34.481 -12.561 -22.635  0.00  0.00    +0.150 HD
BRANCH   5   7
ATOM      7  C   UNL     1      34.274 -14.943 -23.531  0.00  0.00    +0.053 C 
ATOM      8  C   UNL     1      34.407 -16.124 -24.259  0.00  0.00    +0.005 C 
ATOM      9  C   UNL     1      34.568 -14.927 -22.167  0.00  0.00    +0.005 C 
ATOM     10  C   UNL     1      35.128 -17.275 -22.260  0.00  0.00    +0.000 C 
ATOM     11  C   UNL     1      34.834 -17.291 -23.624  0.00  0.00    +0.000 C 
ATOM     12  C   UNL     1      34.994 -16.093 -21.532  0.00  0.00    +0.000 C 
BRANCH  10  15
ATOM     13  O   UNL     1      36.807 -21.881 -19.749  0.00  0.00    -0.163 OA
ATOM     14  N   UNL     1      36.419 -20.816 -20.328  0.00  0.00    -0.127 N 
ATOM     15  C   UNL     1      35.569 -18.484 -21.600  0.00  0.00    +0.003 C 
ATOM     16  C   UNL     1      34.644 -19.460 -21.243  0.00  0.00    +0.022 C 
ATOM     17  C   UNL     1      36.918 -18.674 -21.322  0.00  0.00    +0.022 C 
ATOM     18  C   UNL     1      35.080 -20.618 -20.610  0.00  0.00    +0.121 C 
ATOM     19  C   UNL     1      37.329 -19.841 -20.687  0.00  0.00    +0.121 C 
ENDBRANCH  10  15
ENDBRANCH   5   7
ENDBRANCH   1   4
BRANCH   1  20
ATOM     20  C   UNL     1      32.904 -10.372 -22.965  0.00  0.00    +0.121 C 
BRANCH  20  22
ATOM     21  O   UNL     1      30.714 -11.153 -22.231  0.00  0.00    -0.250 OA
ATOM     22  C   UNL     1      31.934 -11.209 -22.137  0.00  0.00    +0.319 C 
BRANCH  22  23
ATOM     23  O   UNL     1      32.633 -12.018 -21.288  0.00  0.00    -0.444 OA
ATOM     24  C   UNL     1      31.930 -13.173 -20.819  0.00  0.00    +0.256 C 
ENDBRANCH  22  23
ENDBRANCH  20  22
BRANCH  20  25
ATOM     25  C   UNL     1      32.158  -9.178 -23.598  0.00  0.00    +0.039 C 
BRANCH  25  26
ATOM     26  C   UNL     1      32.108  -7.971 -22.690  0.00  0.00    -0.021 C 
ATOM     27  C   UNL     1      31.629  -6.754 -23.174  0.00  0.00    -0.002 C 
ATOM     28  C   UNL     1      32.543  -8.074 -21.369  0.00  0.00    -0.004 C 
ATOM     29  C   UNL     1      31.585  -5.640 -22.337  0.00  0.00    +0.030 C 
ATOM     30  C   UNL     1      32.497  -6.960 -20.532  0.00  0.00    -0.000 C 
ATOM     31  C   UNL     1      32.020  -5.743 -21.015  0.00  0.00    +0.003 C 
BRANCH  29  34
ATOM     32  N   UNL     1      31.410  -3.922 -24.122  0.00  0.00    -0.343 N 
ATOM     33  N   UNL     1      30.316  -3.615 -22.080  0.00  0.00    -0.285 NA
ATOM     34  C   UNL     1      31.087  -4.370 -22.842  0.00  0.00    +0.117 C 
ATOM     35  H   UNL     1      31.063  -3.059 -24.444  0.00  0.00    +0.144 HD
ATOM     36  H   UNL     1      31.986  -4.469 -24.704  0.00  0.00    +0.144 HD
ATOM     37  H   UNL     1      29.979  -2.754 -22.421  0.00  0.00    +0.188 HD
ENDBRANCH  29  34
ENDBRANCH  25  26
ENDBRANCH  20  25
ENDBRANCH   1  20
TORSDOF 9
ENDMDL
MODEL 5
REMARK VINA RESULT:     -10.5      1.556      2.364
REMARK  Name = 5496659
REMARK  9 active torsions:
REMARK  status: ('A' for Active; 'I' for Inactive)
REMARK    1  A    between atoms: C_1  and  N_4
REMARK    2  A    between atoms: C_1  and  C_20
REMARK    3  A    between atoms: C_5  and  C_7
REMARK    4  A    between atoms: C_10  and  C_15
REMARK    5  A    between atoms: C_20  and  C_22
REMARK    6  A    between atoms: C_20  and  C_25
REMARK    7  A    between atoms: C_22  and  O_23
REMARK    8  A    between atoms: C_25  and  C_26
REMARK    9  A    between atoms: C_29  and  C_34
REMARK                            x       y       z     vdW  Elec       q    Type
REMARK                         _______ _______ _______ _____ _____    ______ ____
ROOT
ATOM      1  C   UNL     1      32.406 -24.236 -16.198  0.00  0.00    +0.083 C 
ATOM      2  C   UNL     1      30.885 -24.359 -16.122  0.00  0.00    +0.022 C 
ENDROOT
BRANCH   1   4
ATOM      3  O   UNL     1      33.826 -24.650 -18.659  0.00  0.00    -0.270 OA
ATOM      4  N   UNL     1      32.777 -23.225 -17.160  0.00  0.00    -0.302 N 
ATOM      5  C   UNL     1      33.466 -23.524 -18.326  0.00  0.00    +0.246 C 
ATOM      6  H   UNL     1      32.533 -22.288 -16.981  0.00  0.00    +0.150 HD
BRANCH   5   7
ATOM      7  C   UNL     1      33.795 -22.369 -19.199  0.00  0.00    +0.053 C 
ATOM      8  C   UNL     1      35.127 -22.043 -19.452  0.00  0.00    +0.005 C 
ATOM      9  C   UNL     1      32.772 -21.609 -19.766  0.00  0.00    +0.005 C 
ATOM     10  C   UNL     1      34.413 -20.198 -20.839  0.00  0.00    +0.000 C 
ATOM     11  C   UNL     1      35.437 -20.958 -20.272  0.00  0.00    +0.000 C 
ATOM     12  C   UNL     1      33.081 -20.524 -20.585  0.00  0.00    +0.000 C 
BRANCH  10  15
ATOM     13  O   UNL     1      35.624 -15.905 -24.071  0.00  0.00    -0.163 OA
ATOM     14  N   UNL     1      35.345 -16.898 -23.324  0.00  0.00    -0.127 N 
ATOM     15  C   UNL     1      34.732 -19.071 -21.688  0.00  0.00    +0.003 C 
ATOM     16  C   UNL     1      34.527 -19.153 -23.061  0.00  0.00    +0.022 C 
ATOM     17  C   UNL     1      35.243 -17.903 -21.132  0.00  0.00    +0.022 C 
ATOM     18  C   UNL     1      34.836 -18.063 -23.866  0.00  0.00    +0.121 C 
ATOM     19  C   UNL     1      35.545 -16.826 -21.959  0.00  0.00    +0.121 C 
ENDBRANCH  10  15
ENDBRANCH   5   7
ENDBRANCH   1   4
BRANCH   1  20
ATOM     20  C   UNL     1      33.045 -23.998 -14.810  0.00  0.00    +0.121 C 
BRANCH  20  22
ATOM     21  O   UNL     1      31.701 -22.071 -14.161  0.00  0.00    -0.250 OA
ATOM     22  C   UNL     1      32.119 -23.193 -13.904  0.00  0.00    +0.319 C 
BRANCH  22  23
ATOM     23  O   UNL     1      31.838 -23.912 -12.778  0.00  0.00    -0.444 OA
ATOM     24  C   UNL     1      30.509 -24.438 -12.700  0.00  0.00    +0.256 C 
ENDBRANCH  22  23
ENDBRANCH  20  22
BRANCH  20  25
ATOM     25  C   UNL     1      34.416 -23.297 -14.917  0.00  0.00    +0.039 C 
BRANCH  25  26
ATOM     26  C   UNL     1      35.487 -23.980 -14.098  0.00  0.00    -0.021 C 
ATOM     27  C   UNL     1      36.676 -24.387 -14.705  0.00  0.00    -0.002 C 
ATOM     28  C   UNL     1      35.287 -24.206 -12.736  0.00  0.00    -0.004 C 
ATOM     29  C   UNL     1      37.663 -25.019 -13.950  0.00  0.00    +0.030 C 
ATOM     30  C   UNL     1      36.275 -24.837 -11.981  0.00  0.00    -0.000 C 
ATOM     31  C   UNL     1      37.462 -25.245 -12.588  0.00  0.00    +0.003 C 
BRANCH  29  34
ATOM     32  N   UNL     1      39.425 -26.719 -14.367  0.00  0.00    -0.343 N 
ATOM     33  N   UNL     1      39.553 -24.615 -15.378  0.00  0.00    -0.285 NA
ATOM     34  C   UNL     1      38.901 -25.445 -14.583  0.00  0.00    +0.117 C 
ATOM     35  H   UNL     1      40.265 -26.986 -14.806  0.00  0.00    +0.144 HD
ATOM     36  H   UNL     1      38.955 -27.350 -13.776  0.00  0.00    +0.144 HD
ATOM     37  H   UNL     1      40.392 -24.902 -15.807  0.00  0.00    +0.188 HD
ENDBRANCH  29  34
ENDBRANCH  25  26
ENDBRANCH  20  25
ENDBRANCH   1  20
TORSDOF 9
ENDMDL
MODEL 6
REMARK VINA RESULT:     -10.4      3.047     11.046
REMARK  Name = 5496659
REMARK  9 active torsions:
REMARK  status: ('A' for Active; 'I' for Inactive)
REMARK    1  A    between atoms: C_1  and  N_4
REMARK    2  A    between atoms: C_1  and  C_20
REMARK    3  A    between atoms: C_5  and  C_7
REMARK    4  A    between atoms: C_10  and  C_15
REMARK    5  A    between atoms: C_20  and  C_22
REMARK    6  A    between atoms: C_20  and  C_25
REMARK    7  A    between atoms: C_22  and  O_23
REMARK    8  A    between atoms: C_25  and  C_26
REMARK    9  A    between atoms: C_29  and  C_34
REMARK                            x       y       z     vdW  Elec       q    Type
REMARK                         _______ _______ _______ _____ _____    ______ ____
ROOT
ATOM      1  C   UNL     1      36.629 -19.792 -21.111  0.00  0.00    +0.083 C 
ATOM      2  C   UNL     1      38.013 -19.196 -21.366  0.00  0.00    +0.022 C 
ENDROOT
BRANCH   1   4
ATOM      3  O   UNL     1      35.735 -22.438 -20.445  0.00  0.00    -0.270 OA
ATOM      4  N   UNL     1      36.575 -20.378 -19.792  0.00  0.00    -0.302 N 
ATOM      5  C   UNL     1      36.125 -21.670 -19.569  0.00  0.00    +0.246 C 
ATOM      6  H   UNL     1      36.867 -19.839 -19.021  0.00  0.00    +0.150 HD
BRANCH   5   7
ATOM      7  C   UNL     1      36.107 -22.116 -18.153  0.00  0.00    +0.053 C 
ATOM      8  C   UNL     1      37.202 -21.863 -17.327  0.00  0.00    +0.005 C 
ATOM      9  C   UNL     1      34.994 -22.788 -17.648  0.00  0.00    +0.005 C 
ATOM     10  C   UNL     1      36.071 -22.953 -15.492  0.00  0.00    +0.000 C 
ATOM     11  C   UNL     1      37.185 -22.282 -15.997  0.00  0.00    +0.000 C 
ATOM     12  C   UNL     1      34.975 -23.207 -16.318  0.00  0.00    +0.000 C 
BRANCH  10  15
ATOM     13  O   UNL     1      35.997 -24.613 -10.240  0.00  0.00    -0.163 OA
ATOM     14  N   UNL     1      36.015 -24.230 -11.454  0.00  0.00    -0.127 N 
ATOM     15  C   UNL     1      36.052 -23.390 -14.113  0.00  0.00    +0.003 C 
ATOM     16  C   UNL     1      37.128 -23.108 -13.278  0.00  0.00    +0.022 C 
ATOM     17  C   UNL     1      34.958 -24.092 -13.620  0.00  0.00    +0.022 C 
ATOM     18  C   UNL     1      37.097 -23.532 -11.955  0.00  0.00    +0.121 C 
ATOM     19  C   UNL     1      34.951 -24.506 -12.291  0.00  0.00    +0.121 C 
ENDBRANCH  10  15
ENDBRANCH   5   7
ENDBRANCH   1   4
BRANCH   1  20
ATOM     20  C   UNL     1      35.496 -18.769 -21.354  0.00  0.00    +0.121 C 
BRANCH  20  22
ATOM     21  O   UNL     1      33.795 -19.700 -22.832  0.00  0.00    -0.250 OA
ATOM     22  C   UNL     1      34.182 -19.467 -21.693  0.00  0.00    +0.319 C 
BRANCH  22  23
ATOM     23  O   UNL     1      33.519 -19.784 -20.543  0.00  0.00    -0.444 OA
ATOM     24  C   UNL     1      32.660 -20.926 -20.622  0.00  0.00    +0.256 C 
ENDBRANCH  22  23
ENDBRANCH  20  22
BRANCH  20  25
ATOM     25  C   UNL     1      35.856 -17.760 -22.464  0.00  0.00    +0.039 C 
BRANCH  25  26
ATOM     26  C   UNL     1      35.134 -16.440 -22.312  0.00  0.00    -0.021 C 
ATOM     27  C   UNL     1      34.652 -15.775 -23.439  0.00  0.00    -0.002 C 
ATOM     28  C   UNL     1      34.953 -15.887 -21.044  0.00  0.00    -0.004 C 
ATOM     29  C   UNL     1      33.988 -14.557 -23.298  0.00  0.00    +0.030 C 
ATOM     30  C   UNL     1      34.288 -14.669 -20.904  0.00  0.00    -0.000 C 
ATOM     31  C   UNL     1      33.807 -14.003 -22.031  0.00  0.00    +0.003 C 
BRANCH  29  34
ATOM     32  N   UNL     1      32.799 -14.540 -25.479  0.00  0.00    -0.343 N 
ATOM     33  N   UNL     1      33.686 -12.562 -24.604  0.00  0.00    -0.285 NA
ATOM     34  C   UNL     1      33.487 -13.861 -24.474  0.00  0.00    +0.117 C 
ATOM     35  H   UNL     1      32.469 -14.049 -26.265  0.00  0.00    +0.144 HD
ATOM     36  H   UNL     1      32.643 -15.509 -25.400  0.00  0.00    +0.144 HD
ATOM     37  H   UNL     1      33.347 -12.090 -25.400  0.00  0.00    +0.188 HD
ENDBRANCH  29  34
ENDBRANCH  25  26
ENDBRANCH  20  25
ENDBRANCH   1  20
TORSDOF 9
ENDMDL
MODEL 7
REMARK VINA RESULT:     -10.4      7.944     13.320
REMARK  Name = 5496659
REMARK  9 active torsions:
REMARK  status: ('A' for Active; 'I' for Inactive)
REMARK    1  A    between atoms: C_1  and  N_4
REMARK    2  A    between atoms: C_1  and  C_20
REMARK    3  A    between atoms: C_5  and  C_7
REMARK    4  A    between atoms: C_10  and  C_15
REMARK    5  A    between atoms: C_20  and  C_22
REMARK    6  A    between atoms: C_20  and  C_25
REMARK    7  A    between atoms: C_22  and  O_23
REMARK    8  A    between atoms: C_25  and  C_26
REMARK    9  A    between atoms: C_29  and  C_34
REMARK                            x       y       z     vdW  Elec       q    Type
REMARK                         _______ _______ _______ _____ _____    ______ ____
ROOT
ATOM      1  C   UNL     1      33.876 -13.102 -24.519  0.00  0.00    +0.083 C 
ATOM      2  C   UNL     1      33.363 -13.590 -25.873  0.00  0.00    +0.022 C 
ENDROOT
BRANCH   1   4
ATOM      3  O   UNL     1      35.446 -10.699 -24.492  0.00  0.00    -0.270 OA
ATOM      4  N   UNL     1      33.400 -11.764 -24.258  0.00  0.00    -0.302 N 
ATOM      5  C   UNL     1      34.240 -10.660 -24.268  0.00  0.00    +0.246 C 
ATOM      6  H   UNL     1      32.443 -11.630 -24.066  0.00  0.00    +0.150 HD
BRANCH   5   7
ATOM      7  C   UNL     1      33.601  -9.357 -23.956  0.00  0.00    +0.053 C 
ATOM      8  C   UNL     1      32.245  -9.304 -23.634  0.00  0.00    +0.005 C 
ATOM      9  C   UNL     1      34.356  -8.185 -23.985  0.00  0.00    +0.005 C 
ATOM     10  C   UNL     1      32.401  -6.907 -23.370  0.00  0.00    +0.000 C 
ATOM     11  C   UNL     1      31.644  -8.079 -23.341  0.00  0.00    +0.000 C 
ATOM     12  C   UNL     1      33.757  -6.961 -23.692  0.00  0.00    +0.000 C 
BRANCH  10  15
ATOM     13  O   UNL     1      30.038  -2.066 -22.219  0.00  0.00    -0.163 OA
ATOM     14  N   UNL     1      30.583  -3.185 -22.485  0.00  0.00    -0.127 N 
ATOM     15  C   UNL     1      31.780  -5.636 -23.068  0.00  0.00    +0.003 C 
ATOM     16  C   UNL     1      30.833  -5.547 -22.053  0.00  0.00    +0.022 C 
ATOM     17  C   UNL     1      32.128  -4.501 -23.792  0.00  0.00    +0.022 C 
ATOM     18  C   UNL     1      30.244  -4.319 -21.772  0.00  0.00    +0.121 C 
ATOM     19  C   UNL     1      31.524  -3.285 -23.492  0.00  0.00    +0.121 C 
ENDBRANCH  10  15
ENDBRANCH   5   7
ENDBRANCH   1   4
BRANCH   1  20
ATOM     20  C   UNL     1      33.538 -14.086 -23.375  0.00  0.00    +0.121 C 
BRANCH  20  22
ATOM     21  O   UNL     1      31.755 -12.667 -22.508  0.00  0.00    -0.250 OA
ATOM     22  C   UNL     1      32.705 -13.410 -22.291  0.00  0.00    +0.319 C 
BRANCH  22  23
ATOM     23  O   UNL     1      33.181 -13.760 -21.060  0.00  0.00    -0.444 OA
ATOM     24  C   UNL     1      32.242 -14.415 -20.200  0.00  0.00    +0.256 C 
ENDBRANCH  22  23
ENDBRANCH  20  22
BRANCH  20  25
ATOM     25  C   UNL     1      34.807 -14.706 -22.752  0.00  0.00    +0.039 C 
BRANCH  25  26
ATOM     26  C   UNL     1      34.906 -16.196 -22.987  0.00  0.00    -0.021 C 
ATOM     27  C   UNL     1      35.348 -17.036 -21.965  0.00  0.00    -0.002 C 
ATOM     28  C   UNL     1      34.558 -16.730 -24.228  0.00  0.00    -0.004 C 
ATOM     29  C   UNL     1      35.442 -18.410 -22.184  0.00  0.00    +0.030 C 
ATOM     30  C   UNL     1      34.651 -18.104 -24.446  0.00  0.00    -0.000 C 
ATOM     31  C   UNL     1      35.094 -18.944 -23.424  0.00  0.00    +0.003 C 
BRANCH  29  34
ATOM     32  N   UNL     1      35.089 -20.289 -20.599  0.00  0.00    -0.343 N 
ATOM     33  N   UNL     1      37.120 -19.133 -20.624  0.00  0.00    -0.285 NA
ATOM     34  C   UNL     1      35.905 -19.285 -21.119  0.00  0.00    +0.117 C 
ATOM     35  H   UNL     1      35.423 -20.870 -19.878  0.00  0.00    +0.144 HD
ATOM     36  H   UNL     1      34.179 -20.416 -20.953  0.00  0.00    +0.144 HD
ATOM     37  H   UNL     1      37.436 -19.726 -19.902  0.00  0.00    +0.188 HD
ENDBRANCH  29  34
ENDBRANCH  25  26
ENDBRANCH  20  25
ENDBRANCH   1  20
TORSDOF 9
ENDMDL
MODEL 8
REMARK VINA RESULT:     -10.0      2.304      5.081
REMARK  Name = 5496659
REMARK  9 active torsions:
REMARK  status: ('A' for Active; 'I' for Inactive)
REMARK    1  A    between atoms: C_1  and  N_4
REMARK    2  A    between atoms: C_1  and  C_20
REMARK    3  A    between atoms: C_5  and  C_7
REMARK    4  A    between atoms: C_10  and  C_15
REMARK    5  A    between atoms: C_20  and  C_22
REMARK    6  A    between atoms: C_20  and  C_25
REMARK    7  A    between atoms: C_22  and  O_23
REMARK    8  A    between atoms: C_25  and  C_26
REMARK    9  A    between atoms: C_29  and  C_34
REMARK                            x       y       z     vdW  Elec       q    Type
REMARK                         _______ _______ _______ _____ _____    ______ ____
ROOT
ATOM      1  C   UNL     1      36.024 -24.048 -15.261  0.00  0.00    +0.083 C 
ATOM      2  C   UNL     1      36.180 -25.489 -15.745  0.00  0.00    +0.022 C 
ENDROOT
BRANCH   1   4
ATOM      3  O   UNL     1      34.151 -24.284 -17.423  0.00  0.00    -0.270 OA
ATOM      4  N   UNL     1      35.891 -23.155 -16.388  0.00  0.00    -0.302 N 
ATOM      5  C   UNL     1      34.951 -23.353 -17.388  0.00  0.00    +0.246 C 
ATOM      6  H   UNL     1      36.491 -22.377 -16.449  0.00  0.00    +0.150 HD
BRANCH   5   7
ATOM      7  C   UNL     1      34.959 -22.360 -18.491  0.00  0.00    +0.053 C 
ATOM      8  C   UNL     1      33.765 -22.008 -19.121  0.00  0.00    +0.005 C 
ATOM      9  C   UNL     1      36.159 -21.779 -18.899  0.00  0.00    +0.005 C 
ATOM     10  C   UNL     1      34.973 -20.494 -20.565  0.00  0.00    +0.000 C 
ATOM     11  C   UNL     1      33.772 -21.075 -20.158  0.00  0.00    +0.000 C 
ATOM     12  C   UNL     1      36.167 -20.847 -19.935  0.00  0.00    +0.000 C 
BRANCH  10  15
ATOM     13  O   UNL     1      35.007 -16.814 -24.664  0.00  0.00    -0.163 OA
ATOM     14  N   UNL     1      35.000 -17.665 -23.717  0.00  0.00    -0.127 N 
ATOM     15  C   UNL     1      34.983 -19.528 -21.642  0.00  0.00    +0.003 C 
ATOM     16  C   UNL     1      34.283 -19.786 -22.816  0.00  0.00    +0.022 C 
ATOM     17  C   UNL     1      35.692 -18.339 -21.505  0.00  0.00    +0.022 C 
ATOM     18  C   UNL     1      34.299 -18.849 -23.843  0.00  0.00    +0.121 C 
ATOM     19  C   UNL     1      35.692 -17.418 -22.548  0.00  0.00    +0.121 C 
ENDBRANCH  10  15
ENDBRANCH   5   7
ENDBRANCH   1   4
BRANCH   1  20
ATOM     20  C   UNL     1      34.872 -23.894 -14.241  0.00  0.00    +0.121 C 
BRANCH  20  22
ATOM     21  O   UNL     1      34.785 -23.913 -11.805  0.00  0.00    -0.250 OA
ATOM     22  C   UNL     1      35.407 -23.665 -12.831  0.00  0.00    +0.319 C 
BRANCH  22  23
ATOM     23  O   UNL     1      36.668 -23.147 -12.896  0.00  0.00    -0.444 OA
ATOM     24  C   UNL     1      37.616 -23.722 -11.990  0.00  0.00    +0.256 C 
ENDBRANCH  22  23
ENDBRANCH  20  22
BRANCH  20  25
ATOM     25  C   UNL     1      33.922 -25.110 -14.252  0.00  0.00    +0.039 C 
BRANCH  25  26
ATOM     26  C   UNL     1      32.464 -24.714 -14.254  0.00  0.00    -0.021 C 
ATOM     27  C   UNL     1      31.929 -24.026 -15.344  0.00  0.00    -0.002 C 
ATOM     28  C   UNL     1      31.653 -25.032 -13.165  0.00  0.00    -0.004 C 
ATOM     29  C   UNL     1      30.584 -23.658 -15.344  0.00  0.00    +0.030 C 
ATOM     30  C   UNL     1      30.308 -24.665 -13.165  0.00  0.00    -0.000 C 
ATOM     31  C   UNL     1      29.773 -23.977 -14.254  0.00  0.00    +0.003 C 
BRANCH  29  34
ATOM     32  N   UNL     1      28.650 -22.798 -16.642  0.00  0.00    -0.343 N 
ATOM     33  N   UNL     1      30.833 -22.411 -17.383  0.00  0.00    -0.285 NA
ATOM     34  C   UNL     1      30.027 -22.940 -16.480  0.00  0.00    +0.117 C 
ATOM     35  H   UNL     1      28.294 -22.308 -17.419  0.00  0.00    +0.144 HD
ATOM     36  H   UNL     1      28.033 -23.188 -15.981  0.00  0.00    +0.144 HD
ATOM     37  H   UNL     1      30.457 -21.924 -18.153  0.00  0.00    +0.188 HD
ENDBRANCH  29  34
ENDBRANCH  25  26
ENDBRANCH  20  25
ENDBRANCH   1  20
TORSDOF 9
ENDMDL
MODEL 9
REMARK VINA RESULT:      -9.9      8.536     13.635
REMARK  Name = 5496659
REMARK  9 active torsions:
REMARK  status: ('A' for Active; 'I' for Inactive)
REMARK    1  A    between atoms: C_1  and  N_4
REMARK    2  A    between atoms: C_1  and  C_20
REMARK    3  A    between atoms: C_5  and  C_7
REMARK    4  A    between atoms: C_10  and  C_15
REMARK    5  A    between atoms: C_20  and  C_22
REMARK    6  A    between atoms: C_20  and  C_25
REMARK    7  A    between atoms: C_22  and  O_23
REMARK    8  A    between atoms: C_25  and  C_26
REMARK    9  A    between atoms: C_29  and  C_34
REMARK                            x       y       z     vdW  Elec       q    Type
REMARK                         _______ _______ _______ _____ _____    ______ ____
ROOT
ATOM      1  C   UNL     1      33.927 -13.224 -24.116  0.00  0.00    +0.083 C 
ATOM      2  C   UNL     1      33.402 -13.770 -25.444  0.00  0.00    +0.022 C 
ENDROOT
BRANCH   1   4
ATOM      3  O   UNL     1      35.333 -10.792 -24.706  0.00  0.00    -0.270 OA
ATOM      4  N   UNL     1      33.448 -11.878 -23.906  0.00  0.00    -0.302 N 
ATOM      5  C   UNL     1      34.204 -10.761 -24.224  0.00  0.00    +0.246 C 
ATOM      6  H   UNL     1      32.550 -11.749 -23.522  0.00  0.00    +0.150 HD
BRANCH   5   7
ATOM      7  C   UNL     1      33.579  -9.448 -23.924  0.00  0.00    +0.053 C 
ATOM      8  C   UNL     1      32.211  -9.369 -23.664  0.00  0.00    +0.005 C 
ATOM      9  C   UNL     1      34.360  -8.292 -23.903  0.00  0.00    +0.005 C 
ATOM     10  C   UNL     1      32.405  -6.980 -23.361  0.00  0.00    +0.000 C 
ATOM     11  C   UNL     1      31.624  -8.136 -23.383  0.00  0.00    +0.000 C 
ATOM     12  C   UNL     1      33.774  -7.059 -23.621  0.00  0.00    +0.000 C 
BRANCH  10  15
ATOM     13  O   UNL     1      30.094  -2.104 -22.254  0.00  0.00    -0.163 OA
ATOM     14  N   UNL     1      30.627  -3.231 -22.510  0.00  0.00    -0.127 N 
ATOM     15  C   UNL     1      31.797  -5.700 -23.071  0.00  0.00    +0.003 C 
ATOM     16  C   UNL     1      30.835  -5.596 -22.072  0.00  0.00    +0.022 C 
ATOM     17  C   UNL     1      32.175  -4.571 -23.790  0.00  0.00    +0.022 C 
ATOM     18  C   UNL     1      30.260  -4.359 -21.802  0.00  0.00    +0.121 C 
ATOM     19  C   UNL     1      31.584  -3.345 -23.501  0.00  0.00    +0.121 C 
ENDBRANCH  10  15
ENDBRANCH   5   7
ENDBRANCH   1   4
BRANCH   1  20
ATOM     20  C   UNL     1      33.605 -14.161 -22.929  0.00  0.00    +0.121 C 
BRANCH  20  22
ATOM     21  O   UNL     1      33.184 -13.421 -20.645  0.00  0.00    -0.250 OA
ATOM     22  C   UNL     1      32.857 -13.421 -21.825  0.00  0.00    +0.319 C 
BRANCH  22  23
ATOM     23  O   UNL     1      31.781 -12.770 -22.356  0.00  0.00    -0.444 OA
ATOM     24  C   UNL     1      31.118 -11.857 -21.474  0.00  0.00    +0.256 C 
ENDBRANCH  22  23
ENDBRANCH  20  22
BRANCH  20  25
ATOM     25  C   UNL     1      34.875 -14.821 -22.352  0.00  0.00    +0.039 C 
BRANCH  25  26
ATOM     26  C   UNL     1      34.946 -16.303 -22.637  0.00  0.00    -0.021 C 
ATOM     27  C   UNL     1      34.429 -16.810 -23.829  0.00  0.00    -0.002 C 
ATOM     28  C   UNL     1      35.525 -17.166 -21.706  0.00  0.00    -0.004 C 
ATOM     29  C   UNL     1      34.492 -18.178 -24.091  0.00  0.00    +0.030 C 
ATOM     30  C   UNL     1      35.589 -18.533 -21.968  0.00  0.00    -0.000 C 
ATOM     31  C   UNL     1      35.072 -19.040 -23.160  0.00  0.00    +0.003 C 
BRANCH  29  34
ATOM     32  N   UNL     1      34.260 -19.995 -25.768  0.00  0.00    -0.343 N 
ATOM     33  N   UNL     1      33.154 -17.959 -26.075  0.00  0.00    -0.285 NA
ATOM     34  C   UNL     1      33.951 -18.707 -25.333  0.00  0.00    +0.117 C 
ATOM     35  H   UNL     1      33.883 -20.332 -26.612  0.00  0.00    +0.144 HD
ATOM     36  H   UNL     1      34.854 -20.566 -25.231  0.00  0.00    +0.144 HD
ATOM     37  H   UNL     1      32.787 -18.315 -26.917  0.00  0.00    +0.188 HD
ENDBRANCH  29  34
ENDBRANCH  25  26
ENDBRANCH  20  25
ENDBRANCH   1  20
TORSDOF 9
ENDMDL
