MODEL 1
REMARK VINA RESULT:     -12.2      0.000      0.000
REMARK  Name = 9889200
REMARK  5 active torsions:
REMARK  status: ('A' for Active; 'I' for Inactive)
REMARK    1  A    between atoms: C_1  and  C_21
REMARK    2  A    between atoms: C_4  and  O_7
REMARK    3  A    between atoms: O_7  and  C_8
REMARK    4  A    between atoms: C_8  and  C_12
REMARK    5  A    between atoms: C_21  and  C_26
REMARK                            x       y       z     vdW  Elec       q    Type
REMARK                         _______ _______ _______ _____ _____    ______ ____
ROOT
ATOM      1  C   UNL     1      34.165 -22.213 -19.254  0.00  0.00    -0.021 C 
ATOM      2  C   UNL     1      35.536 -22.025 -19.427  0.00  0.00    -0.001 C 
ATOM      3  C   UNL     1      33.258 -21.365 -19.890  0.00  0.00    -0.001 C 
ATOM      4  C   UNL     1      35.090 -20.149 -20.864  0.00  0.00    +0.139 C 
ATOM      5  C   UNL     1      36.001 -20.987 -20.236  0.00  0.00    +0.037 C 
ATOM      6  C   UNL     1      33.723 -20.329 -20.700  0.00  0.00    +0.037 C 
ENDROOT
BRANCH   4   7
ATOM      7  O   UNL     1      35.548 -19.128 -21.662  0.00  0.00    -0.466 OA
BRANCH   7   8
ATOM      8  C   UNL     1      35.388 -19.277 -23.056  0.00  0.00    +0.279 C 
BRANCH   8  12
ATOM      9  O   UNL     1      33.139 -16.866 -26.588  0.00  0.00    -0.274 OA
ATOM     10  N   UNL     1      34.228 -18.054 -24.890  0.00  0.00    -0.232 N 
ATOM     11  N   UNL     1      34.953 -16.916 -22.932  0.00  0.00    -0.391 NA
ATOM     12  C   UNL     1      34.833 -17.999 -23.636  0.00  0.00    +0.210 C 
ATOM     13  C   UNL     1      33.816 -15.663 -24.702  0.00  0.00    +0.151 C 
ATOM     14  C   UNL     1      34.444 -15.721 -23.455  0.00  0.00    +0.123 C 
ATOM     15  C   UNL     1      33.688 -16.906 -25.491  0.00  0.00    +0.241 C 
ATOM     16  C   UNL     1      34.133 -19.316 -25.622  0.00  0.00    +0.122 C 
ATOM     17  C   UNL     1      33.318 -14.452 -25.196  0.00  0.00    -0.010 C 
ATOM     18  C   UNL     1      34.567 -14.546 -22.705  0.00  0.00    +0.028 C 
ATOM     19  C   UNL     1      33.447 -13.290 -24.437  0.00  0.00    -0.004 C 
ATOM     20  C   UNL     1      34.071 -13.337 -23.192  0.00  0.00    +0.002 C 
ENDBRANCH   8  12
ENDBRANCH   7   8
ENDBRANCH   4   7
BRANCH   1  21
ATOM     21  C   UNL     1      33.668 -23.321 -18.389  0.00  0.00    +0.047 C 
BRANCH  21  26
ATOM     22  S   UNL     1      34.325 -23.670 -15.730  0.00  0.00    -0.048 S 
ATOM     23  O   UNL     1      30.909 -22.814 -17.308  0.00  0.00    -0.274 OA
ATOM     24  O   UNL     1      33.052 -24.961 -13.825  0.00  0.00    -0.263 OA
ATOM     25  N   UNL     1      31.795 -23.932 -15.487  0.00  0.00    -0.246 N 
ATOM     26  C   UNL     1      33.304 -22.840 -16.986  0.00  0.00    +0.137 C 
ATOM     27  C   UNL     1      31.871 -23.177 -16.640  0.00  0.00    +0.239 C 
ATOM     28  C   UNL     1      32.950 -24.298 -14.847  0.00  0.00    +0.279 C 
ATOM     29  H   UNL     1      30.919 -24.203 -15.129  0.00  0.00    +0.158 HD
ENDBRANCH  21  26
ENDBRANCH   1  21
TORSDOF 5
ENDMDL
MODEL 2
REMARK VINA RESULT:     -12.0      3.033     10.646
REMARK  Name = 9889200
REMARK  5 active torsions:
REMARK  status: ('A' for Active; 'I' for Inactive)
REMARK    1  A    between atoms: C_1  and  C_21
REMARK    2  A    between atoms: C_4  and  O_7
REMARK    3  A    between atoms: O_7  and  C_8
REMARK    4  A    between atoms: C_8  and  C_12
REMARK    5  A    between atoms: C_21  and  C_26
REMARK                            x       y       z     vdW  Elec       q    Type
REMARK                         _______ _______ _______ _____ _____    ______ ____
ROOT
ATOM      1  C   UNL     1      35.564 -20.137 -20.789  0.00  0.00    -0.021 C 
ATOM      2  C   UNL     1      34.208 -20.447 -20.694  0.00  0.00    -0.001 C 
ATOM      3  C   UNL     1      36.506 -20.913 -20.116  0.00  0.00    -0.001 C 
ATOM      4  C   UNL     1      34.739 -22.300 -19.257  0.00  0.00    +0.139 C 
ATOM      5  C   UNL     1      33.793 -21.534 -19.923  0.00  0.00    +0.037 C 
ATOM      6  C   UNL     1      36.092 -22.000 -19.346  0.00  0.00    +0.037 C 
ENDROOT
BRANCH   4   7
ATOM      7  O   UNL     1      34.331 -23.372 -18.499  0.00  0.00    -0.466 OA
BRANCH   7   8
ATOM      8  C   UNL     1      33.499 -23.100 -17.393  0.00  0.00    +0.279 C 
BRANCH   8  12
ATOM      9  O   UNL     1      33.295 -24.493 -12.770  0.00  0.00    -0.274 OA
ATOM     10  N   UNL     1      33.371 -23.814 -15.009  0.00  0.00    -0.232 N 
ATOM     11  N   UNL     1      35.449 -23.784 -16.164  0.00  0.00    -0.391 NA
ATOM     12  C   UNL     1      34.166 -23.593 -16.131  0.00  0.00    +0.210 C 
ATOM     13  C   UNL     1      35.383 -24.495 -13.822  0.00  0.00    +0.151 C 
ATOM     14  C   UNL     1      36.085 -24.241 -15.003  0.00  0.00    +0.123 C 
ATOM     15  C   UNL     1      33.922 -24.273 -13.803  0.00  0.00    +0.241 C 
ATOM     16  C   UNL     1      31.929 -23.574 -15.053  0.00  0.00    +0.122 C 
ATOM     17  C   UNL     1      36.048 -24.952 -12.679  0.00  0.00    -0.010 C 
ATOM     18  C   UNL     1      37.468 -24.451 -15.025  0.00  0.00    +0.028 C 
ATOM     19  C   UNL     1      37.426 -25.157 -12.716  0.00  0.00    -0.004 C 
ATOM     20  C   UNL     1      38.136 -24.906 -13.888  0.00  0.00    +0.002 C 
ENDBRANCH   8  12
ENDBRANCH   7   8
ENDBRANCH   4   7
BRANCH   1  21
ATOM     21  C   UNL     1      36.006 -18.974 -21.612  0.00  0.00    +0.047 C 
BRANCH  21  26
ATOM     22  S   UNL     1      34.627 -18.938 -24.003  0.00  0.00    -0.048 S 
ATOM     23  O   UNL     1      35.313 -16.050 -21.537  0.00  0.00    -0.274 OA
ATOM     24  O   UNL     1      34.690 -17.193 -25.969  0.00  0.00    -0.263 OA
ATOM     25  N   UNL     1      35.013 -16.421 -23.801  0.00  0.00    -0.246 N 
ATOM     26  C   UNL     1      34.839 -18.288 -22.318  0.00  0.00    +0.137 C 
ATOM     27  C   UNL     1      35.084 -16.804 -22.477  0.00  0.00    +0.239 C 
ATOM     28  C   UNL     1      34.779 -17.368 -24.763  0.00  0.00    +0.279 C 
ATOM     29  H   UNL     1      35.127 -15.476 -24.050  0.00  0.00    +0.158 HD
ENDBRANCH  21  26
ENDBRANCH   1  21
TORSDOF 5
ENDMDL
MODEL 3
REMARK VINA RESULT:     -11.9      3.515     10.969
REMARK  Name = 9889200
REMARK  5 active torsions:
REMARK  status: ('A' for Active; 'I' for Inactive)
REMARK    1  A    between atoms: C_1  and  C_21
REMARK    2  A    between atoms: C_4  and  O_7
REMARK    3  A    between atoms: O_7  and  C_8
REMARK    4  A    between atoms: C_8  and  C_12
REMARK    5  A    between atoms: C_21  and  C_26
REMARK                            x       y       z     vdW  Elec       q    Type
REMARK                         _______ _______ _______ _____ _____    ______ ____
ROOT
ATOM      1  C   UNL     1      34.178 -20.588 -20.792  0.00  0.00    -0.021 C 
ATOM      2  C   UNL     1      35.528 -20.777 -20.500  0.00  0.00    -0.001 C 
ATOM      3  C   UNL     1      33.203 -21.253 -20.048  0.00  0.00    -0.001 C 
ATOM      4  C   UNL     1      34.927 -22.292 -18.732  0.00  0.00    +0.139 C 
ATOM      5  C   UNL     1      35.905 -21.634 -19.466  0.00  0.00    +0.037 C 
ATOM      6  C   UNL     1      33.580 -22.109 -19.013  0.00  0.00    +0.037 C 
ENDROOT
BRANCH   4   7
ATOM      7  O   UNL     1      35.299 -23.135 -17.711  0.00  0.00    -0.466 OA
BRANCH   7   8
ATOM      8  C   UNL     1      34.376 -23.319 -16.660  0.00  0.00    +0.279 C 
BRANCH   8  12
ATOM      9  O   UNL     1      34.428 -24.734 -12.040  0.00  0.00    -0.274 OA
ATOM     10  N   UNL     1      34.381 -24.041 -14.275  0.00  0.00    -0.232 N 
ATOM     11  N   UNL     1      36.324 -24.277 -15.625  0.00  0.00    -0.391 NA
ATOM     12  C   UNL     1      35.088 -23.915 -15.469  0.00  0.00    +0.210 C 
ATOM     13  C   UNL     1      36.385 -25.005 -13.288  0.00  0.00    +0.151 C 
ATOM     14  C   UNL     1      36.999 -24.832 -14.531  0.00  0.00    +0.123 C 
ATOM     15  C   UNL     1      34.977 -24.587 -13.128  0.00  0.00    +0.241 C 
ATOM     16  C   UNL     1      32.987 -23.608 -14.180  0.00  0.00    +0.122 C 
ATOM     17  C   UNL     1      37.088 -25.562 -12.214  0.00  0.00    -0.010 C 
ATOM     18  C   UNL     1      38.333 -25.226 -14.687  0.00  0.00    +0.028 C 
ATOM     19  C   UNL     1      38.416 -25.951 -12.384  0.00  0.00    -0.004 C 
ATOM     20  C   UNL     1      39.038 -25.783 -13.620  0.00  0.00    +0.002 C 
ENDBRANCH   8  12
ENDBRANCH   7   8
ENDBRANCH   4   7
BRANCH   1  21
ATOM     21  C   UNL     1      33.775 -19.673 -21.898  0.00  0.00    +0.047 C 
BRANCH  21  26
ATOM     22  S   UNL     1      35.264 -17.367 -21.598  0.00  0.00    -0.048 S 
ATOM     23  O   UNL     1      34.432 -19.334 -24.813  0.00  0.00    -0.274 OA
ATOM     24  O   UNL     1      35.274 -15.159 -23.025  0.00  0.00    -0.263 OA
ATOM     25  N   UNL     1      34.841 -17.169 -24.110  0.00  0.00    -0.246 N 
ATOM     26  C   UNL     1      34.966 -18.924 -22.491  0.00  0.00    +0.137 C 
ATOM     27  C   UNL     1      34.713 -18.531 -23.930  0.00  0.00    +0.239 C 
ATOM     28  C   UNL     1      35.130 -16.373 -23.032  0.00  0.00    +0.279 C 
ATOM     29  H   UNL     1      34.729 -16.774 -25.004  0.00  0.00    +0.158 HD
ENDBRANCH  21  26
ENDBRANCH   1  21
TORSDOF 5
ENDMDL
MODEL 4
REMARK VINA RESULT:     -11.8      2.704     10.460
REMARK  Name = 9889200
REMARK  5 active torsions:
REMARK  status: ('A' for Active; 'I' for Inactive)
REMARK    1  A    between atoms: C_1  and  C_21
REMARK    2  A    between atoms: C_4  and  O_7
REMARK    3  A    between atoms: O_7  and  C_8
REMARK    4  A    between atoms: C_8  and  C_12
REMARK    5  A    between atoms: C_21  and  C_26
REMARK                            x       y       z     vdW  Elec       q    Type
REMARK                         _______ _______ _______ _____ _____    ______ ____
ROOT
ATOM      1  C   UNL     1      35.786 -19.928 -20.966  0.00  0.00    -0.021 C 
ATOM      2  C   UNL     1      36.800 -20.569 -20.254  0.00  0.00    -0.001 C 
ATOM      3  C   UNL     1      34.457 -20.313 -20.788  0.00  0.00    -0.001 C 
ATOM      4  C   UNL     1      35.159 -21.972 -19.195  0.00  0.00    +0.139 C 
ATOM      5  C   UNL     1      36.485 -21.597 -19.364  0.00  0.00    +0.037 C 
ATOM      6  C   UNL     1      34.142 -21.340 -19.898  0.00  0.00    +0.037 C 
ENDROOT
BRANCH   4   7
ATOM      7  O   UNL     1      34.849 -22.984 -18.317  0.00  0.00    -0.466 OA
BRANCH   7   8
ATOM      8  C   UNL     1      35.308 -22.849 -16.989  0.00  0.00    +0.279 C 
BRANCH   8  12
ATOM      9  O   UNL     1      34.002 -24.590 -12.675  0.00  0.00    -0.274 OA
ATOM     10  N   UNL     1      34.657 -23.746 -14.758  0.00  0.00    -0.232 N 
ATOM     11  N   UNL     1      33.039 -23.459 -16.477  0.00  0.00    -0.391 NA
ATOM     12  C   UNL     1      34.258 -23.377 -16.041  0.00  0.00    +0.210 C 
ATOM     13  C   UNL     1      32.343 -24.344 -14.303  0.00  0.00    +0.151 C 
ATOM     14  C   UNL     1      32.053 -23.947 -15.611  0.00  0.00    +0.123 C 
ATOM     15  C   UNL     1      33.737 -24.244 -13.823  0.00  0.00    +0.241 C 
ATOM     16  C   UNL     1      36.054 -23.624 -14.343  0.00  0.00    +0.122 C 
ATOM     17  C   UNL     1      31.334 -24.827 -13.462  0.00  0.00    -0.010 C 
ATOM     18  C   UNL     1      30.735 -24.041 -16.069  0.00  0.00    +0.028 C 
ATOM     19  C   UNL     1      30.025 -24.914 -13.932  0.00  0.00    -0.004 C 
ATOM     20  C   UNL     1      29.725 -24.521 -15.235  0.00  0.00    +0.002 C 
ENDBRANCH   8  12
ENDBRANCH   7   8
ENDBRANCH   4   7
BRANCH   1  21
ATOM     21  C   UNL     1      36.123 -18.831 -21.918  0.00  0.00    +0.047 C 
BRANCH  21  26
ATOM     22  S   UNL     1      34.506 -18.879 -24.156  0.00  0.00    -0.048 S 
ATOM     23  O   UNL     1      35.384 -15.918 -21.842  0.00  0.00    -0.274 OA
ATOM     24  O   UNL     1      34.334 -17.184 -26.158  0.00  0.00    -0.263 OA
ATOM     25  N   UNL     1      34.862 -16.351 -24.053  0.00  0.00    -0.246 N 
ATOM     26  C   UNL     1      34.876 -18.183 -22.517  0.00  0.00    +0.137 C 
ATOM     27  C   UNL     1      35.075 -16.699 -22.735  0.00  0.00    +0.239 C 
ATOM     28  C   UNL     1      34.550 -17.327 -24.964  0.00  0.00    +0.279 C 
ATOM     29  H   UNL     1      34.932 -15.411 -24.336  0.00  0.00    +0.158 HD
ENDBRANCH  21  26
ENDBRANCH   1  21
TORSDOF 5
ENDMDL
MODEL 5
REMARK VINA RESULT:     -11.4      2.701     10.431
REMARK  Name = 9889200
REMARK  5 active torsions:
REMARK  status: ('A' for Active; 'I' for Inactive)
REMARK    1  A    between atoms: C_1  and  C_21
REMARK    2  A    between atoms: C_4  and  O_7
REMARK    3  A    between atoms: O_7  and  C_8
REMARK    4  A    between atoms: C_8  and  C_12
REMARK    5  A    between atoms: C_21  and  C_26
REMARK                            x       y       z     vdW  Elec       q    Type
REMARK                         _______ _______ _______ _____ _____    ______ ____
ROOT
ATOM      1  C   UNL     1      34.338 -20.551 -20.780  0.00  0.00    -0.021 C 
ATOM      2  C   UNL     1      35.699 -20.695 -20.513  0.00  0.00    -0.001 C 
ATOM      3  C   UNL     1      33.400 -21.259 -20.029  0.00  0.00    -0.001 C 
ATOM      4  C   UNL     1      35.183 -22.250 -18.754  0.00  0.00    +0.139 C 
ATOM      5  C   UNL     1      36.123 -21.549 -19.495  0.00  0.00    +0.037 C 
ATOM      6  C   UNL     1      33.824 -22.113 -19.011  0.00  0.00    +0.037 C 
ENDROOT
BRANCH   4   7
ATOM      7  O   UNL     1      35.601 -23.091 -17.750  0.00  0.00    -0.466 OA
BRANCH   7   8
ATOM      8  C   UNL     1      35.658 -22.558 -16.445  0.00  0.00    +0.279 C 
BRANCH   8  12
ATOM      9  O   UNL     1      34.319 -24.741 -12.347  0.00  0.00    -0.274 OA
ATOM     10  N   UNL     1      34.990 -23.682 -14.324  0.00  0.00    -0.232 N 
ATOM     11  N   UNL     1      33.415 -23.341 -16.073  0.00  0.00    -0.391 NA
ATOM     12  C   UNL     1      34.612 -23.227 -15.585  0.00  0.00    +0.210 C 
ATOM     13  C   UNL     1      32.702 -24.451 -14.010  0.00  0.00    +0.151 C 
ATOM     14  C   UNL     1      32.432 -23.959 -15.289  0.00  0.00    +0.123 C 
ATOM     15  C   UNL     1      34.072 -24.312 -13.470  0.00  0.00    +0.241 C 
ATOM     16  C   UNL     1      36.362 -23.516 -13.847  0.00  0.00    +0.122 C 
ATOM     17  C   UNL     1      31.698 -25.063 -13.252  0.00  0.00    -0.010 C 
ATOM     18  C   UNL     1      31.138 -24.088 -15.803  0.00  0.00    +0.028 C 
ATOM     19  C   UNL     1      30.412 -25.184 -13.777  0.00  0.00    -0.004 C 
ATOM     20  C   UNL     1      30.132 -24.697 -15.052  0.00  0.00    +0.002 C 
ENDBRANCH   8  12
ENDBRANCH   7   8
ENDBRANCH   4   7
BRANCH   1  21
ATOM     21  C   UNL     1      33.884 -19.638 -21.869  0.00  0.00    +0.047 C 
BRANCH  21  26
ATOM     22  S   UNL     1      35.290 -17.278 -21.591  0.00  0.00    -0.048 S 
ATOM     23  O   UNL     1      34.491 -19.280 -24.792  0.00  0.00    -0.274 OA
ATOM     24  O   UNL     1      35.199 -15.073 -23.021  0.00  0.00    -0.263 OA
ATOM     25  N   UNL     1      34.828 -17.100 -24.097  0.00  0.00    -0.246 N 
ATOM     26  C   UNL     1      35.039 -18.846 -22.478  0.00  0.00    +0.137 C 
ATOM     27  C   UNL     1      34.752 -18.465 -23.914  0.00  0.00    +0.239 C 
ATOM     28  C   UNL     1      35.100 -16.292 -23.024  0.00  0.00    +0.279 C 
ATOM     29  H   UNL     1      34.689 -16.711 -24.990  0.00  0.00    +0.158 HD
ENDBRANCH  21  26
ENDBRANCH   1  21
TORSDOF 5
ENDMDL
MODEL 6
REMARK VINA RESULT:     -11.4      6.750     12.002
REMARK  Name = 9889200
REMARK  5 active torsions:
REMARK  status: ('A' for Active; 'I' for Inactive)
REMARK    1  A    between atoms: C_1  and  C_21
REMARK    2  A    between atoms: C_4  and  O_7
REMARK    3  A    between atoms: O_7  and  C_8
REMARK    4  A    between atoms: C_8  and  C_12
REMARK    5  A    between atoms: C_21  and  C_26
REMARK                            x       y       z     vdW  Elec       q    Type
REMARK                         _______ _______ _______ _____ _____    ______ ____
ROOT
ATOM      1  C   UNL     1      33.614  -8.564 -23.277  0.00  0.00    -0.021 C 
ATOM      2  C   UNL     1      34.744  -8.909 -24.017  0.00  0.00    -0.001 C 
ATOM      3  C   UNL     1      32.692  -9.545 -22.913  0.00  0.00    -0.001 C 
ATOM      4  C   UNL     1      34.028 -11.205 -24.028  0.00  0.00    +0.139 C 
ATOM      5  C   UNL     1      34.952 -10.237 -24.395  0.00  0.00    +0.037 C 
ATOM      6  C   UNL     1      32.900 -10.871 -23.289  0.00  0.00    +0.037 C 
ENDROOT
BRANCH   4   7
ATOM      7  O   UNL     1      34.234 -12.512 -24.398  0.00  0.00    -0.466 OA
BRANCH   7   8
ATOM      8  C   UNL     1      33.210 -13.436 -24.099  0.00  0.00    +0.279 C 
BRANCH   8  12
ATOM      9  O   UNL     1      34.431 -17.719 -25.974  0.00  0.00    -0.274 OA
ATOM     10  N   UNL     1      33.830 -15.638 -25.086  0.00  0.00    -0.232 N 
ATOM     11  N   UNL     1      34.264 -15.161 -22.797  0.00  0.00    -0.391 NA
ATOM     12  C   UNL     1      33.807 -14.817 -23.961  0.00  0.00    +0.210 C 
ATOM     13  C   UNL     1      34.896 -17.342 -23.714  0.00  0.00    +0.151 C 
ATOM     14  C   UNL     1      34.820 -16.438 -22.651  0.00  0.00    +0.123 C 
ATOM     15  C   UNL     1      34.370 -16.933 -25.033  0.00  0.00    +0.241 C 
ATOM     16  C   UNL     1      33.293 -15.174 -26.365  0.00  0.00    +0.122 C 
ATOM     17  C   UNL     1      35.458 -18.611 -23.535  0.00  0.00    -0.010 C 
ATOM     18  C   UNL     1      35.317 -16.822 -21.401  0.00  0.00    +0.028 C 
ATOM     19  C   UNL     1      35.950 -18.979 -22.284  0.00  0.00    -0.004 C 
ATOM     20  C   UNL     1      35.879 -18.086 -21.217  0.00  0.00    +0.002 C 
ENDBRANCH   8  12
ENDBRANCH   7   8
ENDBRANCH   4   7
BRANCH   1  21
ATOM     21  C   UNL     1      33.391  -7.146 -22.875  0.00  0.00    +0.047 C 
BRANCH  21  26
ATOM     22  S   UNL     1      31.235  -5.596 -23.630  0.00  0.00    -0.048 S 
ATOM     23  O   UNL     1      32.196  -6.898 -20.127  0.00  0.00    -0.274 OA
ATOM     24  O   UNL     1      30.193  -3.469 -22.486  0.00  0.00    -0.263 OA
ATOM     25  N   UNL     1      31.146  -5.096 -21.126  0.00  0.00    -0.246 N 
ATOM     26  C   UNL     1      31.930  -6.865 -22.529  0.00  0.00    +0.137 C 
ATOM     27  C   UNL     1      31.789  -6.316 -21.127  0.00  0.00    +0.239 C 
ATOM     28  C   UNL     1      30.765  -4.536 -22.318  0.00  0.00    +0.279 C 
ATOM     29  H   UNL     1      30.963  -4.632 -20.277  0.00  0.00    +0.158 HD
ENDBRANCH  21  26
ENDBRANCH   1  21
TORSDOF 5
ENDMDL
MODEL 7
REMARK VINA RESULT:     -11.3      1.191      1.521
REMARK  Name = 9889200
REMARK  5 active torsions:
REMARK  status: ('A' for Active; 'I' for Inactive)
REMARK    1  A    between atoms: C_1  and  C_21
REMARK    2  A    between atoms: C_4  and  O_7
REMARK    3  A    between atoms: O_7  and  C_8
REMARK    4  A    between atoms: C_8  and  C_12
REMARK    5  A    between atoms: C_21  and  C_26
REMARK                            x       y       z     vdW  Elec       q    Type
REMARK                         _______ _______ _______ _____ _____    ______ ____
ROOT
ATOM      1  C   UNL     1      34.929 -22.173 -19.031  0.00  0.00    -0.021 C 
ATOM      2  C   UNL     1      33.905 -21.533 -19.729  0.00  0.00    -0.001 C 
ATOM      3  C   UNL     1      36.255 -21.791 -19.230  0.00  0.00    -0.001 C 
ATOM      4  C   UNL     1      35.532 -20.139 -20.821  0.00  0.00    +0.139 C 
ATOM      5  C   UNL     1      34.209 -20.511 -20.629  0.00  0.00    +0.037 C 
ATOM      6  C   UNL     1      36.558 -20.769 -20.129  0.00  0.00    +0.037 C 
ENDROOT
BRANCH   4   7
ATOM      7  O   UNL     1      35.831 -19.131 -21.706  0.00  0.00    -0.466 OA
BRANCH   7   8
ATOM      8  C   UNL     1      35.440 -19.315 -23.050  0.00  0.00    +0.279 C 
BRANCH   8  12
ATOM      9  O   UNL     1      33.165 -16.811 -26.499  0.00  0.00    -0.274 OA
ATOM     10  N   UNL     1      34.266 -18.043 -24.842  0.00  0.00    -0.232 N 
ATOM     11  N   UNL     1      34.990 -16.962 -22.851  0.00  0.00    -0.391 NA
ATOM     12  C   UNL     1      34.875 -18.023 -23.589  0.00  0.00    +0.210 C 
ATOM     13  C   UNL     1      33.840 -15.662 -24.579  0.00  0.00    +0.151 C 
ATOM     14  C   UNL     1      34.471 -15.754 -23.336  0.00  0.00    +0.123 C 
ATOM     15  C   UNL     1      33.718 -16.881 -25.406  0.00  0.00    +0.241 C 
ATOM     16  C   UNL     1      34.177 -19.283 -25.612  0.00  0.00    +0.122 C 
ATOM     17  C   UNL     1      33.332 -14.440 -25.034  0.00  0.00    -0.010 C 
ATOM     18  C   UNL     1      34.589 -14.603 -22.550  0.00  0.00    +0.028 C 
ATOM     19  C   UNL     1      33.456 -13.301 -24.240  0.00  0.00    -0.004 C 
ATOM     20  C   UNL     1      34.084 -13.382 -22.999  0.00  0.00    +0.002 C 
ENDBRANCH   8  12
ENDBRANCH   7   8
ENDBRANCH   4   7
BRANCH   1  21
ATOM     21  C   UNL     1      34.604 -23.266 -18.070  0.00  0.00    +0.047 C 
BRANCH  21  26
ATOM     22  S   UNL     1      36.305 -23.326 -15.895  0.00  0.00    -0.048 S 
ATOM     23  O   UNL     1      32.446 -23.341 -15.977  0.00  0.00    -0.274 OA
ATOM     24  O   UNL     1      36.203 -24.776 -13.704  0.00  0.00    -0.263 OA
ATOM     25  N   UNL     1      34.200 -24.139 -14.697  0.00  0.00    -0.246 N 
ATOM     26  C   UNL     1      34.717 -22.811 -16.616  0.00  0.00    +0.137 C 
ATOM     27  C   UNL     1      33.648 -23.445 -15.754  0.00  0.00    +0.239 C 
ATOM     28  C   UNL     1      35.563 -24.204 -14.575  0.00  0.00    +0.279 C 
ATOM     29  H   UNL     1      33.619 -24.582 -14.038  0.00  0.00    +0.158 HD
ENDBRANCH  21  26
ENDBRANCH   1  21
TORSDOF 5
ENDMDL
MODEL 8
REMARK VINA RESULT:     -11.1      3.339      5.132
REMARK  Name = 9889200
REMARK  5 active torsions:
REMARK  status: ('A' for Active; 'I' for Inactive)
REMARK    1  A    between atoms: C_1  and  C_21
REMARK    2  A    between atoms: C_4  and  O_7
REMARK    3  A    between atoms: O_7  and  C_8
REMARK    4  A    between atoms: C_8  and  C_12
REMARK    5  A    between atoms: C_21  and  C_26
REMARK                            x       y       z     vdW  Elec       q    Type
REMARK                         _______ _______ _______ _____ _____    ______ ____
ROOT
ATOM      1  C   UNL     1      35.083 -18.945 -22.255  0.00  0.00    -0.021 C 
ATOM      2  C   UNL     1      35.282 -17.912 -21.339  0.00  0.00    -0.001 C 
ATOM      3  C   UNL     1      34.818 -18.650 -23.592  0.00  0.00    -0.001 C 
ATOM      4  C   UNL     1      34.951 -16.302 -23.093  0.00  0.00    +0.139 C 
ATOM      5  C   UNL     1      35.216 -16.584 -21.761  0.00  0.00    +0.037 C 
ATOM      6  C   UNL     1      34.752 -17.323 -24.014  0.00  0.00    +0.037 C 
ENDROOT
BRANCH   4   7
ATOM      7  O   UNL     1      34.887 -14.993 -23.509  0.00  0.00    -0.466 OA
BRANCH   7   8
ATOM      8  C   UNL     1      33.674 -14.556 -24.082  0.00  0.00    +0.279 C 
BRANCH   8  12
ATOM      9  O   UNL     1      33.437  -9.741 -24.402  0.00  0.00    -0.274 OA
ATOM     10  N   UNL     1      33.563 -12.074 -24.268  0.00  0.00    -0.232 N 
ATOM     11  N   UNL     1      32.764 -13.190 -22.325  0.00  0.00    -0.391 NA
ATOM     12  C   UNL     1      33.304 -13.211 -23.505  0.00  0.00    +0.210 C 
ATOM     13  C   UNL     1      32.628 -10.748 -22.454  0.00  0.00    +0.151 C 
ATOM     14  C   UNL     1      32.414 -11.950 -21.775  0.00  0.00    +0.123 C 
ATOM     15  C   UNL     1      33.245 -10.791 -23.797  0.00  0.00    +0.241 C 
ATOM     16  C   UNL     1      34.176 -12.183 -25.591  0.00  0.00    +0.122 C 
ATOM     17  C   UNL     1      32.267  -9.526 -21.876  0.00  0.00    -0.010 C 
ATOM     18  C   UNL     1      31.831 -11.914 -20.504  0.00  0.00    +0.028 C 
ATOM     19  C   UNL     1      31.686  -9.505 -20.609  0.00  0.00    -0.004 C 
ATOM     20  C   UNL     1      31.468 -10.698 -19.923  0.00  0.00    +0.002 C 
ENDBRANCH   8  12
ENDBRANCH   7   8
ENDBRANCH   4   7
BRANCH   1  21
ATOM     21  C   UNL     1      35.152 -20.364 -21.804  0.00  0.00    +0.047 C 
BRANCH  21  26
ATOM     22  S   UNL     1      35.543 -21.840 -19.503  0.00  0.00    -0.048 S 
ATOM     23  O   UNL     1      32.270 -20.391 -20.947  0.00  0.00    -0.274 OA
ATOM     24  O   UNL     1      34.150 -23.840 -18.515  0.00  0.00    -0.263 OA
ATOM     25  N   UNL     1      33.020 -22.190 -19.702  0.00  0.00    -0.246 N 
ATOM     26  C   UNL     1      34.617 -20.548 -20.386  0.00  0.00    +0.137 C 
ATOM     27  C   UNL     1      33.175 -21.007 -20.394  0.00  0.00    +0.239 C 
ATOM     28  C   UNL     1      34.120 -22.796 -19.152  0.00  0.00    +0.279 C 
ATOM     29  H   UNL     1      32.128 -22.594 -19.603  0.00  0.00    +0.158 HD
ENDBRANCH  21  26
ENDBRANCH   1  21
TORSDOF 5
ENDMDL
MODEL 9
REMARK VINA RESULT:     -10.9      3.594      5.408
REMARK  Name = 9889200
REMARK  5 active torsions:
REMARK  status: ('A' for Active; 'I' for Inactive)
REMARK    1  A    between atoms: C_1  and  C_21
REMARK    2  A    between atoms: C_4  and  O_7
REMARK    3  A    between atoms: O_7  and  C_8
REMARK    4  A    between atoms: C_8  and  C_12
REMARK    5  A    between atoms: C_21  and  C_26
REMARK                            x       y       z     vdW  Elec       q    Type
REMARK                         _______ _______ _______ _____ _____    ______ ____
ROOT
ATOM      1  C   UNL     1      35.159 -18.720 -22.044  0.00  0.00    -0.021 C 
ATOM      2  C   UNL     1      35.254 -17.756 -21.042  0.00  0.00    -0.001 C 
ATOM      3  C   UNL     1      34.979 -18.331 -23.371  0.00  0.00    -0.001 C 
ATOM      4  C   UNL     1      34.987 -16.025 -22.689  0.00  0.00    +0.139 C 
ATOM      5  C   UNL     1      35.167 -16.401 -21.366  0.00  0.00    +0.037 C 
ATOM      6  C   UNL     1      34.893 -16.977 -23.696  0.00  0.00    +0.037 C 
ENDROOT
BRANCH   4   7
ATOM      7  O   UNL     1      34.904 -14.691 -23.009  0.00  0.00    -0.466 OA
BRANCH   7   8
ATOM      8  C   UNL     1      33.721 -14.251 -23.639  0.00  0.00    +0.279 C 
BRANCH   8  12
ATOM      9  O   UNL     1      31.577 -10.825 -20.991  0.00  0.00    -0.274 OA
ATOM     10  N   UNL     1      32.603 -12.501 -22.262  0.00  0.00    -0.232 N 
ATOM     11  N   UNL     1      34.113 -11.907 -24.001  0.00  0.00    -0.391 NA
ATOM     12  C   UNL     1      33.483 -12.799 -23.301  0.00  0.00    +0.210 C 
ATOM     13  C   UNL     1      33.044 -10.144 -22.678  0.00  0.00    +0.151 C 
ATOM     14  C   UNL     1      33.904 -10.555 -23.701  0.00  0.00    +0.123 C 
ATOM     15  C   UNL     1      32.334 -11.175 -21.891  0.00  0.00    +0.241 C 
ATOM     16  C   UNL     1      31.931 -13.567 -21.521  0.00  0.00    +0.122 C 
ATOM     17  C   UNL     1      32.857  -8.785 -22.403  0.00  0.00    -0.010 C 
ATOM     18  C   UNL     1      34.577  -9.583 -24.448  0.00  0.00    +0.028 C 
ATOM     19  C   UNL     1      33.536  -7.828 -23.156  0.00  0.00    -0.004 C 
ATOM     20  C   UNL     1      34.395  -8.226 -24.178  0.00  0.00    +0.002 C 
ENDBRANCH   8  12
ENDBRANCH   7   8
ENDBRANCH   4   7
BRANCH   1  21
ATOM     21  C   UNL     1      35.251 -20.167 -21.698  0.00  0.00    +0.047 C 
BRANCH  21  26
ATOM     22  S   UNL     1      35.481 -21.877 -19.542  0.00  0.00    -0.048 S 
ATOM     23  O   UNL     1      32.328 -20.191 -20.993  0.00  0.00    -0.274 OA
ATOM     24  O   UNL     1      33.987 -23.922 -18.834  0.00  0.00    -0.263 OA
ATOM     25  N   UNL     1      32.964 -22.128 -19.901  0.00  0.00    -0.246 N 
ATOM     26  C   UNL     1      34.636 -20.475 -20.334  0.00  0.00    +0.137 C 
ATOM     27  C   UNL     1      33.186 -20.887 -20.461  0.00  0.00    +0.239 C 
ATOM     28  C   UNL     1      34.017 -22.820 -19.361  0.00  0.00    +0.279 C 
ATOM     29  H   UNL     1      32.058 -22.512 -19.889  0.00  0.00    +0.158 HD
ENDBRANCH  21  26
ENDBRANCH   1  21
TORSDOF 5
ENDMDL
