MODEL 1
REMARK VINA RESULT:     -12.0      0.000      0.000
REMARK  Name = 54671008
REMARK  7 active torsions:
REMARK  status: ('A' for Active; 'I' for Inactive)
REMARK    1  A    between atoms: C_4  and  C_21
REMARK    2  A    between atoms: C_6  and  C_11
REMARK    3  A    between atoms: C_8  and  O_34
REMARK    4  A    between atoms: N_10  and  C_13
REMARK    5  A    between atoms: C_13  and  C_15
REMARK    6  A    between atoms: C_21  and  N_25
REMARK    7  A    between atoms: C_26  and  C_31
REMARK                            x       y       z     vdW  Elec       q    Type
REMARK                         _______ _______ _______ _____ _____    ______ ____
ROOT
ATOM      1  O   UNL     1      36.229 -23.475 -14.556  0.00  0.00    -0.271 OA
ATOM      2  N   UNL     1      33.908 -23.784 -14.512  0.00  0.00    -0.232 N 
ATOM      3  N   UNL     1      32.671 -23.547 -16.528  0.00  0.00    -0.386 NA
ATOM      4  C   UNL     1      32.730 -23.790 -15.255  0.00  0.00    +0.182 C 
ATOM      5  C   UNL     1      35.136 -23.507 -15.120  0.00  0.00    +0.265 C 
ATOM      6  C   UNL     1      33.850 -23.272 -17.164  0.00  0.00    +0.199 C 
ATOM      7  C   UNL     1      33.859 -24.074 -13.080  0.00  0.00    +0.122 C 
ATOM      8  C   UNL     1      35.057 -23.232 -16.581  0.00  0.00    +0.245 C 
ENDROOT
BRANCH   6  11
ATOM      9  O   UNL     1      34.031 -23.874 -19.427  0.00  0.00    -0.268 OA
ATOM     10  N   UNL     1      33.348 -21.712 -18.884  0.00  0.00    -0.295 N 
ATOM     11  C   UNL     1      33.758 -23.003 -18.606  0.00  0.00    +0.275 C 
ATOM     12  H   UNL     1      33.159 -21.108 -18.130  0.00  0.00    +0.150 HD
BRANCH  10  13
ATOM     13  C   UNL     1      33.181 -21.207 -20.228  0.00  0.00    +0.117 C 
BRANCH  13  15
ATOM     14  F   UNL     1      37.806 -18.584 -22.081  0.00  0.00    -0.204 F 
ATOM     15  C   UNL     1      34.415 -20.508 -20.723  0.00  0.00    -0.002 C 
ATOM     16  C   UNL     1      35.654 -20.790 -20.148  0.00  0.00    -0.000 C 
ATOM     17  C   UNL     1      34.321 -19.576 -21.756  0.00  0.00    -0.000 C 
ATOM     18  C   UNL     1      36.799 -20.140 -20.607  0.00  0.00    +0.029 C 
ATOM     19  C   UNL     1      35.467 -18.925 -22.215  0.00  0.00    +0.029 C 
ATOM     20  C   UNL     1      36.706 -19.208 -21.640  0.00  0.00    +0.140 C 
ENDBRANCH  13  15
ENDBRANCH  10  13
ENDBRANCH   6  11
BRANCH   4  21
ATOM     21  C   UNL     1      31.438 -24.096 -14.537  0.00  0.00    +0.117 C 
ATOM     22  C   UNL     1      31.337 -25.593 -14.276  0.00  0.00    +0.028 C 
ATOM     23  C   UNL     1      31.366 -23.299 -13.242  0.00  0.00    +0.028 C 
BRANCH  21  25
ATOM     24  O   UNL     1      28.673 -24.870 -14.558  0.00  0.00    -0.265 OA
ATOM     25  N   UNL     1      30.431 -23.663 -15.472  0.00  0.00    -0.293 N 
ATOM     26  C   UNL     1      29.113 -24.093 -15.402  0.00  0.00    +0.302 C 
ATOM     27  H   UNL     1      30.688 -23.037 -16.187  0.00  0.00    +0.150 HD
BRANCH  26  31
ATOM     28  O   UNL     1      27.521 -22.412 -16.254  0.00  0.00    -0.416 OA
ATOM     29  N   UNL     1      27.961 -24.129 -17.620  0.00  0.00    -0.102 NA
ATOM     30  N   UNL     1      27.060 -23.297 -18.256  0.00  0.00    -0.111 NA
ATOM     31  C   UNL     1      28.202 -23.574 -16.455  0.00  0.00    +0.304 A 
ATOM     32  C   UNL     1      26.831 -22.309 -17.423  0.00  0.00    +0.227 A 
ATOM     33  C   UNL     1      25.957 -21.139 -17.574  0.00  0.00    +0.097 C 
ENDBRANCH  26  31
ENDBRANCH  21  25
ENDBRANCH   4  21
BRANCH   8  34
ATOM     34  O   UNL     1      36.222 -22.951 -17.256  0.00  0.00    -0.370 OA
ATOM     35  H   UNL     1      36.304 -23.175 -18.162  0.00  0.00    +0.211 HD
ENDBRANCH   8  34
TORSDOF 7
ENDMDL
MODEL 2
REMARK VINA RESULT:     -10.6      2.351      5.978
REMARK  Name = 54671008
REMARK  7 active torsions:
REMARK  status: ('A' for Active; 'I' for Inactive)
REMARK    1  A    between atoms: C_4  and  C_21
REMARK    2  A    between atoms: C_6  and  C_11
REMARK    3  A    between atoms: C_8  and  O_34
REMARK    4  A    between atoms: N_10  and  C_13
REMARK    5  A    between atoms: C_13  and  C_15
REMARK    6  A    between atoms: C_21  and  N_25
REMARK    7  A    between atoms: C_26  and  C_31
REMARK                            x       y       z     vdW  Elec       q    Type
REMARK                         _______ _______ _______ _____ _____    ______ ____
ROOT
ATOM      1  O   UNL     1      30.324 -22.781 -17.458  0.00  0.00    -0.271 OA
ATOM      2  N   UNL     1      31.494 -23.561 -15.586  0.00  0.00    -0.232 N 
ATOM      3  N   UNL     1      33.870 -23.591 -15.636  0.00  0.00    -0.386 NA
ATOM      4  C   UNL     1      32.745 -23.813 -15.030  0.00  0.00    +0.182 C 
ATOM      5  C   UNL     1      31.377 -23.037 -16.876  0.00  0.00    +0.265 C 
ATOM      6  C   UNL     1      33.802 -23.075 -16.902  0.00  0.00    +0.199 C 
ATOM      7  C   UNL     1      30.289 -23.848 -14.811  0.00  0.00    +0.122 C 
ATOM      8  C   UNL     1      32.673 -22.784 -17.563  0.00  0.00    +0.245 C 
ENDROOT
BRANCH   6  11
ATOM      9  O   UNL     1      36.148 -23.105 -17.008  0.00  0.00    -0.268 OA
ATOM     10  N   UNL     1      34.946 -22.284 -18.828  0.00  0.00    -0.295 N 
ATOM     11  C   UNL     1      35.090 -22.831 -17.568  0.00  0.00    +0.275 C 
ATOM     12  H   UNL     1      34.036 -22.112 -19.163  0.00  0.00    +0.150 HD
BRANCH  10  13
ATOM     13  C   UNL     1      36.065 -21.953 -19.681  0.00  0.00    +0.117 C 
BRANCH  13  15
ATOM     14  F   UNL     1      35.093 -17.326 -22.737  0.00  0.00    -0.204 F 
ATOM     15  C   UNL     1      35.806 -20.719 -20.496  0.00  0.00    -0.002 C 
ATOM     16  C   UNL     1      34.548 -20.507 -21.059  0.00  0.00    -0.000 C 
ATOM     17  C   UNL     1      36.823 -19.785 -20.690  0.00  0.00    -0.000 C 
ATOM     18  C   UNL     1      34.307 -19.361 -21.816  0.00  0.00    +0.029 C 
ATOM     19  C   UNL     1      36.583 -18.639 -21.447  0.00  0.00    +0.029 C 
ATOM     20  C   UNL     1      35.325 -18.427 -22.011  0.00  0.00    +0.140 C 
ENDBRANCH  13  15
ENDBRANCH  10  13
ENDBRANCH   6  11
BRANCH   4  21
ATOM     21  C   UNL     1      32.801 -24.380 -13.631  0.00  0.00    +0.117 C 
ATOM     22  C   UNL     1      32.607 -23.264 -12.615  0.00  0.00    +0.028 C 
ATOM     23  C   UNL     1      31.746 -25.467 -13.474  0.00  0.00    +0.028 C 
BRANCH  21  25
ATOM     24  O   UNL     1      34.720 -23.929 -11.544  0.00  0.00    -0.265 OA
ATOM     25  N   UNL     1      34.130 -24.930 -13.552  0.00  0.00    -0.293 N 
ATOM     26  C   UNL     1      34.990 -24.654 -12.498  0.00  0.00    +0.302 C 
ATOM     27  H   UNL     1      34.439 -25.526 -14.273  0.00  0.00    +0.150 HD
BRANCH  26  31
ATOM     28  O   UNL     1      37.167 -24.978 -13.613  0.00  0.00    -0.416 OA
ATOM     29  N   UNL     1      36.851 -26.132 -11.723  0.00  0.00    -0.102 NA
ATOM     30  N   UNL     1      38.111 -26.435 -12.202  0.00  0.00    -0.111 NA
ATOM     31  C   UNL     1      36.336 -25.279 -12.577  0.00  0.00    +0.304 A 
ATOM     32  C   UNL     1      38.252 -25.740 -13.306  0.00  0.00    +0.227 A 
ATOM     33  C   UNL     1      39.391 -25.671 -14.231  0.00  0.00    +0.097 C 
ENDBRANCH  26  31
ENDBRANCH  21  25
ENDBRANCH   4  21
BRANCH   8  34
ATOM     34  O   UNL     1      32.647 -22.266 -18.837  0.00  0.00    -0.370 OA
ATOM     35  H   UNL     1      32.159 -21.487 -19.017  0.00  0.00    +0.211 HD
ENDBRANCH   8  34
TORSDOF 7
ENDMDL
MODEL 3
REMARK VINA RESULT:     -10.5      2.442      6.088
REMARK  Name = 54671008
REMARK  7 active torsions:
REMARK  status: ('A' for Active; 'I' for Inactive)
REMARK    1  A    between atoms: C_4  and  C_21
REMARK    2  A    between atoms: C_6  and  C_11
REMARK    3  A    between atoms: C_8  and  O_34
REMARK    4  A    between atoms: N_10  and  C_13
REMARK    5  A    between atoms: C_13  and  C_15
REMARK    6  A    between atoms: C_21  and  N_25
REMARK    7  A    between atoms: C_26  and  C_31
REMARK                            x       y       z     vdW  Elec       q    Type
REMARK                         _______ _______ _______ _____ _____    ______ ____
ROOT
ATOM      1  O   UNL     1      30.121 -22.417 -17.065  0.00  0.00    -0.271 OA
ATOM      2  N   UNL     1      31.705 -23.406 -15.653  0.00  0.00    -0.232 N 
ATOM      3  N   UNL     1      33.938 -23.674 -16.425  0.00  0.00    -0.386 NA
ATOM      4  C   UNL     1      33.030 -23.811 -15.508  0.00  0.00    +0.182 C 
ATOM      5  C   UNL     1      31.265 -22.807 -16.836  0.00  0.00    +0.265 C 
ATOM      6  C   UNL     1      33.550 -23.091 -17.600  0.00  0.00    +0.199 C 
ATOM      7  C   UNL     1      30.765 -23.608 -14.552  0.00  0.00    +0.122 C 
ATOM      8  C   UNL     1      32.315 -22.653 -17.881  0.00  0.00    +0.245 C 
ENDROOT
BRANCH   6  11
ATOM      9  O   UNL     1      34.627 -23.687 -19.600  0.00  0.00    -0.268 OA
ATOM     10  N   UNL     1      35.482 -21.922 -18.340  0.00  0.00    -0.295 N 
ATOM     11  C   UNL     1      34.596 -22.945 -18.622  0.00  0.00    +0.275 C 
ATOM     12  H   UNL     1      35.346 -21.398 -17.518  0.00  0.00    +0.150 HD
BRANCH  10  13
ATOM     13  C   UNL     1      36.598 -21.583 -19.194  0.00  0.00    +0.117 C 
BRANCH  13  15
ATOM     14  F   UNL     1      35.182 -17.784 -23.102  0.00  0.00    -0.204 F 
ATOM     15  C   UNL     1      36.220 -20.570 -20.237  0.00  0.00    -0.002 C 
ATOM     16  C   UNL     1      37.175 -19.671 -20.714  0.00  0.00    -0.000 C 
ATOM     17  C   UNL     1      34.915 -20.527 -20.728  0.00  0.00    -0.000 C 
ATOM     18  C   UNL     1      36.824 -18.730 -21.681  0.00  0.00    +0.029 C 
ATOM     19  C   UNL     1      34.564 -19.586 -21.695  0.00  0.00    +0.029 C 
ATOM     20  C   UNL     1      35.519 -18.688 -22.172  0.00  0.00    +0.140 C 
ENDBRANCH  13  15
ENDBRANCH  10  13
ENDBRANCH   6  11
BRANCH   4  21
ATOM     21  C   UNL     1      33.440 -24.452 -14.204  0.00  0.00    +0.117 C 
ATOM     22  C   UNL     1      33.620 -23.379 -13.139  0.00  0.00    +0.028 C 
ATOM     23  C   UNL     1      32.399 -25.481 -13.786  0.00  0.00    +0.028 C 
BRANCH  21  25
ATOM     24  O   UNL     1      35.659 -24.856 -12.428  0.00  0.00    -0.265 OA
ATOM     25  N   UNL     1      34.695 -25.081 -14.526  0.00  0.00    -0.293 N 
ATOM     26  C   UNL     1      35.714 -25.233 -13.596  0.00  0.00    +0.302 C 
ATOM     27  H   UNL     1      34.834 -25.417 -15.441  0.00  0.00    +0.150 HD
BRANCH  26  31
ATOM     28  O   UNL     1      38.169 -25.327 -13.815  0.00  0.00    -0.416 OA
ATOM     29  N   UNL     1      37.031 -26.980 -14.804  0.00  0.00    -0.102 NA
ATOM     30  N   UNL     1      38.377 -27.194 -15.029  0.00  0.00    -0.111 NA
ATOM     31  C   UNL     1      36.956 -25.880 -14.092  0.00  0.00    +0.304 A 
ATOM     32  C   UNL     1      39.003 -26.206 -14.435  0.00  0.00    +0.227 A 
ATOM     33  C   UNL     1      40.442 -25.925 -14.347  0.00  0.00    +0.097 C 
ENDBRANCH  26  31
ENDBRANCH  21  25
ENDBRANCH   4  21
BRANCH   8  34
ATOM     34  O   UNL     1      31.965 -22.071 -19.078  0.00  0.00    -0.370 OA
ATOM     35  H   UNL     1      31.182 -22.340 -19.518  0.00  0.00    +0.211 HD
ENDBRANCH   8  34
TORSDOF 7
ENDMDL
MODEL 4
REMARK VINA RESULT:     -10.1      6.130      9.908
REMARK  Name = 54671008
REMARK  7 active torsions:
REMARK  status: ('A' for Active; 'I' for Inactive)
REMARK    1  A    between atoms: C_4  and  C_21
REMARK    2  A    between atoms: C_6  and  C_11
REMARK    3  A    between atoms: C_8  and  O_34
REMARK    4  A    between atoms: N_10  and  C_13
REMARK    5  A    between atoms: C_13  and  C_15
REMARK    6  A    between atoms: C_21  and  N_25
REMARK    7  A    between atoms: C_26  and  C_31
REMARK                            x       y       z     vdW  Elec       q    Type
REMARK                         _______ _______ _______ _____ _____    ______ ____
ROOT
ATOM      1  O   UNL     1      33.714 -19.293 -26.073  0.00  0.00    -0.271 OA
ATOM      2  N   UNL     1      34.620 -18.626 -24.020  0.00  0.00    -0.232 N 
ATOM      3  N   UNL     1      34.590 -16.321 -23.436  0.00  0.00    -0.386 NA
ATOM      4  C   UNL     1      34.888 -17.556 -23.170  0.00  0.00    +0.182 C 
ATOM      5  C   UNL     1      33.992 -18.421 -25.252  0.00  0.00    +0.265 C 
ATOM      6  C   UNL     1      33.973 -16.076 -24.632  0.00  0.00    +0.199 C 
ATOM      7  C   UNL     1      34.998 -19.979 -23.617  0.00  0.00    +0.122 C 
ATOM      8  C   UNL     1      33.654 -17.002 -25.547  0.00  0.00    +0.245 C 
ENDROOT
BRANCH   6  11
ATOM      9  O   UNL     1      33.004 -14.361 -25.912  0.00  0.00    -0.268 OA
ATOM     10  N   UNL     1      34.130 -13.806 -23.948  0.00  0.00    -0.295 N 
ATOM     11  C   UNL     1      33.644 -14.670 -24.910  0.00  0.00    +0.275 C 
ATOM     12  H   UNL     1      34.631 -14.183 -23.189  0.00  0.00    +0.150 HD
BRANCH  10  13
ATOM     13  C   UNL     1      33.936 -12.374 -23.999  0.00  0.00    +0.117 C 
BRANCH  13  15
ATOM     14  F   UNL     1      30.480 -10.567 -19.939  0.00  0.00    -0.204 F 
ATOM     15  C   UNL     1      33.015 -11.892 -22.916  0.00  0.00    -0.002 C 
ATOM     16  C   UNL     1      32.531 -12.788 -21.962  0.00  0.00    -0.000 C 
ATOM     17  C   UNL     1      32.642 -10.549 -22.864  0.00  0.00    -0.000 C 
ATOM     18  C   UNL     1      31.674 -12.340 -20.957  0.00  0.00    +0.029 C 
ATOM     19  C   UNL     1      31.785 -10.101 -21.858  0.00  0.00    +0.029 C 
ATOM     20  C   UNL     1      31.302 -10.997 -20.905  0.00  0.00    +0.140 C 
ENDBRANCH  13  15
ENDBRANCH  10  13
ENDBRANCH   6  11
BRANCH   4  21
ATOM     21  C   UNL     1      35.568 -17.846 -21.853  0.00  0.00    +0.117 C 
ATOM     22  C   UNL     1      37.001 -18.295 -22.103  0.00  0.00    +0.028 C 
ATOM     23  C   UNL     1      35.518 -16.611 -20.964  0.00  0.00    +0.028 C 
BRANCH  21  25
ATOM     24  O   UNL     1      36.504 -19.984 -20.181  0.00  0.00    -0.265 OA
ATOM     25  N   UNL     1      34.777 -18.916 -21.302  0.00  0.00    -0.293 N 
ATOM     26  C   UNL     1      35.320 -19.910 -20.500  0.00  0.00    +0.302 C 
ATOM     27  H   UNL     1      33.813 -18.942 -21.502  0.00  0.00    +0.150 HD
BRANCH  26  31
ATOM     28  O   UNL     1      34.763 -21.845 -19.075  0.00  0.00    -0.416 OA
ATOM     29  N   UNL     1      33.145 -21.140 -20.450  0.00  0.00    -0.102 NA
ATOM     30  N   UNL     1      32.660 -22.220 -19.737  0.00  0.00    -0.111 NA
ATOM     31  C   UNL     1      34.375 -20.957 -20.031  0.00  0.00    +0.304 A 
ATOM     32  C   UNL     1      33.637 -22.599 -18.948  0.00  0.00    +0.227 A 
ATOM     33  C   UNL     1      33.682 -23.695 -17.972  0.00  0.00    +0.097 C 
ENDBRANCH  26  31
ENDBRANCH  21  25
ENDBRANCH   4  21
BRANCH   8  34
ATOM     34  O   UNL     1      33.033 -16.713 -26.740  0.00  0.00    -0.370 OA
ATOM     35  H   UNL     1      33.342 -17.101 -27.535  0.00  0.00    +0.211 HD
ENDBRANCH   8  34
TORSDOF 7
ENDMDL
MODEL 5
REMARK VINA RESULT:     -10.0      1.913      2.844
REMARK  Name = 54671008
REMARK  7 active torsions:
REMARK  status: ('A' for Active; 'I' for Inactive)
REMARK    1  A    between atoms: C_4  and  C_21
REMARK    2  A    between atoms: C_6  and  C_11
REMARK    3  A    between atoms: C_8  and  O_34
REMARK    4  A    between atoms: N_10  and  C_13
REMARK    5  A    between atoms: C_13  and  C_15
REMARK    6  A    between atoms: C_21  and  N_25
REMARK    7  A    between atoms: C_26  and  C_31
REMARK                            x       y       z     vdW  Elec       q    Type
REMARK                         _______ _______ _______ _____ _____    ______ ____
ROOT
ATOM      1  O   UNL     1      38.130 -21.531 -16.365  0.00  0.00    -0.271 OA
ATOM      2  N   UNL     1      36.433 -22.911 -15.532  0.00  0.00    -0.232 N 
ATOM      3  N   UNL     1      34.576 -23.432 -16.923  0.00  0.00    -0.386 NA
ATOM      4  C   UNL     1      35.214 -23.530 -15.797  0.00  0.00    +0.182 C 
ATOM      5  C   UNL     1      37.059 -22.120 -16.499  0.00  0.00    +0.265 C 
ATOM      6  C   UNL     1      35.155 -22.668 -17.899  0.00  0.00    +0.199 C 
ATOM      7  C   UNL     1      37.064 -23.092 -14.226  0.00  0.00    +0.122 C 
ATOM      8  C   UNL     1      36.320 -22.015 -17.787  0.00  0.00    +0.245 C 
ENDROOT
BRANCH   6  11
ATOM      9  O   UNL     1      34.048 -23.585 -19.756  0.00  0.00    -0.268 OA
ATOM     10  N   UNL     1      34.208 -21.267 -19.568  0.00  0.00    -0.295 N 
ATOM     11  C   UNL     1      34.415 -22.573 -19.165  0.00  0.00    +0.275 C 
ATOM     12  H   UNL     1      34.555 -20.541 -19.001  0.00  0.00    +0.150 HD
BRANCH  10  13
ATOM     13  C   UNL     1      33.506 -20.914 -20.781  0.00  0.00    +0.117 C 
BRANCH  13  15
ATOM     14  F   UNL     1      36.094 -16.778 -23.591  0.00  0.00    -0.204 F 
ATOM     15  C   UNL     1      34.196 -19.811 -21.530  0.00  0.00    -0.002 C 
ATOM     16  C   UNL     1      33.944 -19.628 -22.890  0.00  0.00    -0.000 C 
ATOM     17  C   UNL     1      35.089 -18.970 -20.867  0.00  0.00    -0.000 C 
ATOM     18  C   UNL     1      34.586 -18.604 -23.586  0.00  0.00    +0.029 C 
ATOM     19  C   UNL     1      35.731 -17.945 -21.563  0.00  0.00    +0.029 C 
ATOM     20  C   UNL     1      35.479 -17.762 -22.923  0.00  0.00    +0.140 C 
ENDBRANCH  13  15
ENDBRANCH  10  13
ENDBRANCH   6  11
BRANCH   4  21
ATOM     21  C   UNL     1      34.591 -24.371 -14.708  0.00  0.00    +0.117 C 
ATOM     22  C   UNL     1      35.142 -25.788 -14.774  0.00  0.00    +0.028 C 
ATOM     23  C   UNL     1      34.854 -23.733 -13.351  0.00  0.00    +0.028 C 
BRANCH  21  25
ATOM     24  O   UNL     1      32.421 -25.152 -12.998  0.00  0.00    -0.265 OA
ATOM     25  N   UNL     1      33.188 -24.343 -15.032  0.00  0.00    -0.293 N 
ATOM     26  C   UNL     1      32.206 -24.742 -14.136  0.00  0.00    +0.302 C 
ATOM     27  H   UNL     1      32.915 -24.028 -15.925  0.00  0.00    +0.150 HD
BRANCH  26  31
ATOM     28  O   UNL     1      30.332 -23.526 -15.183  0.00  0.00    -0.416 OA
ATOM     29  N   UNL     1      29.923 -25.647 -14.602  0.00  0.00    -0.102 NA
ATOM     30  N   UNL     1      28.773 -25.130 -15.167  0.00  0.00    -0.111 NA
ATOM     31  C   UNL     1      30.806 -24.677 -14.632  0.00  0.00    +0.304 A 
ATOM     32  C   UNL     1      29.058 -23.891 -15.491  0.00  0.00    +0.227 A 
ATOM     33  C   UNL     1      28.213 -22.871 -16.124  0.00  0.00    +0.097 C 
ENDBRANCH  26  31
ENDBRANCH  21  25
ENDBRANCH   4  21
BRANCH   8  34
ATOM     34  O   UNL     1      36.869 -21.255 -18.794  0.00  0.00    -0.370 OA
ATOM     35  H   UNL     1      36.751 -21.507 -19.689  0.00  0.00    +0.211 HD
ENDBRANCH   8  34
TORSDOF 7
ENDMDL
MODEL 6
REMARK VINA RESULT:      -9.0      7.717     11.908
REMARK  Name = 54671008
REMARK  7 active torsions:
REMARK  status: ('A' for Active; 'I' for Inactive)
REMARK    1  A    between atoms: C_4  and  C_21
REMARK    2  A    between atoms: C_6  and  C_11
REMARK    3  A    between atoms: C_8  and  O_34
REMARK    4  A    between atoms: N_10  and  C_13
REMARK    5  A    between atoms: C_13  and  C_15
REMARK    6  A    between atoms: C_21  and  N_25
REMARK    7  A    between atoms: C_26  and  C_31
REMARK                            x       y       z     vdW  Elec       q    Type
REMARK                         _______ _______ _______ _____ _____    ______ ____
ROOT
ATOM      1  O   UNL     1      33.404 -15.722 -26.848  0.00  0.00    -0.271 OA
ATOM      2  N   UNL     1      33.558 -14.844 -24.683  0.00  0.00    -0.232 N 
ATOM      3  N   UNL     1      34.534 -16.166 -22.965  0.00  0.00    -0.386 NA
ATOM      4  C   UNL     1      33.970 -15.070 -23.372  0.00  0.00    +0.182 C 
ATOM      5  C   UNL     1      33.734 -15.820 -25.667  0.00  0.00    +0.265 C 
ATOM      6  C   UNL     1      34.727 -17.149 -23.897  0.00  0.00    +0.199 C 
ATOM      7  C   UNL     1      32.934 -13.569 -25.033  0.00  0.00    +0.122 C 
ATOM      8  C   UNL     1      34.382 -17.073 -25.190  0.00  0.00    +0.245 C 
ENDROOT
BRANCH   6  11
ATOM      9  O   UNL     1      35.381 -19.395 -24.102  0.00  0.00    -0.268 OA
ATOM     10  N   UNL     1      35.913 -18.238 -22.150  0.00  0.00    -0.295 N 
ATOM     11  C   UNL     1      35.368 -18.379 -23.412  0.00  0.00    +0.275 C 
ATOM     12  H   UNL     1      35.834 -17.365 -21.700  0.00  0.00    +0.150 HD
BRANCH  10  13
ATOM     13  C   UNL     1      36.597 -19.307 -21.458  0.00  0.00    +0.117 C 
BRANCH  13  15
ATOM     14  F   UNL     1      33.009 -22.708 -18.764  0.00  0.00    -0.204 F 
ATOM     15  C   UNL     1      35.640 -20.214 -20.739  0.00  0.00    -0.002 C 
ATOM     16  C   UNL     1      36.125 -21.200 -19.880  0.00  0.00    -0.000 C 
ATOM     17  C   UNL     1      34.266 -20.071 -20.931  0.00  0.00    -0.000 C 
ATOM     18  C   UNL     1      35.236 -22.042 -19.213  0.00  0.00    +0.029 C 
ATOM     19  C   UNL     1      33.377 -20.914 -20.265  0.00  0.00    +0.029 C 
ATOM     20  C   UNL     1      33.862 -21.899 -19.405  0.00  0.00    +0.140 C 
ENDBRANCH  13  15
ENDBRANCH  10  13
ENDBRANCH   6  11
BRANCH   4  21
ATOM     21  C   UNL     1      33.751 -13.974 -22.358  0.00  0.00    +0.117 C 
ATOM     22  C   UNL     1      32.273 -13.893 -22.000  0.00  0.00    +0.028 C 
ATOM     23  C   UNL     1      34.609 -14.232 -21.127  0.00  0.00    +0.028 C 
BRANCH  21  25
ATOM     24  O   UNL     1      32.503 -11.390 -22.281  0.00  0.00    -0.265 OA
ATOM     25  N   UNL     1      34.183 -12.789 -23.054  0.00  0.00    -0.293 N 
ATOM     26  C   UNL     1      33.512 -11.578 -22.955  0.00  0.00    +0.302 C 
ATOM     27  H   UNL     1      34.986 -12.841 -23.622  0.00  0.00    +0.150 HD
BRANCH  26  31
ATOM     28  O   UNL     1      33.872  -9.171 -23.356  0.00  0.00    -0.416 OA
ATOM     29  N   UNL     1      34.768 -10.562 -24.862  0.00  0.00    -0.102 NA
ATOM     30  N   UNL     1      35.068  -9.269 -25.244  0.00  0.00    -0.111 NA
ATOM     31  C   UNL     1      34.070 -10.458 -23.755  0.00  0.00    +0.304 A 
ATOM     32  C   UNL     1      34.525  -8.491 -24.337  0.00  0.00    +0.227 A 
ATOM     33  C   UNL     1      34.526  -7.026 -24.237  0.00  0.00    +0.097 C 
ENDBRANCH  26  31
ENDBRANCH  21  25
ENDBRANCH   4  21
BRANCH   8  34
ATOM     34  O   UNL     1      34.593 -18.086 -26.097  0.00  0.00    -0.370 OA
ATOM     35  H   UNL     1      34.750 -17.883 -26.998  0.00  0.00    +0.211 HD
ENDBRANCH   8  34
TORSDOF 7
ENDMDL
