MODEL 1
REMARK VINA RESULT:     -11.4      0.000      0.000
REMARK  Name = 25113615
REMARK  7 active torsions:
REMARK  status: ('A' for Active; 'I' for Inactive)
REMARK    1  A    between atoms: N_2  and  C_20
REMARK    2  A    between atoms: C_3  and  C_7
REMARK    3  A    between atoms: C_11  and  C_12
REMARK    4  A    between atoms: C_12  and  C_13
REMARK    5  A    between atoms: C_13  and  C_14
REMARK    6  A    between atoms: C_20  and  C_21
REMARK    7  A    between atoms: C_26  and  C_29
REMARK                            x       y       z     vdW  Elec       q    Type
REMARK                         _______ _______ _______ _____ _____    ______ ____
ROOT
ATOM      1  O   UNL     1      35.055 -23.877 -13.249  0.00  0.00    -0.273 OA
ATOM      2  N   UNL     1      33.516 -25.177 -14.416  0.00  0.00    -0.299 N 
ATOM      3  C   UNL     1      34.757 -24.606 -14.192  0.00  0.00    +0.241 C 
ATOM      4  H   UNL     1      33.399 -25.746 -15.211  0.00  0.00    +0.150 HD
ENDROOT
BRANCH   3   7
ATOM      5  O   UNL     1      37.014 -21.876 -16.723  0.00  0.00    -0.275 OA
ATOM      6  N   UNL     1      36.564 -23.816 -15.553  0.00  0.00    -0.273 N 
ATOM      7  C   UNL     1      35.758 -24.994 -15.238  0.00  0.00    +0.152 C 
ATOM      8  C   UNL     1      36.758 -26.003 -14.681  0.00  0.00    +0.031 C 
ATOM      9  C   UNL     1      37.831 -25.123 -14.043  0.00  0.00    +0.024 C 
ATOM     10  C   UNL     1      37.898 -23.926 -14.978  0.00  0.00    +0.094 C 
ATOM     11  C   UNL     1      36.231 -22.771 -16.398  0.00  0.00    +0.226 C 
BRANCH  11  12
ATOM     12  C   UNL     1      34.820 -22.771 -16.930  0.00  0.00    +0.090 C 
BRANCH  12  13
ATOM     13  C   UNL     1      34.797 -23.210 -18.387  0.00  0.00    +0.036 C 
BRANCH  13  14
ATOM     14  C   UNL     1      34.560 -22.071 -19.349  0.00  0.00    -0.022 C 
ATOM     15  C   UNL     1      33.257 -21.680 -19.659  0.00  0.00    -0.004 C 
ATOM     16  C   UNL     1      35.642 -21.410 -19.928  0.00  0.00    -0.004 C 
ATOM     17  C   UNL     1      33.036 -20.627 -20.547  0.00  0.00    -0.000 C 
ATOM     18  C   UNL     1      35.422 -20.358 -20.817  0.00  0.00    -0.000 C 
ATOM     19  C   UNL     1      34.119 -19.967 -21.127  0.00  0.00    -0.000 C 
ENDBRANCH  13  14
ENDBRANCH  12  13
ENDBRANCH  11  12
ENDBRANCH   3   7
BRANCH   2  20
ATOM     20  C   UNL     1      32.385 -24.978 -13.538  0.00  0.00    +0.116 C 
BRANCH  20  21
ATOM     21  C   UNL     1      31.169 -24.515 -14.287  0.00  0.00    -0.003 C 
ATOM     22  C   UNL     1      30.157 -25.423 -14.602  0.00  0.00    -0.003 C 
ATOM     23  C   UNL     1      31.051 -23.178 -14.671  0.00  0.00    -0.003 C 
ATOM     24  C   UNL     1      29.028 -24.994 -15.301  0.00  0.00    +0.002 C 
ATOM     25  C   UNL     1      29.922 -22.750 -15.368  0.00  0.00    +0.002 C 
ATOM     26  C   UNL     1      28.911 -23.658 -15.683  0.00  0.00    +0.031 C 
BRANCH  26  29
ATOM     27  N   UNL     1      26.768 -22.410 -15.803  0.00  0.00    -0.343 N 
ATOM     28  N   UNL     1      27.562 -23.568 -17.670  0.00  0.00    -0.285 NA
ATOM     29  C   UNL     1      27.733 -23.211 -16.410  0.00  0.00    +0.117 C 
ATOM     30  H   UNL     1      25.977 -22.119 -16.313  0.00  0.00    +0.144 HD
ATOM     31  H   UNL     1      26.875 -22.135 -14.864  0.00  0.00    +0.144 HD
ATOM     32  H   UNL     1      26.765 -23.267 -18.163  0.00  0.00    +0.188 HD
ENDBRANCH  26  29
ENDBRANCH  20  21
ENDBRANCH   2  20
TORSDOF 7
ENDMDL
MODEL 2
REMARK VINA RESULT:     -11.1      2.719      6.497
REMARK  Name = 25113615
REMARK  7 active torsions:
REMARK  status: ('A' for Active; 'I' for Inactive)
REMARK    1  A    between atoms: N_2  and  C_20
REMARK    2  A    between atoms: C_3  and  C_7
REMARK    3  A    between atoms: C_11  and  C_12
REMARK    4  A    between atoms: C_12  and  C_13
REMARK    5  A    between atoms: C_13  and  C_14
REMARK    6  A    between atoms: C_20  and  C_21
REMARK    7  A    between atoms: C_26  and  C_29
REMARK                            x       y       z     vdW  Elec       q    Type
REMARK                         _______ _______ _______ _____ _____    ______ ____
ROOT
ATOM      1  O   UNL     1      34.971 -24.945 -16.130  0.00  0.00    -0.273 OA
ATOM      2  N   UNL     1      34.740 -22.785 -16.968  0.00  0.00    -0.299 N 
ATOM      3  C   UNL     1      35.104 -23.728 -16.023  0.00  0.00    +0.241 C 
ATOM      4  H   UNL     1      34.897 -21.834 -16.767  0.00  0.00    +0.150 HD
ENDROOT
BRANCH   3   7
ATOM      5  O   UNL     1      34.761 -25.176 -11.931  0.00  0.00    -0.275 OA
ATOM      6  N   UNL     1      35.717 -24.096 -13.736  0.00  0.00    -0.273 N 
ATOM      7  C   UNL     1      35.726 -23.105 -14.810  0.00  0.00    +0.152 C 
ATOM      8  C   UNL     1      37.205 -22.815 -15.050  0.00  0.00    +0.031 C 
ATOM      9  C   UNL     1      37.888 -24.128 -14.672  0.00  0.00    +0.024 C 
ATOM     10  C   UNL     1      37.053 -24.631 -13.506  0.00  0.00    +0.094 C 
ATOM     11  C   UNL     1      34.660 -24.426 -12.905  0.00  0.00    +0.226 C 
BRANCH  11  12
ATOM     12  C   UNL     1      33.328 -23.806 -13.247  0.00  0.00    +0.090 C 
BRANCH  12  13
ATOM     13  C   UNL     1      32.299 -24.884 -13.553  0.00  0.00    +0.036 C 
BRANCH  13  14
ATOM     14  C   UNL     1      31.251 -24.444 -14.546  0.00  0.00    -0.022 C 
ATOM     15  C   UNL     1      29.991 -25.040 -14.540  0.00  0.00    -0.004 C 
ATOM     16  C   UNL     1      31.545 -23.441 -15.470  0.00  0.00    -0.004 C 
ATOM     17  C   UNL     1      29.021 -24.634 -15.458  0.00  0.00    -0.000 C 
ATOM     18  C   UNL     1      30.576 -23.035 -16.388  0.00  0.00    -0.000 C 
ATOM     19  C   UNL     1      29.315 -23.631 -16.382  0.00  0.00    -0.000 C 
ENDBRANCH  13  14
ENDBRANCH  12  13
ENDBRANCH  11  12
ENDBRANCH   3   7
BRANCH   2  20
ATOM     20  C   UNL     1      34.141 -23.129 -18.238  0.00  0.00    +0.116 C 
BRANCH  20  21
ATOM     21  C   UNL     1      34.352 -22.056 -19.267  0.00  0.00    -0.003 C 
ATOM     22  C   UNL     1      35.646 -21.685 -19.631  0.00  0.00    -0.003 C 
ATOM     23  C   UNL     1      33.254 -21.429 -19.857  0.00  0.00    -0.003 C 
ATOM     24  C   UNL     1      35.843 -20.686 -20.585  0.00  0.00    +0.002 C 
ATOM     25  C   UNL     1      33.451 -20.431 -20.811  0.00  0.00    +0.002 C 
ATOM     26  C   UNL     1      34.746 -20.060 -21.175  0.00  0.00    +0.031 C 
BRANCH  26  29
ATOM     27  N   UNL     1      35.526 -17.797 -21.833  0.00  0.00    -0.343 N 
ATOM     28  N   UNL     1      34.586 -19.227 -23.424  0.00  0.00    -0.285 NA
ATOM     29  C   UNL     1      34.951 -19.020 -22.171  0.00  0.00    +0.117 C 
ATOM     30  H   UNL     1      35.655 -17.106 -22.523  0.00  0.00    +0.144 HD
ATOM     31  H   UNL     1      35.802 -17.622 -20.905  0.00  0.00    +0.144 HD
ATOM     32  H   UNL     1      34.724 -18.524 -24.099  0.00  0.00    +0.188 HD
ENDBRANCH  26  29
ENDBRANCH  20  21
ENDBRANCH   2  20
TORSDOF 7
ENDMDL
MODEL 3
REMARK VINA RESULT:      -9.9      3.170      7.457
REMARK  Name = 25113615
REMARK  7 active torsions:
REMARK  status: ('A' for Active; 'I' for Inactive)
REMARK    1  A    between atoms: N_2  and  C_20
REMARK    2  A    between atoms: C_3  and  C_7
REMARK    3  A    between atoms: C_11  and  C_12
REMARK    4  A    between atoms: C_12  and  C_13
REMARK    5  A    between atoms: C_13  and  C_14
REMARK    6  A    between atoms: C_20  and  C_21
REMARK    7  A    between atoms: C_26  and  C_29
REMARK                            x       y       z     vdW  Elec       q    Type
REMARK                         _______ _______ _______ _____ _____    ______ ____
ROOT
ATOM      1  O   UNL     1      34.562 -23.516 -17.506  0.00  0.00    -0.273 OA
ATOM      2  N   UNL     1      36.071 -21.942 -18.321  0.00  0.00    -0.299 N 
ATOM      3  C   UNL     1      35.434 -22.668 -17.330  0.00  0.00    +0.241 C 
ATOM      4  H   UNL     1      36.756 -21.286 -18.055  0.00  0.00    +0.150 HD
ENDROOT
BRANCH   3   7
ATOM      5  O   UNL     1      34.471 -24.768 -13.639  0.00  0.00    -0.275 OA
ATOM      6  N   UNL     1      35.725 -23.486 -15.097  0.00  0.00    -0.273 N 
ATOM      7  C   UNL     1      35.942 -22.328 -15.961  0.00  0.00    +0.152 C 
ATOM      8  C   UNL     1      37.457 -22.144 -15.978  0.00  0.00    +0.031 C 
ATOM      9  C   UNL     1      37.988 -23.561 -15.777  0.00  0.00    +0.024 C 
ATOM     10  C   UNL     1      36.977 -24.178 -14.823  0.00  0.00    +0.094 C 
ATOM     11  C   UNL     1      34.549 -23.853 -14.463  0.00  0.00    +0.226 C 
BRANCH  11  12
ATOM     12  C   UNL     1      33.321 -23.058 -14.829  0.00  0.00    +0.090 C 
BRANCH  12  13
ATOM     13  C   UNL     1      32.193 -23.333 -13.846  0.00  0.00    +0.036 C 
BRANCH  13  14
ATOM     14  C   UNL     1      30.923 -23.804 -14.511  0.00  0.00    -0.022 C 
ATOM     15  C   UNL     1      30.254 -22.970 -15.407  0.00  0.00    -0.004 C 
ATOM     16  C   UNL     1      30.417 -25.073 -14.230  0.00  0.00    -0.004 C 
ATOM     17  C   UNL     1      29.080 -23.404 -16.023  0.00  0.00    -0.000 C 
ATOM     18  C   UNL     1      29.243 -25.508 -14.845  0.00  0.00    -0.000 C 
ATOM     19  C   UNL     1      28.575 -24.673 -15.741  0.00  0.00    -0.000 C 
ENDBRANCH  13  14
ENDBRANCH  12  13
ENDBRANCH  11  12
ENDBRANCH   3   7
BRANCH   2  20
ATOM     20  C   UNL     1      35.780 -22.099 -19.728  0.00  0.00    +0.116 C 
BRANCH  20  21
ATOM     21  C   UNL     1      35.681 -20.777 -20.432  0.00  0.00    -0.003 C 
ATOM     22  C   UNL     1      34.446 -20.327 -20.899  0.00  0.00    -0.003 C 
ATOM     23  C   UNL     1      36.824 -19.999 -20.621  0.00  0.00    -0.003 C 
ATOM     24  C   UNL     1      34.354 -19.099 -21.555  0.00  0.00    +0.002 C 
ATOM     25  C   UNL     1      36.731 -18.771 -21.277  0.00  0.00    +0.002 C 
ATOM     26  C   UNL     1      35.496 -18.322 -21.744  0.00  0.00    +0.031 C 
BRANCH  26  29
ATOM     27  N   UNL     1      35.006 -15.888 -21.752  0.00  0.00    -0.343 N 
ATOM     28  N   UNL     1      35.683 -16.959 -23.715  0.00  0.00    -0.285 NA
ATOM     29  C   UNL     1      35.399 -17.041 -22.427  0.00  0.00    +0.117 C 
ATOM     30  H   UNL     1      34.946 -15.032 -22.234  0.00  0.00    +0.144 HD
ATOM     31  H   UNL     1      34.787 -15.928 -20.794  0.00  0.00    +0.144 HD
ATOM     32  H   UNL     1      35.617 -16.094 -24.179  0.00  0.00    +0.188 HD
ENDBRANCH  26  29
ENDBRANCH  20  21
ENDBRANCH   2  20
TORSDOF 7
ENDMDL
MODEL 4
REMARK VINA RESULT:      -9.8      8.803     12.630
REMARK  Name = 25113615
REMARK  7 active torsions:
REMARK  status: ('A' for Active; 'I' for Inactive)
REMARK    1  A    between atoms: N_2  and  C_20
REMARK    2  A    between atoms: C_3  and  C_7
REMARK    3  A    between atoms: C_11  and  C_12
REMARK    4  A    between atoms: C_12  and  C_13
REMARK    5  A    between atoms: C_13  and  C_14
REMARK    6  A    between atoms: C_20  and  C_21
REMARK    7  A    between atoms: C_26  and  C_29
REMARK                            x       y       z     vdW  Elec       q    Type
REMARK                         _______ _______ _______ _____ _____    ______ ____
ROOT
ATOM      1  O   UNL     1      33.884 -14.858 -21.304  0.00  0.00    -0.273 OA
ATOM      2  N   UNL     1      32.741 -13.282 -22.581  0.00  0.00    -0.299 N 
ATOM      3  C   UNL     1      33.708 -14.246 -22.355  0.00  0.00    +0.241 C 
ATOM      4  H   UNL     1      32.699 -12.860 -23.470  0.00  0.00    +0.150 HD
ENDROOT
BRANCH   3   7
ATOM      5  O   UNL     1      34.306 -18.107 -24.277  0.00  0.00    -0.275 OA
ATOM      6  N   UNL     1      34.156 -15.807 -24.117  0.00  0.00    -0.273 N 
ATOM      7  C   UNL     1      34.544 -14.508 -23.571  0.00  0.00    +0.152 C 
ATOM      8  C   UNL     1      34.210 -13.514 -24.680  0.00  0.00    +0.031 C 
ATOM      9  C   UNL     1      33.034 -14.168 -25.401  0.00  0.00    +0.024 C 
ATOM     10  C   UNL     1      33.366 -15.650 -25.331  0.00  0.00    +0.094 C 
ATOM     11  C   UNL     1      34.567 -17.057 -23.685  0.00  0.00    +0.226 C 
BRANCH  11  12
ATOM     12  C   UNL     1      35.381 -17.086 -22.416  0.00  0.00    +0.090 C 
BRANCH  12  13
ATOM     13  C   UNL     1      36.335 -18.272 -22.419  0.00  0.00    +0.036 C 
BRANCH  13  14
ATOM     14  C   UNL     1      35.914 -19.378 -21.483  0.00  0.00    -0.022 C 
ATOM     15  C   UNL     1      34.569 -19.734 -21.383  0.00  0.00    -0.004 C 
ATOM     16  C   UNL     1      36.870 -20.044 -20.716  0.00  0.00    -0.004 C 
ATOM     17  C   UNL     1      34.179 -20.756 -20.518  0.00  0.00    -0.000 C 
ATOM     18  C   UNL     1      36.480 -21.066 -19.850  0.00  0.00    -0.000 C 
ATOM     19  C   UNL     1      35.135 -21.422 -19.751  0.00  0.00    -0.000 C 
ENDBRANCH  13  14
ENDBRANCH  12  13
ENDBRANCH  11  12
ENDBRANCH   3   7
BRANCH   2  20
ATOM     20  C   UNL     1      31.792 -12.864 -21.575  0.00  0.00    +0.116 C 
BRANCH  20  21
ATOM     21  C   UNL     1      31.912 -11.400 -21.264  0.00  0.00    -0.003 C 
ATOM     22  C   UNL     1      32.095 -10.481 -22.298  0.00  0.00    -0.003 C 
ATOM     23  C   UNL     1      31.843 -10.958 -19.942  0.00  0.00    -0.003 C 
ATOM     24  C   UNL     1      32.209  -9.121 -22.010  0.00  0.00    +0.002 C 
ATOM     25  C   UNL     1      31.956  -9.598 -19.655  0.00  0.00    +0.002 C 
ATOM     26  C   UNL     1      32.139  -8.679 -20.689  0.00  0.00    +0.031 C 
BRANCH  26  29
ATOM     27  N   UNL     1      31.484  -6.313 -21.057  0.00  0.00    -0.343 N 
ATOM     28  N   UNL     1      33.112  -6.851 -19.470  0.00  0.00    -0.285 NA
ATOM     29  C   UNL     1      32.257  -7.261 -20.389  0.00  0.00    +0.117 C 
ATOM     30  H   UNL     1      31.581  -5.358 -20.839  0.00  0.00    +0.144 HD
ATOM     31  H   UNL     1      30.843  -6.597 -21.747  0.00  0.00    +0.144 HD
ATOM     32  H   UNL     1      33.194  -5.892 -19.266  0.00  0.00    +0.188 HD
ENDBRANCH  26  29
ENDBRANCH  20  21
ENDBRANCH   2  20
TORSDOF 7
ENDMDL
MODEL 5
REMARK VINA RESULT:      -9.4      1.413      1.888
REMARK  Name = 25113615
REMARK  7 active torsions:
REMARK  status: ('A' for Active; 'I' for Inactive)
REMARK    1  A    between atoms: N_2  and  C_20
REMARK    2  A    between atoms: C_3  and  C_7
REMARK    3  A    between atoms: C_11  and  C_12
REMARK    4  A    between atoms: C_12  and  C_13
REMARK    5  A    between atoms: C_13  and  C_14
REMARK    6  A    between atoms: C_20  and  C_21
REMARK    7  A    between atoms: C_26  and  C_29
REMARK                            x       y       z     vdW  Elec       q    Type
REMARK                         _______ _______ _______ _____ _____    ______ ____
ROOT
ATOM      1  O   UNL     1      35.888 -23.472 -12.271  0.00  0.00    -0.273 OA
ATOM      2  N   UNL     1      34.225 -24.883 -13.088  0.00  0.00    -0.299 N 
ATOM      3  C   UNL     1      35.533 -24.488 -12.864  0.00  0.00    +0.241 C 
ATOM      4  H   UNL     1      34.066 -25.721 -13.579  0.00  0.00    +0.150 HD
ENDROOT
BRANCH   3   7
ATOM      5  O   UNL     1      38.616 -23.640 -15.819  0.00  0.00    -0.275 OA
ATOM      6  N   UNL     1      37.608 -24.716 -14.039  0.00  0.00    -0.273 N 
ATOM      7  C   UNL     1      36.524 -25.469 -13.414  0.00  0.00    +0.152 C 
ATOM      8  C   UNL     1      37.199 -26.245 -12.286  0.00  0.00    +0.031 C 
ATOM      9  C   UNL     1      38.371 -25.348 -11.892  0.00  0.00    +0.024 C 
ATOM     10  C   UNL     1      38.811 -24.751 -13.219  0.00  0.00    +0.094 C 
ATOM     11  C   UNL     1      37.617 -24.147 -15.302  0.00  0.00    +0.226 C 
BRANCH  11  12
ATOM     12  C   UNL     1      36.310 -24.175 -16.053  0.00  0.00    +0.090 C 
BRANCH  12  13
ATOM     13  C   UNL     1      35.737 -22.771 -16.183  0.00  0.00    +0.036 C 
BRANCH  13  14
ATOM     14  C   UNL     1      35.569 -22.326 -17.615  0.00  0.00    -0.022 C 
ATOM     15  C   UNL     1      34.328 -22.443 -18.240  0.00  0.00    -0.004 C 
ATOM     16  C   UNL     1      36.654 -21.799 -18.314  0.00  0.00    -0.004 C 
ATOM     17  C   UNL     1      34.170 -22.032 -19.564  0.00  0.00    -0.000 C 
ATOM     18  C   UNL     1      36.498 -21.388 -19.638  0.00  0.00    -0.000 C 
ATOM     19  C   UNL     1      35.256 -21.504 -20.263  0.00  0.00    -0.000 C 
ENDBRANCH  13  14
ENDBRANCH  12  13
ENDBRANCH  11  12
ENDBRANCH   3   7
BRANCH   2  20
ATOM     20  C   UNL     1      33.082 -24.122 -12.636  0.00  0.00    +0.116 C 
BRANCH  20  21
ATOM     21  C   UNL     1      32.015 -24.035 -13.689  0.00  0.00    -0.003 C 
ATOM     22  C   UNL     1      30.735 -24.525 -13.426  0.00  0.00    -0.003 C 
ATOM     23  C   UNL     1      32.302 -23.467 -14.931  0.00  0.00    -0.003 C 
ATOM     24  C   UNL     1      29.744 -24.447 -14.404  0.00  0.00    +0.002 C 
ATOM     25  C   UNL     1      31.311 -23.389 -15.908  0.00  0.00    +0.002 C 
ATOM     26  C   UNL     1      30.031 -23.879 -15.645  0.00  0.00    +0.031 C 
BRANCH  26  29
ATOM     27  N   UNL     1      28.570 -22.569 -17.165  0.00  0.00    -0.343 N 
ATOM     28  N   UNL     1      28.441 -24.901 -17.128  0.00  0.00    -0.285 NA
ATOM     29  C   UNL     1      28.997 -23.796 -16.664  0.00  0.00    +0.117 C 
ATOM     30  H   UNL     1      27.868 -22.536 -17.854  0.00  0.00    +0.144 HD
ATOM     31  H   UNL     1      28.969 -21.734 -16.830  0.00  0.00    +0.144 HD
ATOM     32  H   UNL     1      27.741 -24.847 -17.817  0.00  0.00    +0.188 HD
ENDBRANCH  26  29
ENDBRANCH  20  21
ENDBRANCH   2  20
TORSDOF 7
ENDMDL
MODEL 6
REMARK VINA RESULT:      -9.4     11.187     15.098
REMARK  Name = 25113615
REMARK  7 active torsions:
REMARK  status: ('A' for Active; 'I' for Inactive)
REMARK    1  A    between atoms: N_2  and  C_20
REMARK    2  A    between atoms: C_3  and  C_7
REMARK    3  A    between atoms: C_11  and  C_12
REMARK    4  A    between atoms: C_12  and  C_13
REMARK    5  A    between atoms: C_13  and  C_14
REMARK    6  A    between atoms: C_20  and  C_21
REMARK    7  A    between atoms: C_26  and  C_29
REMARK                            x       y       z     vdW  Elec       q    Type
REMARK                         _______ _______ _______ _____ _____    ______ ____
ROOT
ATOM      1  O   UNL     1      32.305 -12.731 -22.421  0.00  0.00    -0.273 OA
ATOM      2  N   UNL     1      32.838 -10.505 -22.848  0.00  0.00    -0.299 N 
ATOM      3  C   UNL     1      32.987 -11.875 -22.980  0.00  0.00    +0.241 C 
ATOM      4  H   UNL     1      33.449  -9.917 -23.349  0.00  0.00    +0.150 HD
ENDROOT
BRANCH   3   7
ATOM      5  O   UNL     1      33.287 -15.558 -25.283  0.00  0.00    -0.275 OA
ATOM      6  N   UNL     1      33.617 -13.327 -24.778  0.00  0.00    -0.273 N 
ATOM      7  C   UNL     1      34.090 -12.238 -23.927  0.00  0.00    +0.152 C 
ATOM      8  C   UNL     1      34.369 -11.091 -24.896  0.00  0.00    +0.031 C 
ATOM      9  C   UNL     1      33.374 -11.335 -26.029  0.00  0.00    +0.024 C 
ATOM     10  C   UNL     1      33.322 -12.851 -26.123  0.00  0.00    +0.094 C 
ATOM     11  C   UNL     1      33.572 -14.676 -24.469  0.00  0.00    +0.226 C 
BRANCH  11  12
ATOM     12  C   UNL     1      33.901 -15.042 -23.043  0.00  0.00    +0.090 C 
BRANCH  12  13
ATOM     13  C   UNL     1      35.271 -15.700 -22.962  0.00  0.00    +0.036 C 
BRANCH  13  14
ATOM     14  C   UNL     1      35.205 -17.178 -22.664  0.00  0.00    -0.022 C 
ATOM     15  C   UNL     1      34.923 -18.083 -23.686  0.00  0.00    -0.004 C 
ATOM     16  C   UNL     1      35.427 -17.638 -21.366  0.00  0.00    -0.004 C 
ATOM     17  C   UNL     1      34.863 -19.450 -23.412  0.00  0.00    -0.000 C 
ATOM     18  C   UNL     1      35.366 -19.004 -21.091  0.00  0.00    -0.000 C 
ATOM     19  C   UNL     1      35.084 -19.910 -22.114  0.00  0.00    -0.000 C 
ENDBRANCH  13  14
ENDBRANCH  12  13
ENDBRANCH  11  12
ENDBRANCH   3   7
BRANCH   2  20
ATOM     20  C   UNL     1      31.829  -9.897 -22.011  0.00  0.00    +0.116 C 
BRANCH  20  21
ATOM     21  C   UNL     1      31.682  -8.428 -22.288  0.00  0.00    -0.003 C 
ATOM     22  C   UNL     1      31.955  -7.500 -21.283  0.00  0.00    -0.003 C 
ATOM     23  C   UNL     1      31.269  -7.992 -23.548  0.00  0.00    -0.003 C 
ATOM     24  C   UNL     1      31.815  -6.135 -21.539  0.00  0.00    +0.002 C 
ATOM     25  C   UNL     1      31.131  -6.628 -23.803  0.00  0.00    +0.002 C 
ATOM     26  C   UNL     1      31.404  -5.700 -22.798  0.00  0.00    +0.031 C 
BRANCH  26  29
ATOM     27  N   UNL     1      30.462  -3.466 -22.261  0.00  0.00    -0.343 N 
ATOM     28  N   UNL     1      31.892  -3.732 -24.089  0.00  0.00    -0.285 NA
ATOM     29  C   UNL     1      31.260  -4.277 -23.064  0.00  0.00    +0.117 C 
ATOM     30  H   UNL     1      30.378  -2.506 -22.459  0.00  0.00    +0.144 HD
ATOM     31  H   UNL     1      29.980  -3.853 -21.495  0.00  0.00    +0.144 HD
ATOM     32  H   UNL     1      31.795  -2.770 -24.271  0.00  0.00    +0.188 HD
ENDBRANCH  26  29
ENDBRANCH  20  21
ENDBRANCH   2  20
TORSDOF 7
ENDMDL
MODEL 7
REMARK VINA RESULT:      -9.1      9.973     13.950
REMARK  Name = 25113615
REMARK  7 active torsions:
REMARK  status: ('A' for Active; 'I' for Inactive)
REMARK    1  A    between atoms: N_2  and  C_20
REMARK    2  A    between atoms: C_3  and  C_7
REMARK    3  A    between atoms: C_11  and  C_12
REMARK    4  A    between atoms: C_12  and  C_13
REMARK    5  A    between atoms: C_13  and  C_14
REMARK    6  A    between atoms: C_20  and  C_21
REMARK    7  A    between atoms: C_26  and  C_29
REMARK                            x       y       z     vdW  Elec       q    Type
REMARK                         _______ _______ _______ _____ _____    ______ ____
ROOT
ATOM      1  O   UNL     1      33.024 -14.276 -22.590  0.00  0.00    -0.273 OA
ATOM      2  N   UNL     1      32.769 -12.007 -23.047  0.00  0.00    -0.299 N 
ATOM      3  C   UNL     1      33.269 -13.279 -23.266  0.00  0.00    +0.241 C 
ATOM      4  H   UNL     1      33.039 -11.285 -23.660  0.00  0.00    +0.150 HD
ENDROOT
BRANCH   3   7
ATOM      5  O   UNL     1      33.329 -16.447 -26.252  0.00  0.00    -0.275 OA
ATOM      6  N   UNL     1      33.591 -14.314 -25.402  0.00  0.00    -0.273 N 
ATOM      7  C   UNL     1      34.157 -13.341 -24.472  0.00  0.00    +0.152 C 
ATOM      8  C   UNL     1      34.123 -12.019 -25.235  0.00  0.00    +0.031 C 
ATOM      9  C   UNL     1      32.923 -12.178 -26.165  0.00  0.00    +0.024 C 
ATOM     10  C   UNL     1      32.967 -13.651 -26.539  0.00  0.00    +0.094 C 
ATOM     11  C   UNL     1      33.720 -15.693 -25.358  0.00  0.00    +0.226 C 
BRANCH  11  12
ATOM     12  C   UNL     1      34.385 -16.258 -24.129  0.00  0.00    +0.090 C 
BRANCH  12  13
ATOM     13  C   UNL     1      34.891 -17.668 -24.396  0.00  0.00    +0.036 C 
BRANCH  13  14
ATOM     14  C   UNL     1      35.184 -18.445 -23.135  0.00  0.00    -0.022 C 
ATOM     15  C   UNL     1      36.377 -18.230 -22.445  0.00  0.00    -0.004 C 
ATOM     16  C   UNL     1      34.263 -19.379 -22.662  0.00  0.00    -0.004 C 
ATOM     17  C   UNL     1      36.649 -18.948 -21.280  0.00  0.00    -0.000 C 
ATOM     18  C   UNL     1      34.535 -20.097 -21.497  0.00  0.00    -0.000 C 
ATOM     19  C   UNL     1      35.728 -19.881 -20.806  0.00  0.00    -0.000 C 
ENDBRANCH  13  14
ENDBRANCH  12  13
ENDBRANCH  11  12
ENDBRANCH   3   7
BRANCH   2  20
ATOM     20  C   UNL     1      31.870 -11.687 -21.962  0.00  0.00    +0.116 C 
BRANCH  20  21
ATOM     21  C   UNL     1      31.903 -10.226 -21.618  0.00  0.00    -0.003 C 
ATOM     22  C   UNL     1      31.962  -9.825 -20.283  0.00  0.00    -0.003 C 
ATOM     23  C   UNL     1      31.872  -9.268 -22.633  0.00  0.00    -0.003 C 
ATOM     24  C   UNL     1      31.990  -8.467 -19.963  0.00  0.00    +0.002 C 
ATOM     25  C   UNL     1      31.900  -7.911 -22.313  0.00  0.00    +0.002 C 
ATOM     26  C   UNL     1      31.960  -7.511 -20.978  0.00  0.00    +0.031 C 
BRANCH  26  29
ATOM     27  N   UNL     1      31.181  -5.176 -21.307  0.00  0.00    -0.343 N 
ATOM     28  N   UNL     1      32.802  -5.661 -19.696  0.00  0.00    -0.285 NA
ATOM     29  C   UNL     1      31.991  -6.096 -20.644  0.00  0.00    +0.117 C 
ATOM     30  H   UNL     1      31.219  -4.223 -21.066  0.00  0.00    +0.144 HD
ATOM     31  H   UNL     1      30.573  -5.480 -22.019  0.00  0.00    +0.144 HD
ATOM     32  H   UNL     1      32.824  -4.704 -19.468  0.00  0.00    +0.188 HD
ENDBRANCH  26  29
ENDBRANCH  20  21
ENDBRANCH   2  20
TORSDOF 7
ENDMDL
MODEL 8
REMARK VINA RESULT:      -9.1     13.186     16.861
REMARK  Name = 25113615
REMARK  7 active torsions:
REMARK  status: ('A' for Active; 'I' for Inactive)
REMARK    1  A    between atoms: N_2  and  C_20
REMARK    2  A    between atoms: C_3  and  C_7
REMARK    3  A    between atoms: C_11  and  C_12
REMARK    4  A    between atoms: C_12  and  C_13
REMARK    5  A    between atoms: C_13  and  C_14
REMARK    6  A    between atoms: C_20  and  C_21
REMARK    7  A    between atoms: C_26  and  C_29
REMARK                            x       y       z     vdW  Elec       q    Type
REMARK                         _______ _______ _______ _____ _____    ______ ____
ROOT
ATOM      1  O   UNL     1      31.273  -8.511 -23.263  0.00  0.00    -0.273 OA
ATOM      2  N   UNL     1      32.377  -9.982 -21.836  0.00  0.00    -0.299 N 
ATOM      3  C   UNL     1      32.129  -8.750 -22.415  0.00  0.00    +0.241 C 
ATOM      4  H   UNL     1      33.093 -10.049 -21.164  0.00  0.00    +0.150 HD
ENDROOT
BRANCH   3   7
ATOM      5  O   UNL     1      32.009  -4.527 -23.470  0.00  0.00    -0.275 OA
ATOM      6  N   UNL     1      32.403  -6.384 -22.153  0.00  0.00    -0.273 N 
ATOM      7  C   UNL     1      33.024  -7.677 -21.871  0.00  0.00    +0.152 C 
ATOM      8  C   UNL     1      33.085  -7.746 -20.348  0.00  0.00    +0.031 C 
ATOM      9  C   UNL     1      31.886  -6.910 -19.906  0.00  0.00    +0.024 C 
ATOM     10  C   UNL     1      31.837  -5.801 -20.944  0.00  0.00    +0.094 C 
ATOM     11  C   UNL     1      32.440  -5.676 -23.342  0.00  0.00    +0.226 C 
BRANCH  11  12
ATOM     12  C   UNL     1      33.054  -6.388 -24.521  0.00  0.00    +0.090 C 
BRANCH  12  13
ATOM     13  C   UNL     1      34.481  -5.913 -24.749  0.00  0.00    +0.036 C 
BRANCH  13  14
ATOM     14  C   UNL     1      34.663  -5.176 -26.054  0.00  0.00    -0.022 C 
ATOM     15  C   UNL     1      33.561  -4.616 -26.698  0.00  0.00    -0.004 C 
ATOM     16  C   UNL     1      35.934  -5.056 -26.615  0.00  0.00    -0.004 C 
ATOM     17  C   UNL     1      33.727  -3.935 -27.904  0.00  0.00    -0.000 C 
ATOM     18  C   UNL     1      36.102  -4.375 -27.821  0.00  0.00    -0.000 C 
ATOM     19  C   UNL     1      34.998  -3.814 -28.465  0.00  0.00    -0.000 C 
ENDBRANCH  13  14
ENDBRANCH  12  13
ENDBRANCH  11  12
ENDBRANCH   3   7
BRANCH   2  20
ATOM     20  C   UNL     1      31.634 -11.176 -22.170  0.00  0.00    +0.116 C 
BRANCH  20  21
ATOM     21  C   UNL     1      32.508 -12.397 -22.175  0.00  0.00    -0.003 C 
ATOM     22  C   UNL     1      33.304 -12.680 -23.285  0.00  0.00    -0.003 C 
ATOM     23  C   UNL     1      32.522 -13.251 -21.071  0.00  0.00    -0.003 C 
ATOM     24  C   UNL     1      34.114 -13.816 -23.291  0.00  0.00    +0.002 C 
ATOM     25  C   UNL     1      33.332 -14.386 -21.077  0.00  0.00    +0.002 C 
ATOM     26  C   UNL     1      34.128 -14.668 -22.187  0.00  0.00    +0.031 C 
BRANCH  26  29
ATOM     27  N   UNL     1      35.153 -16.621 -21.046  0.00  0.00    -0.343 N 
ATOM     28  N   UNL     1      35.594 -16.212 -23.303  0.00  0.00    -0.285 NA
ATOM     29  C   UNL     1      34.974 -15.851 -22.193  0.00  0.00    +0.117 C 
ATOM     30  H   UNL     1      35.730 -17.417 -21.072  0.00  0.00    +0.144 HD
ATOM     31  H   UNL     1      34.702 -16.368 -20.208  0.00  0.00    +0.144 HD
ATOM     32  H   UNL     1      36.167 -17.012 -23.309  0.00  0.00    +0.188 HD
ENDBRANCH  26  29
ENDBRANCH  20  21
ENDBRANCH   2  20
TORSDOF 7
ENDMDL
MODEL 9
REMARK VINA RESULT:      -9.1     11.574     15.481
REMARK  Name = 25113615
REMARK  7 active torsions:
REMARK  status: ('A' for Active; 'I' for Inactive)
REMARK    1  A    between atoms: N_2  and  C_20
REMARK    2  A    between atoms: C_3  and  C_7
REMARK    3  A    between atoms: C_11  and  C_12
REMARK    4  A    between atoms: C_12  and  C_13
REMARK    5  A    between atoms: C_13  and  C_14
REMARK    6  A    between atoms: C_20  and  C_21
REMARK    7  A    between atoms: C_26  and  C_29
REMARK                            x       y       z     vdW  Elec       q    Type
REMARK                         _______ _______ _______ _____ _____    ______ ____
ROOT
ATOM      1  O   UNL     1      33.957 -11.507 -23.969  0.00  0.00    -0.273 OA
ATOM      2  N   UNL     1      32.823  -9.798 -22.866  0.00  0.00    -0.299 N 
ATOM      3  C   UNL     1      33.041 -11.110 -23.252  0.00  0.00    +0.241 C 
ATOM      4  H   UNL     1      32.052  -9.602 -22.287  0.00  0.00    +0.150 HD
ENDROOT
BRANCH   3   7
ATOM      5  O   UNL     1      33.892 -14.680 -20.910  0.00  0.00    -0.275 OA
ATOM      6  N   UNL     1      32.688 -12.850 -21.643  0.00  0.00    -0.273 N 
ATOM      7  C   UNL     1      32.027 -12.048 -22.671  0.00  0.00    +0.152 C 
ATOM      8  C   UNL     1      30.947 -11.277 -21.917  0.00  0.00    +0.031 C 
ATOM      9  C   UNL     1      31.537 -11.117 -20.518  0.00  0.00    +0.024 C 
ATOM     10  C   UNL     1      32.290 -12.421 -20.309  0.00  0.00    +0.094 C 
ATOM     11  C   UNL     1      33.476 -13.973 -21.831  0.00  0.00    +0.226 C 
BRANCH  11  12
ATOM     12  C   UNL     1      33.817 -14.314 -23.259  0.00  0.00    +0.090 C 
BRANCH  12  13
ATOM     13  C   UNL     1      34.976 -15.299 -23.313  0.00  0.00    +0.036 C 
BRANCH  13  14
ATOM     14  C   UNL     1      34.615 -16.609 -23.969  0.00  0.00    -0.022 C 
ATOM     15  C   UNL     1      34.999 -17.813 -23.380  0.00  0.00    -0.004 C 
ATOM     16  C   UNL     1      33.899 -16.616 -25.165  0.00  0.00    -0.004 C 
ATOM     17  C   UNL     1      34.666 -19.025 -23.985  0.00  0.00    -0.000 C 
ATOM     18  C   UNL     1      33.566 -17.827 -25.772  0.00  0.00    -0.000 C 
ATOM     19  C   UNL     1      33.950 -19.032 -25.182  0.00  0.00    -0.000 C 
ENDBRANCH  13  14
ENDBRANCH  12  13
ENDBRANCH  11  12
ENDBRANCH   3   7
BRANCH   2  20
ATOM     20  C   UNL     1      33.675  -8.704 -23.272  0.00  0.00    +0.116 C 
BRANCH  20  21
ATOM     21  C   UNL     1      32.939  -7.394 -23.280  0.00  0.00    -0.003 C 
ATOM     22  C   UNL     1      31.759  -7.254 -22.550  0.00  0.00    -0.003 C 
ATOM     23  C   UNL     1      33.434  -6.319 -24.019  0.00  0.00    -0.003 C 
ATOM     24  C   UNL     1      31.074  -6.039 -22.559  0.00  0.00    +0.002 C 
ATOM     25  C   UNL     1      32.749  -5.104 -24.027  0.00  0.00    +0.002 C 
ATOM     26  C   UNL     1      31.569  -4.964 -23.297  0.00  0.00    +0.031 C 
BRANCH  26  29
ATOM     27  N   UNL     1      30.567  -3.035 -24.496  0.00  0.00    -0.343 N 
ATOM     28  N   UNL     1      30.469  -3.152 -22.165  0.00  0.00    -0.285 NA
ATOM     29  C   UNL     1      30.855  -3.698 -23.305  0.00  0.00    +0.117 C 
ATOM     30  H   UNL     1      30.084  -2.177 -24.478  0.00  0.00    +0.144 HD
ATOM     31  H   UNL     1      30.849  -3.422 -25.356  0.00  0.00    +0.144 HD
ATOM     32  H   UNL     1      29.986  -2.295 -22.168  0.00  0.00    +0.188 HD
ENDBRANCH  26  29
ENDBRANCH  20  21
ENDBRANCH   2  20
TORSDOF 7
ENDMDL
