MODEL 1
REMARK VINA RESULT:     -11.9      0.000      0.000
REMARK  Name = 446129
REMARK  7 active torsions:
REMARK  status: ('A' for Active; 'I' for Inactive)
REMARK    1  A    between atoms: C_1  and  O_2
REMARK    2  A    between atoms: C_1  and  C_4
REMARK    3  A    between atoms: C_1  and  C_18
REMARK    4  A    between atoms: C_4  and  N_5
REMARK    5  A    between atoms: C_18  and  O_19
REMARK    6  A    between atoms: O_19  and  C_23
REMARK    7  A    between atoms: C_20  and  C_26
REMARK                            x       y       z     vdW  Elec       q    Type
REMARK                         _______ _______ _______ _____ _____    ______ ____
ROOT
ATOM      1  C   UNL     1      33.620 -16.076 -25.133  0.00  0.00    +0.133 C 
ENDROOT
BRANCH   1   2
ATOM      2  O   UNL     1      33.466 -16.394 -26.518  0.00  0.00    -0.383 OA
ATOM      3  H   UNL     1      32.705 -15.912 -26.878  0.00  0.00    +0.210 HD
ENDBRANCH   1   2
BRANCH   1   4
ATOM      4  C   UNL     1      35.099 -16.231 -24.770  0.00  0.00    -0.043 C 
BRANCH   4   5
ATOM      5  N   UNL     1      35.348 -17.431 -23.973  0.00  0.00    +0.391 N 
ATOM      6  N   UNL     1      34.878 -19.312 -21.875  0.00  0.00    -0.298 N 
ATOM      7  C   UNL     1      34.194 -18.337 -24.031  0.00  0.00    -0.055 C 
ATOM      8  C   UNL     1      35.632 -17.073 -22.578  0.00  0.00    -0.055 C 
ATOM      9  C   UNL     1      34.464 -19.623 -23.247  0.00  0.00    +0.069 C 
ATOM     10  C   UNL     1      35.950 -18.317 -21.745  0.00  0.00    +0.069 C 
ATOM     11  H   UNL     1      36.161 -17.908 -24.362  0.00  0.00    -0.079 HD
ATOM     12  N   UNL     1      35.870 -20.708 -20.198  0.00  0.00    -0.229 NA
ATOM     13  C   UNL     1      34.760 -20.285 -20.876  0.00  0.00    +0.132 C 
ATOM     14  C   UNL     1      33.488 -20.804 -20.597  0.00  0.00    +0.034 C 
ATOM     15  C   UNL     1      33.354 -21.772 -19.607  0.00  0.00    +0.004 C 
ATOM     16  C   UNL     1      35.702 -21.650 -19.243  0.00  0.00    +0.100 C 
ATOM     17  C   UNL     1      34.477 -22.208 -18.913  0.00  0.00    +0.021 C 
ENDBRANCH   4   5
ENDBRANCH   1   4
BRANCH   1  18
ATOM     18  C   UNL     1      33.084 -14.665 -24.892  0.00  0.00    +0.232 C 
BRANCH  18  19
ATOM     19  O   UNL     1      33.581 -14.191 -23.645  0.00  0.00    -0.473 OA
BRANCH  19  23
ATOM     20  C   UNL     1      32.263 -10.454 -22.410  0.00  0.00    -0.022 C 
ATOM     21  C   UNL     1      31.839 -11.600 -21.738  0.00  0.00    -0.001 C 
ATOM     22  C   UNL     1      33.129 -10.564 -23.498  0.00  0.00    -0.001 C 
ATOM     23  C   UNL     1      33.145 -12.958 -23.238  0.00  0.00    +0.139 C 
ATOM     24  C   UNL     1      32.282 -12.856 -22.152  0.00  0.00    +0.037 C 
ATOM     25  C   UNL     1      33.571 -11.820 -23.913  0.00  0.00    +0.037 C 
BRANCH  20  26
ATOM     26  C   UNL     1      31.780  -9.088 -21.959  0.00  0.00    +0.022 C 
ATOM     27  C   UNL     1      32.643  -8.521 -20.819  0.00  0.00    +0.004 C 
ATOM     28  C   UNL     1      31.694  -8.095 -23.131  0.00  0.00    +0.004 C 
ATOM     29  C   UNL     1      32.143  -7.150 -20.367  0.00  0.00    +0.000 C 
ATOM     30  C   UNL     1      31.198  -6.726 -22.670  0.00  0.00    +0.000 C 
ATOM     31  C   UNL     1      32.052  -6.171 -21.534  0.00  0.00    +0.000 C 
ENDBRANCH  20  26
ENDBRANCH  19  23
ENDBRANCH  18  19
ENDBRANCH   1  18
TORSDOF 7
ENDMDL
MODEL 2
REMARK VINA RESULT:     -11.6      3.342     11.028
REMARK  Name = 446129
REMARK  7 active torsions:
REMARK  status: ('A' for Active; 'I' for Inactive)
REMARK    1  A    between atoms: C_1  and  O_2
REMARK    2  A    between atoms: C_1  and  C_4
REMARK    3  A    between atoms: C_1  and  C_18
REMARK    4  A    between atoms: C_4  and  N_5
REMARK    5  A    between atoms: C_18  and  O_19
REMARK    6  A    between atoms: O_19  and  C_23
REMARK    7  A    between atoms: C_20  and  C_26
REMARK                            x       y       z     vdW  Elec       q    Type
REMARK                         _______ _______ _______ _____ _____    ______ ____
ROOT
ATOM      1  C   UNL     1      35.912 -18.728 -21.358  0.00  0.00    +0.133 C 
ENDROOT
BRANCH   1   2
ATOM      2  O   UNL     1      37.275 -18.975 -21.004  0.00  0.00    -0.383 OA
ATOM      3  H   UNL     1      37.597 -18.256 -20.438  0.00  0.00    +0.210 HD
ENDBRANCH   1   2
BRANCH   1   4
ATOM      4  C   UNL     1      35.890 -18.075 -22.743  0.00  0.00    -0.043 C 
BRANCH   4   5
ATOM      5  N   UNL     1      35.567 -16.650 -22.674  0.00  0.00    +0.391 N 
ATOM      6  N   UNL     1      33.870 -14.372 -22.380  0.00  0.00    -0.298 N 
ATOM      7  C   UNL     1      34.996 -16.313 -21.365  0.00  0.00    -0.055 C 
ATOM      8  C   UNL     1      34.626 -16.284 -23.739  0.00  0.00    -0.055 C 
ATOM      9  C   UNL     1      34.707 -14.814 -21.260  0.00  0.00    +0.069 C 
ATOM     10  C   UNL     1      34.325 -14.783 -23.714  0.00  0.00    +0.069 C 
ATOM     11  H   UNL     1      36.431 -16.123 -22.803  0.00  0.00    -0.079 HD
ATOM     12  N   UNL     1      33.355 -12.163 -23.156  0.00  0.00    -0.229 NA
ATOM     13  C   UNL     1      33.137 -13.185 -22.273  0.00  0.00    +0.132 C 
ATOM     14  C   UNL     1      32.187 -13.077 -21.248  0.00  0.00    +0.034 C 
ATOM     15  C   UNL     1      31.451 -11.903 -21.128  0.00  0.00    +0.004 C 
ATOM     16  C   UNL     1      32.621 -11.037 -23.009  0.00  0.00    +0.100 C 
ATOM     17  C   UNL     1      31.665 -10.860 -22.021  0.00  0.00    +0.021 C 
ENDBRANCH   4   5
ENDBRANCH   1   4
BRANCH   1  18
ATOM     18  C   UNL     1      35.145 -20.049 -21.301  0.00  0.00    +0.232 C 
BRANCH  18  19
ATOM     19  O   UNL     1      35.876 -20.971 -20.498  0.00  0.00    -0.473 OA
BRANCH  19  23
ATOM     20  C   UNL     1      33.755 -22.934 -17.519  0.00  0.00    -0.022 C 
ATOM     21  C   UNL     1      35.139 -22.804 -17.419  0.00  0.00    -0.001 C 
ATOM     22  C   UNL     1      33.083 -22.406 -18.622  0.00  0.00    -0.001 C 
ATOM     23  C   UNL     1      35.176 -21.619 -19.516  0.00  0.00    +0.139 C 
ATOM     24  C   UNL     1      35.852 -22.144 -18.419  0.00  0.00    +0.037 C 
ATOM     25  C   UNL     1      33.796 -21.747 -19.623  0.00  0.00    +0.037 C 
BRANCH  20  26
ATOM     26  C   UNL     1      32.980 -23.653 -16.431  0.00  0.00    +0.022 C 
ATOM     27  C   UNL     1      33.645 -23.496 -15.052  0.00  0.00    +0.004 C 
ATOM     28  C   UNL     1      31.508 -23.207 -16.386  0.00  0.00    +0.004 C 
ATOM     29  C   UNL     1      32.862 -24.231 -13.966  0.00  0.00    +0.000 C 
ATOM     30  C   UNL     1      30.734 -23.944 -15.294  0.00  0.00    +0.000 C 
ATOM     31  C   UNL     1      31.401 -23.792 -13.930  0.00  0.00    +0.000 C 
ENDBRANCH  20  26
ENDBRANCH  19  23
ENDBRANCH  18  19
ENDBRANCH   1  18
TORSDOF 7
ENDMDL
MODEL 3
REMARK VINA RESULT:     -11.5      0.652      1.640
REMARK  Name = 446129
REMARK  7 active torsions:
REMARK  status: ('A' for Active; 'I' for Inactive)
REMARK    1  A    between atoms: C_1  and  O_2
REMARK    2  A    between atoms: C_1  and  C_4
REMARK    3  A    between atoms: C_1  and  C_18
REMARK    4  A    between atoms: C_4  and  N_5
REMARK    5  A    between atoms: C_18  and  O_19
REMARK    6  A    between atoms: O_19  and  C_23
REMARK    7  A    between atoms: C_20  and  C_26
REMARK                            x       y       z     vdW  Elec       q    Type
REMARK                         _______ _______ _______ _____ _____    ______ ____
ROOT
ATOM      1  C   UNL     1      33.529 -16.074 -25.247  0.00  0.00    +0.133 C 
ENDROOT
BRANCH   1   2
ATOM      2  O   UNL     1      33.438 -16.386 -26.639  0.00  0.00    -0.383 OA
ATOM      3  H   UNL     1      33.547 -15.576 -27.161  0.00  0.00    +0.210 HD
ENDBRANCH   1   2
BRANCH   1   4
ATOM      4  C   UNL     1      34.818 -16.693 -24.702  0.00  0.00    -0.043 C 
BRANCH   4   5
ATOM      5  N   UNL     1      34.586 -17.460 -23.479  0.00  0.00    +0.391 N 
ATOM      6  N   UNL     1      35.088 -19.503 -21.547  0.00  0.00    -0.298 N 
ATOM      7  C   UNL     1      35.746 -17.368 -22.584  0.00  0.00    -0.055 C 
ATOM      8  C   UNL     1      34.311 -18.867 -23.797  0.00  0.00    -0.055 C 
ATOM      9  C   UNL     1      35.493 -18.120 -21.276  0.00  0.00    +0.069 C 
ATOM     10  C   UNL     1      34.010 -19.669 -22.529  0.00  0.00    +0.069 C 
ATOM     11  H   UNL     1      33.773 -17.065 -23.006  0.00  0.00    -0.079 HD
ATOM     12  N   UNL     1      34.122 -21.151 -20.098  0.00  0.00    -0.229 NA
ATOM     13  C   UNL     1      35.223 -20.475 -20.549  0.00  0.00    +0.132 C 
ATOM     14  C   UNL     1      36.501 -20.730 -20.032  0.00  0.00    +0.034 C 
ATOM     15  C   UNL     1      36.651 -21.692 -19.039  0.00  0.00    +0.004 C 
ATOM     16  C   UNL     1      34.306 -22.079 -19.132  0.00  0.00    +0.100 C 
ATOM     17  C   UNL     1      35.538 -22.384 -18.576  0.00  0.00    +0.021 C 
ENDBRANCH   4   5
ENDBRANCH   1   4
BRANCH   1  18
ATOM     18  C   UNL     1      33.471 -14.556 -25.081  0.00  0.00    +0.232 C 
BRANCH  18  19
ATOM     19  O   UNL     1      33.678 -14.235 -23.709  0.00  0.00    -0.473 OA
BRANCH  19  23
ATOM     20  C   UNL     1      32.294 -10.536 -22.432  0.00  0.00    -0.022 C 
ATOM     21  C   UNL     1      33.176 -10.616 -23.509  0.00  0.00    -0.001 C 
ATOM     22  C   UNL     1      31.878 -11.698 -21.784  0.00  0.00    -0.001 C 
ATOM     23  C   UNL     1      33.222 -13.014 -23.288  0.00  0.00    +0.139 C 
ATOM     24  C   UNL     1      33.641 -11.859 -23.939  0.00  0.00    +0.037 C 
ATOM     25  C   UNL     1      32.344 -12.941 -22.212  0.00  0.00    +0.037 C 
BRANCH  20  26
ATOM     26  C   UNL     1      31.790  -9.183 -21.965  0.00  0.00    +0.022 C 
ATOM     27  C   UNL     1      32.638  -8.621 -20.810  0.00  0.00    +0.004 C 
ATOM     28  C   UNL     1      31.699  -8.175 -23.123  0.00  0.00    +0.004 C 
ATOM     29  C   UNL     1      32.116  -7.264 -20.341  0.00  0.00    +0.000 C 
ATOM     30  C   UNL     1      31.181  -6.819 -22.645  0.00  0.00    +0.000 C 
ATOM     31  C   UNL     1      32.019  -6.269 -21.495  0.00  0.00    +0.000 C 
ENDBRANCH  20  26
ENDBRANCH  19  23
ENDBRANCH  18  19
ENDBRANCH   1  18
TORSDOF 7
ENDMDL
MODEL 4
REMARK VINA RESULT:     -11.5      2.695     10.431
REMARK  Name = 446129
REMARK  7 active torsions:
REMARK  status: ('A' for Active; 'I' for Inactive)
REMARK    1  A    between atoms: C_1  and  O_2
REMARK    2  A    between atoms: C_1  and  C_4
REMARK    3  A    between atoms: C_1  and  C_18
REMARK    4  A    between atoms: C_4  and  N_5
REMARK    5  A    between atoms: C_18  and  O_19
REMARK    6  A    between atoms: O_19  and  C_23
REMARK    7  A    between atoms: C_20  and  C_26
REMARK                            x       y       z     vdW  Elec       q    Type
REMARK                         _______ _______ _______ _____ _____    ______ ____
ROOT
ATOM      1  C   UNL     1      33.635 -15.055 -25.540  0.00  0.00    +0.133 C 
ENDROOT
BRANCH   1   2
ATOM      2  O   UNL     1      32.376 -14.761 -26.152  0.00  0.00    -0.383 OA
ATOM      3  H   UNL     1      32.003 -15.573 -26.529  0.00  0.00    +0.210 HD
ENDBRANCH   1   2
BRANCH   1   4
ATOM      4  C   UNL     1      33.610 -14.508 -24.111  0.00  0.00    -0.043 C 
BRANCH   4   5
ATOM      5  N   UNL     1      33.076 -13.147 -24.051  0.00  0.00    +0.391 N 
ATOM      6  N   UNL     1      33.061 -10.381 -23.341  0.00  0.00    -0.298 N 
ATOM      7  C   UNL     1      33.988 -12.206 -24.711  0.00  0.00    -0.055 C 
ATOM      8  C   UNL     1      32.860 -12.740 -22.657  0.00  0.00    -0.055 C 
ATOM      9  C   UNL     1      33.414 -10.787 -24.705  0.00  0.00    +0.069 C 
ATOM     10  C   UNL     1      32.248 -11.340 -22.582  0.00  0.00    +0.069 C 
ATOM     11  H   UNL     1      32.180 -13.136 -24.540  0.00  0.00    -0.079 HD
ATOM     12  N   UNL     1      31.744  -8.535 -22.562  0.00  0.00    -0.229 NA
ATOM     13  C   UNL     1      32.934  -9.022 -23.032  0.00  0.00    +0.132 C 
ATOM     14  C   UNL     1      34.045  -8.188 -23.217  0.00  0.00    +0.034 C 
ATOM     15  C   UNL     1      33.934  -6.835 -22.915  0.00  0.00    +0.004 C 
ATOM     16  C   UNL     1      31.674  -7.215 -22.280  0.00  0.00    +0.100 C 
ATOM     17  C   UNL     1      32.730  -6.332 -22.437  0.00  0.00    +0.021 C 
ENDBRANCH   4   5
ENDBRANCH   1   4
BRANCH   1  18
ATOM     18  C   UNL     1      33.872 -16.563 -25.606  0.00  0.00    +0.232 C 
BRANCH  18  19
ATOM     19  O   UNL     1      35.084 -16.868 -24.925  0.00  0.00    -0.473 OA
BRANCH  19  23
ATOM     20  C   UNL     1      34.783 -19.338 -21.603  0.00  0.00    -0.022 C 
ATOM     21  C   UNL     1      35.340 -18.066 -21.477  0.00  0.00    -0.001 C 
ATOM     22  C   UNL     1      34.328 -19.781 -22.845  0.00  0.00    -0.001 C 
ATOM     23  C   UNL     1      34.986 -17.683 -23.829  0.00  0.00    +0.139 C 
ATOM     24  C   UNL     1      35.441 -17.235 -22.593  0.00  0.00    +0.037 C 
ATOM     25  C   UNL     1      34.431 -18.951 -23.961  0.00  0.00    +0.037 C 
BRANCH  20  26
ATOM     26  C   UNL     1      34.674 -20.241 -20.388  0.00  0.00    +0.022 C 
ATOM     27  C   UNL     1      33.320 -20.971 -20.335  0.00  0.00    +0.004 C 
ATOM     28  C   UNL     1      35.841 -21.240 -20.311  0.00  0.00    +0.004 C 
ATOM     29  C   UNL     1      33.217 -21.870 -19.104  0.00  0.00    +0.000 C 
ATOM     30  C   UNL     1      35.728 -22.138 -19.080  0.00  0.00    +0.000 C 
ATOM     31  C   UNL     1      34.382 -22.854 -19.027  0.00  0.00    +0.000 C 
ENDBRANCH  20  26
ENDBRANCH  19  23
ENDBRANCH  18  19
ENDBRANCH   1  18
TORSDOF 7
ENDMDL
MODEL 5
REMARK VINA RESULT:     -11.1      2.711     10.467
REMARK  Name = 446129
REMARK  7 active torsions:
REMARK  status: ('A' for Active; 'I' for Inactive)
REMARK    1  A    between atoms: C_1  and  O_2
REMARK    2  A    between atoms: C_1  and  C_4
REMARK    3  A    between atoms: C_1  and  C_18
REMARK    4  A    between atoms: C_4  and  N_5
REMARK    5  A    between atoms: C_18  and  O_19
REMARK    6  A    between atoms: O_19  and  C_23
REMARK    7  A    between atoms: C_20  and  C_26
REMARK                            x       y       z     vdW  Elec       q    Type
REMARK                         _______ _______ _______ _____ _____    ______ ____
ROOT
ATOM      1  C   UNL     1      33.492 -14.585 -25.300  0.00  0.00    +0.133 C 
ENDROOT
BRANCH   1   2
ATOM      2  O   UNL     1      32.323 -14.153 -26.002  0.00  0.00    -0.383 OA
ATOM      3  H   UNL     1      32.322 -14.534 -26.894  0.00  0.00    +0.210 HD
ENDBRANCH   1   2
BRANCH   1   4
ATOM      4  C   UNL     1      33.282 -14.310 -23.809  0.00  0.00    -0.043 C 
BRANCH   4   5
ATOM      5  N   UNL     1      33.531 -12.910 -23.467  0.00  0.00    +0.391 N 
ATOM      6  N   UNL     1      33.090 -10.089 -23.538  0.00  0.00    -0.298 N 
ATOM      7  C   UNL     1      32.360 -12.325 -22.804  0.00  0.00    -0.055 C 
ATOM      8  C   UNL     1      33.863 -12.138 -24.670  0.00  0.00    -0.055 C 
ATOM      9  C   UNL     1      32.630 -10.876 -22.390  0.00  0.00    +0.069 C 
ATOM     10  C   UNL     1      34.183 -10.683 -24.319  0.00  0.00    +0.069 C 
ATOM     11  H   UNL     1      34.325 -12.877 -22.826  0.00  0.00    -0.079 HD
ATOM     12  N   UNL     1      34.105  -7.920 -23.628  0.00  0.00    -0.229 NA
ATOM     13  C   UNL     1      32.983  -8.694 -23.512  0.00  0.00    +0.132 C 
ATOM     14  C   UNL     1      31.710  -8.124 -23.365  0.00  0.00    +0.034 C 
ATOM     15  C   UNL     1      31.588  -6.739 -23.336  0.00  0.00    +0.004 C 
ATOM     16  C   UNL     1      33.947  -6.577 -23.596  0.00  0.00    +0.100 C 
ATOM     17  C   UNL     1      32.722  -5.944 -23.454  0.00  0.00    +0.021 C 
ENDBRANCH   4   5
ENDBRANCH   1   4
BRANCH   1  18
ATOM     18  C   UNL     1      33.734 -16.061 -25.614  0.00  0.00    +0.232 C 
BRANCH  18  19
ATOM     19  O   UNL     1      34.983 -16.451 -25.054  0.00  0.00    -0.473 OA
BRANCH  19  23
ATOM     20  C   UNL     1      34.848 -19.040 -21.812  0.00  0.00    -0.022 C 
ATOM     21  C   UNL     1      34.443 -19.479 -23.073  0.00  0.00    -0.001 C 
ATOM     22  C   UNL     1      35.298 -17.731 -21.642  0.00  0.00    -0.001 C 
ATOM     23  C   UNL     1      34.938 -17.305 -23.985  0.00  0.00    +0.139 C 
ATOM     24  C   UNL     1      34.488 -18.610 -24.162  0.00  0.00    +0.037 C 
ATOM     25  C   UNL     1      35.343 -16.861 -22.731  0.00  0.00    +0.037 C 
BRANCH  20  26
ATOM     26  C   UNL     1      34.798 -19.987 -20.628  0.00  0.00    +0.022 C 
ATOM     27  C   UNL     1      33.479 -20.779 -20.581  0.00  0.00    +0.004 C 
ATOM     28  C   UNL     1      36.010 -20.933 -20.598  0.00  0.00    +0.004 C 
ATOM     29  C   UNL     1      33.435 -21.722 -19.380  0.00  0.00    +0.000 C 
ATOM     30  C   UNL     1      35.956 -21.875 -19.397  0.00  0.00    +0.000 C 
ATOM     31  C   UNL     1      34.644 -22.653 -19.350  0.00  0.00    +0.000 C 
ENDBRANCH  20  26
ENDBRANCH  19  23
ENDBRANCH  18  19
ENDBRANCH   1  18
TORSDOF 7
ENDMDL
MODEL 6
REMARK VINA RESULT:     -11.0      2.732     10.785
REMARK  Name = 446129
REMARK  7 active torsions:
REMARK  status: ('A' for Active; 'I' for Inactive)
REMARK    1  A    between atoms: C_1  and  O_2
REMARK    2  A    between atoms: C_1  and  C_4
REMARK    3  A    between atoms: C_1  and  C_18
REMARK    4  A    between atoms: C_4  and  N_5
REMARK    5  A    between atoms: C_18  and  O_19
REMARK    6  A    between atoms: O_19  and  C_23
REMARK    7  A    between atoms: C_20  and  C_26
REMARK                            x       y       z     vdW  Elec       q    Type
REMARK                         _______ _______ _______ _____ _____    ______ ____
ROOT
ATOM      1  C   UNL     1      34.755 -18.997 -23.667  0.00  0.00    +0.133 C 
ENDROOT
BRANCH   1   2
ATOM      2  O   UNL     1      33.680 -18.917 -24.606  0.00  0.00    -0.383 OA
ATOM      3  H   UNL     1      32.982 -19.540 -24.353  0.00  0.00    +0.210 HD
ENDBRANCH   1   2
BRANCH   1   4
ATOM      4  C   UNL     1      35.475 -17.646 -23.649  0.00  0.00    -0.043 C 
BRANCH   4   5
ATOM      5  N   UNL     1      34.548 -16.531 -23.454  0.00  0.00    +0.391 N 
ATOM      6  N   UNL     1      33.766 -13.790 -23.282  0.00  0.00    -0.298 N 
ATOM      7  C   UNL     1      34.477 -15.702 -24.662  0.00  0.00    -0.055 C 
ATOM      8  C   UNL     1      34.963 -15.712 -22.309  0.00  0.00    -0.055 C 
ATOM      9  C   UNL     1      33.468 -14.564 -24.491  0.00  0.00    +0.069 C 
ATOM     10  C   UNL     1      33.970 -14.575 -22.058  0.00  0.00    +0.069 C 
ATOM     11  H   UNL     1      33.623 -16.917 -23.264  0.00  0.00    -0.079 HD
ATOM     12  N   UNL     1      32.444 -12.169 -22.111  0.00  0.00    -0.229 NA
ATOM     13  C   UNL     1      33.272 -12.487 -23.152  0.00  0.00    +0.132 C 
ATOM     14  C   UNL     1      33.646 -11.532 -24.109  0.00  0.00    +0.034 C 
ATOM     15  C   UNL     1      33.162 -10.233 -23.994  0.00  0.00    +0.004 C 
ATOM     16  C   UNL     1      31.994 -10.896 -22.032  0.00  0.00    +0.100 C 
ATOM     17  C   UNL     1      32.321  -9.901 -22.939  0.00  0.00    +0.021 C 
ENDBRANCH   4   5
ENDBRANCH   1   4
BRANCH   1  18
ATOM     18  C   UNL     1      34.187 -19.397 -22.306  0.00  0.00    +0.232 C 
BRANCH  18  19
ATOM     19  O   UNL     1      35.201 -20.066 -21.562  0.00  0.00    -0.473 OA
BRANCH  19  23
ATOM     20  C   UNL     1      33.935 -22.484 -18.436  0.00  0.00    -0.022 C 
ATOM     21  C   UNL     1      33.000 -21.781 -19.196  0.00  0.00    -0.001 C 
ATOM     22  C   UNL     1      35.294 -22.373 -18.726  0.00  0.00    -0.001 C 
ATOM     23  C   UNL     1      34.783 -20.863 -20.531  0.00  0.00    +0.139 C 
ATOM     24  C   UNL     1      33.425 -20.969 -20.247  0.00  0.00    +0.037 C 
ATOM     25  C   UNL     1      35.720 -21.560 -19.776  0.00  0.00    +0.037 C 
BRANCH  20  26
ATOM     26  C   UNL     1      33.471 -23.367 -17.293  0.00  0.00    +0.022 C 
ATOM     27  C   UNL     1      34.435 -23.308 -16.094  0.00  0.00    +0.004 C 
ATOM     28  C   UNL     1      32.033 -23.035 -16.859  0.00  0.00    +0.004 C 
ATOM     29  C   UNL     1      33.964 -24.207 -14.953  0.00  0.00    +0.000 C 
ATOM     30  C   UNL     1      31.572 -23.936 -15.714  0.00  0.00    +0.000 C 
ATOM     31  C   UNL     1      32.534 -23.880 -14.532  0.00  0.00    +0.000 C 
ENDBRANCH  20  26
ENDBRANCH  19  23
ENDBRANCH  18  19
ENDBRANCH   1  18
TORSDOF 7
ENDMDL
MODEL 7
REMARK VINA RESULT:     -10.8      6.424     10.015
REMARK  Name = 446129
REMARK  7 active torsions:
REMARK  status: ('A' for Active; 'I' for Inactive)
REMARK    1  A    between atoms: C_1  and  O_2
REMARK    2  A    between atoms: C_1  and  C_4
REMARK    3  A    between atoms: C_1  and  C_18
REMARK    4  A    between atoms: C_4  and  N_5
REMARK    5  A    between atoms: C_18  and  O_19
REMARK    6  A    between atoms: O_19  and  C_23
REMARK    7  A    between atoms: C_20  and  C_26
REMARK                            x       y       z     vdW  Elec       q    Type
REMARK                         _______ _______ _______ _____ _____    ______ ____
ROOT
ATOM      1  C   UNL     1      37.354 -22.974 -15.888  0.00  0.00    +0.133 C 
ENDROOT
BRANCH   1   2
ATOM      2  O   UNL     1      37.568 -22.418 -14.588  0.00  0.00    -0.383 OA
ATOM      3  H   UNL     1      37.425 -23.102 -13.915  0.00  0.00    +0.210 HD
ENDBRANCH   1   2
BRANCH   1   4
ATOM      4  C   UNL     1      36.305 -24.082 -15.765  0.00  0.00    -0.043 C 
BRANCH   4   5
ATOM      5  N   UNL     1      34.941 -23.556 -15.801  0.00  0.00    +0.391 N 
ATOM      6  N   UNL     1      32.092 -23.702 -15.934  0.00  0.00    -0.298 N 
ATOM      7  C   UNL     1      34.168 -24.047 -14.655  0.00  0.00    -0.055 C 
ATOM      8  C   UNL     1      34.275 -23.937 -17.053  0.00  0.00    -0.055 C 
ATOM      9  C   UNL     1      32.756 -23.457 -14.650  0.00  0.00    +0.069 C 
ATOM     10  C   UNL     1      32.866 -23.343 -17.129  0.00  0.00    +0.069 C 
ATOM     11  H   UNL     1      34.992 -22.537 -15.753  0.00  0.00    -0.079 HD
ATOM     12  N   UNL     1      30.093 -22.751 -16.855  0.00  0.00    -0.229 NA
ATOM     13  C   UNL     1      30.695 -23.648 -16.016  0.00  0.00    +0.132 C 
ATOM     14  C   UNL     1      29.946 -24.528 -15.223  0.00  0.00    +0.034 C 
ATOM     15  C   UNL     1      28.557 -24.487 -15.292  0.00  0.00    +0.004 C 
ATOM     16  C   UNL     1      28.741 -22.740 -16.896  0.00  0.00    +0.100 C 
ATOM     17  C   UNL     1      27.936 -23.579 -16.142  0.00  0.00    +0.021 C 
ENDBRANCH   4   5
ENDBRANCH   1   4
BRANCH   1  18
ATOM     18  C   UNL     1      36.939 -21.852 -16.838  0.00  0.00    +0.232 C 
BRANCH  18  19
ATOM     19  O   UNL     1      36.832 -22.382 -18.156  0.00  0.00    -0.473 OA
BRANCH  19  23
ATOM     20  C   UNL     1      35.351 -19.833 -21.078  0.00  0.00    -0.022 C 
ATOM     21  C   UNL     1      36.689 -19.750 -20.694  0.00  0.00    -0.001 C 
ATOM     22  C   UNL     1      34.511 -20.772 -20.480  0.00  0.00    -0.001 C 
ATOM     23  C   UNL     1      36.344 -21.541 -19.119  0.00  0.00    +0.139 C 
ATOM     24  C   UNL     1      37.187 -20.607 -19.712  0.00  0.00    +0.037 C 
ATOM     25  C   UNL     1      35.008 -21.627 -19.497  0.00  0.00    +0.037 C 
BRANCH  20  26
ATOM     26  C   UNL     1      34.810 -18.900 -22.145  0.00  0.00    +0.022 C 
ATOM     27  C   UNL     1      35.578 -17.567 -22.186  0.00  0.00    +0.004 C 
ATOM     28  C   UNL     1      34.791 -19.567 -23.532  0.00  0.00    +0.004 C 
ATOM     29  C   UNL     1      35.019 -16.633 -23.258  0.00  0.00    +0.000 C 
ATOM     30  C   UNL     1      34.235 -18.624 -24.598  0.00  0.00    +0.000 C 
ATOM     31  C   UNL     1      34.993 -17.301 -24.630  0.00  0.00    +0.000 C 
ENDBRANCH  20  26
ENDBRANCH  19  23
ENDBRANCH  18  19
ENDBRANCH   1  18
TORSDOF 7
ENDMDL
MODEL 8
REMARK VINA RESULT:     -10.5      3.861      6.831
REMARK  Name = 446129
REMARK  7 active torsions:
REMARK  status: ('A' for Active; 'I' for Inactive)
REMARK    1  A    between atoms: C_1  and  O_2
REMARK    2  A    between atoms: C_1  and  C_4
REMARK    3  A    between atoms: C_1  and  C_18
REMARK    4  A    between atoms: C_4  and  N_5
REMARK    5  A    between atoms: C_18  and  O_19
REMARK    6  A    between atoms: O_19  and  C_23
REMARK    7  A    between atoms: C_20  and  C_26
REMARK                            x       y       z     vdW  Elec       q    Type
REMARK                         _______ _______ _______ _____ _____    ______ ____
ROOT
ATOM      1  C   UNL     1      31.899  -9.717 -20.125  0.00  0.00    +0.133 C 
ENDROOT
BRANCH   1   2
ATOM      2  O   UNL     1      30.833 -10.063 -19.237  0.00  0.00    -0.383 OA
ATOM      3  H   UNL     1      31.073  -9.813 -18.331  0.00  0.00    +0.210 HD
ENDBRANCH   1   2
BRANCH   1   4
ATOM      4  C   UNL     1      31.549 -10.243 -21.519  0.00  0.00    -0.043 C 
BRANCH   4   5
ATOM      5  N   UNL     1      32.462 -11.300 -21.954  0.00  0.00    +0.391 N 
ATOM      6  N   UNL     1      33.225 -13.684 -23.330  0.00  0.00    -0.298 N 
ATOM      7  C   UNL     1      32.582 -11.307 -23.417  0.00  0.00    -0.055 C 
ATOM      8  C   UNL     1      31.994 -12.609 -21.484  0.00  0.00    -0.055 C 
ATOM      9  C   UNL     1      33.578 -12.372 -23.882  0.00  0.00    +0.069 C 
ATOM     10  C   UNL     1      32.972 -13.718 -21.884  0.00  0.00    +0.069 C 
ATOM     11  H   UNL     1      33.379 -11.113 -21.549  0.00  0.00    -0.079 HD
ATOM     12  N   UNL     1      34.489 -15.718 -23.231  0.00  0.00    -0.229 NA
ATOM     13  C   UNL     1      33.708 -14.847 -23.940  0.00  0.00    +0.132 C 
ATOM     14  C   UNL     1      33.372 -15.087 -25.280  0.00  0.00    +0.034 C 
ATOM     15  C   UNL     1      33.845 -16.238 -25.901  0.00  0.00    +0.004 C 
ATOM     16  C   UNL     1      34.930 -16.826 -23.868  0.00  0.00    +0.100 C 
ATOM     17  C   UNL     1      34.639 -17.129 -25.188  0.00  0.00    +0.021 C 
ENDBRANCH   4   5
ENDBRANCH   1   4
BRANCH   1  18
ATOM     18  C   UNL     1      32.099  -8.203 -20.084  0.00  0.00    +0.232 C 
BRANCH  18  19
ATOM     19  O   UNL     1      33.383  -7.893 -20.616  0.00  0.00    -0.473 OA
BRANCH  19  23
ATOM     20  C   UNL     1      33.462  -5.951 -24.284  0.00  0.00    -0.022 C 
ATOM     21  C   UNL     1      34.459  -6.871 -23.960  0.00  0.00    -0.001 C 
ATOM     22  C   UNL     1      32.439  -5.684 -23.374  0.00  0.00    -0.001 C 
ATOM     23  C   UNL     1      33.410  -7.252 -21.825  0.00  0.00    +0.139 C 
ATOM     24  C   UNL     1      34.433  -7.524 -22.728  0.00  0.00    +0.037 C 
ATOM     25  C   UNL     1      32.413  -6.336 -22.141  0.00  0.00    +0.037 C 
BRANCH  20  26
ATOM     26  C   UNL     1      33.491  -5.241 -25.624  0.00  0.00    +0.022 C 
ATOM     27  C   UNL     1      32.789  -3.873 -25.564  0.00  0.00    +0.004 C 
ATOM     28  C   UNL     1      34.924  -5.100 -26.166  0.00  0.00    +0.004 C 
ATOM     29  C   UNL     1      32.816  -3.170 -26.920  0.00  0.00    +0.000 C 
ATOM     30  C   UNL     1      34.943  -4.393 -27.520  0.00  0.00    +0.000 C 
ATOM     31  C   UNL     1      34.239  -3.041 -27.458  0.00  0.00    +0.000 C 
ENDBRANCH  20  26
ENDBRANCH  19  23
ENDBRANCH  18  19
ENDBRANCH   1  18
TORSDOF 7
ENDMDL
MODEL 9
REMARK VINA RESULT:     -10.4      6.582     10.336
REMARK  Name = 446129
REMARK  7 active torsions:
REMARK  status: ('A' for Active; 'I' for Inactive)
REMARK    1  A    between atoms: C_1  and  O_2
REMARK    2  A    between atoms: C_1  and  C_4
REMARK    3  A    between atoms: C_1  and  C_18
REMARK    4  A    between atoms: C_4  and  N_5
REMARK    5  A    between atoms: C_18  and  O_19
REMARK    6  A    between atoms: O_19  and  C_23
REMARK    7  A    between atoms: C_20  and  C_26
REMARK                            x       y       z     vdW  Elec       q    Type
REMARK                         _______ _______ _______ _____ _____    ______ ____
ROOT
ATOM      1  C   UNL     1      32.314 -22.874 -16.573  0.00  0.00    +0.133 C 
ENDROOT
BRANCH   1   2
ATOM      2  O   UNL     1      30.920 -23.178 -16.485  0.00  0.00    -0.383 OA
ATOM      3  H   UNL     1      30.754 -24.053 -16.869  0.00  0.00    +0.210 HD
ENDBRANCH   1   2
BRANCH   1   4
ATOM      4  C   UNL     1      32.993 -23.369 -15.294  0.00  0.00    -0.043 C 
BRANCH   4   5
ATOM      5  N   UNL     1      34.344 -23.870 -15.546  0.00  0.00    +0.391 N 
ATOM      6  N   UNL     1      36.974 -24.742 -14.853  0.00  0.00    -0.298 N 
ATOM      7  C   UNL     1      34.547 -25.163 -14.882  0.00  0.00    -0.055 C 
ATOM      8  C   UNL     1      35.346 -22.905 -15.079  0.00  0.00    -0.055 C 
ATOM      9  C   UNL     1      35.938 -25.725 -15.185  0.00  0.00    +0.069 C 
ATOM     10  C   UNL     1      36.764 -23.391 -15.389  0.00  0.00    +0.069 C 
ATOM     11  H   UNL     1      34.453 -23.996 -16.553  0.00  0.00    -0.079 HD
ATOM     12  N   UNL     1      39.302 -24.686 -15.422  0.00  0.00    -0.229 NA
ATOM     13  C   UNL     1      38.290 -25.166 -14.636  0.00  0.00    +0.132 C 
ATOM     14  C   UNL     1      38.535 -26.084 -13.605  0.00  0.00    +0.034 C 
ATOM     15  C   UNL     1      39.837 -26.515 -13.378  0.00  0.00    +0.004 C 
ATOM     16  C   UNL     1      40.555 -25.128 -15.172  0.00  0.00    +0.100 C 
ATOM     17  C   UNL     1      40.872 -26.033 -14.171  0.00  0.00    +0.021 C 
ENDBRANCH   4   5
ENDBRANCH   1   4
BRANCH   1  18
ATOM     18  C   UNL     1      32.875 -23.515 -17.842  0.00  0.00    +0.232 C 
BRANCH  18  19
ATOM     19  O   UNL     1      34.237 -23.126 -17.990  0.00  0.00    -0.473 OA
BRANCH  19  23
ATOM     20  C   UNL     1      35.061 -20.291 -20.908  0.00  0.00    -0.022 C 
ATOM     21  C   UNL     1      33.741 -20.642 -20.630  0.00  0.00    -0.001 C 
ATOM     22  C   UNL     1      36.105 -20.894 -20.206  0.00  0.00    -0.001 C 
ATOM     23  C   UNL     1      34.509 -22.192 -18.953  0.00  0.00    +0.139 C 
ATOM     24  C   UNL     1      33.463 -21.594 -19.650  0.00  0.00    +0.037 C 
ATOM     25  C   UNL     1      35.828 -21.847 -19.226  0.00  0.00    +0.037 C 
BRANCH  20  26
ATOM     26  C   UNL     1      35.363 -19.256 -21.975  0.00  0.00    +0.022 C 
ATOM     27  C   UNL     1      34.445 -19.410 -23.201  0.00  0.00    +0.004 C 
ATOM     28  C   UNL     1      35.299 -17.824 -21.417  0.00  0.00    +0.004 C 
ATOM     29  C   UNL     1      34.762 -18.369 -24.272  0.00  0.00    +0.000 C 
ATOM     30  C   UNL     1      35.614 -16.789 -22.496  0.00  0.00    +0.000 C 
ATOM     31  C   UNL     1      34.707 -16.950 -23.713  0.00  0.00    +0.000 C 
ENDBRANCH  20  26
ENDBRANCH  19  23
ENDBRANCH  18  19
ENDBRANCH   1  18
TORSDOF 7
ENDMDL
