MODEL 1
REMARK VINA RESULT:     -12.9      0.000      0.000
REMARK  Name = 6105620
REMARK  4 active torsions:
REMARK  status: ('A' for Active; 'I' for Inactive)
REMARK    1  A    between atoms: N_2  and  C_7
REMARK    2  A    between atoms: N_3  and  C_21
REMARK    3  A    between atoms: C_9  and  C_29
REMARK    4  A    between atoms: C_30  and  C_31
REMARK                            x       y       z     vdW  Elec       q    Type
REMARK                         _______ _______ _______ _____ _____    ______ ____
ROOT
ATOM      1  N   UNL     1      33.806 -22.913 -17.539  0.00  0.00    -0.086 NA
ATOM      2  N   UNL     1      35.190 -22.664 -17.146  0.00  0.00    -0.132 N 
ATOM      3  N   UNL     1      33.672 -22.363 -18.846  0.00  0.00    -0.240 N 
ATOM      4  N   UNL     1      35.804 -21.916 -18.142  0.00  0.00    -0.146 NA
ATOM      5  C   UNL     1      34.891 -21.771 -19.089  0.00  0.00    +0.162 C 
ATOM      6  H   UNL     1      32.886 -22.399 -19.439  0.00  0.00    +0.170 HD
ENDROOT
BRANCH   2  11
ATOM      7  O   UNL     1      36.795 -27.340 -15.876  0.00  0.00    -0.220 OA
ATOM      8  O   UNL     1      38.825 -24.316 -12.166  0.00  0.00    -0.220 OA
ATOM      9  N   UNL     1      38.036 -27.108 -13.976  0.00  0.00    -0.062 NA
ATOM     10  N   UNL     1      38.522 -26.382 -13.086  0.00  0.00    -0.062 NA
ATOM     11  C   UNL     1      35.973 -23.236 -16.123  0.00  0.00    +0.089 C 
ATOM     12  C   UNL     1      36.215 -24.622 -16.090  0.00  0.00    +0.030 C 
ATOM     13  C   UNL     1      36.530 -22.434 -15.110  0.00  0.00    +0.019 C 
ATOM     14  C   UNL     1      36.993 -25.179 -15.072  0.00  0.00    +0.097 C 
ATOM     15  C   UNL     1      37.532 -24.376 -14.085  0.00  0.00    +0.096 C 
ATOM     16  C   UNL     1      37.306 -22.996 -14.096  0.00  0.00    +0.014 C 
ATOM     17  C   UNL     1      37.268 -26.618 -15.003  0.00  0.00    +0.174 C 
ATOM     18  C   UNL     1      38.339 -25.022 -13.045  0.00  0.00    +0.174 C 
ENDBRANCH   2  11
BRANCH   1  21
ATOM     19  S   UNL     1      33.108 -24.086 -15.237  0.00  0.00    -0.074 S 
ATOM     20  N   UNL     1      31.530 -23.397 -17.212  0.00  0.00    -0.310 N 
ATOM     21  C   UNL     1      32.810 -23.390 -16.826  0.00  0.00    +0.222 C 
ATOM     22  C   UNL     1      30.709 -23.949 -16.281  0.00  0.00    +0.052 C 
ATOM     23  C   UNL     1      31.361 -24.391 -15.125  0.00  0.00    +0.041 C 
ATOM     24  C   UNL     1      29.335 -24.088 -16.412  0.00  0.00    +0.015 C 
ATOM     25  C   UNL     1      30.662 -24.977 -14.083  0.00  0.00    +0.007 C 
ATOM     26  C   UNL     1      28.620 -24.677 -15.368  0.00  0.00    +0.001 C 
ATOM     27  C   UNL     1      29.279 -25.119 -14.211  0.00  0.00    +0.001 C 
ATOM     28  H   UNL     1      31.216 -23.041 -18.075  0.00  0.00    +0.149 HD
ENDBRANCH   1  21
BRANCH   5  29
ATOM     29  C   UNL     1      35.191 -21.012 -20.313  0.00  0.00    +0.037 C 
ATOM     30  C   UNL     1      34.457 -19.978 -20.689  0.00  0.00    +0.003 C 
BRANCH  30  31
ATOM     31  C   UNL     1      34.712 -19.194 -21.911  0.00  0.00    +0.000 C 
ATOM     32  C   UNL     1      35.434 -18.014 -21.821  0.00  0.00    +0.000 C 
ATOM     33  C   UNL     1      34.225 -19.651 -23.124  0.00  0.00    +0.000 C 
ATOM     34  C   UNL     1      35.676 -17.272 -22.978  0.00  0.00    +0.000 C 
ATOM     35  C   UNL     1      34.466 -18.909 -24.281  0.00  0.00    +0.000 C 
ATOM     36  C   UNL     1      35.192 -17.719 -24.207  0.00  0.00    +0.000 C 
ENDBRANCH  30  31
ENDBRANCH   5  29
TORSDOF 4
ENDMDL
MODEL 2
REMARK VINA RESULT:     -12.8      2.353      5.483
REMARK  Name = 6105620
REMARK  4 active torsions:
REMARK  status: ('A' for Active; 'I' for Inactive)
REMARK    1  A    between atoms: N_2  and  C_7
REMARK    2  A    between atoms: N_3  and  C_21
REMARK    3  A    between atoms: C_9  and  C_29
REMARK    4  A    between atoms: C_30  and  C_31
REMARK                            x       y       z     vdW  Elec       q    Type
REMARK                         _______ _______ _______ _____ _____    ______ ____
ROOT
ATOM      1  N   UNL     1      35.580 -22.762 -17.204  0.00  0.00    -0.086 NA
ATOM      2  N   UNL     1      34.177 -22.814 -17.603  0.00  0.00    -0.132 N 
ATOM      3  N   UNL     1      36.228 -21.950 -18.177  0.00  0.00    -0.240 N 
ATOM      4  N   UNL     1      34.036 -22.143 -18.811  0.00  0.00    -0.146 NA
ATOM      5  C   UNL     1      35.239 -21.670 -19.095  0.00  0.00    +0.162 C 
ATOM      6  H   UNL     1      37.168 -21.656 -18.192  0.00  0.00    +0.170 HD
ENDROOT
BRANCH   2  11
ATOM      7  O   UNL     1      33.175 -24.863 -13.037  0.00  0.00    -0.220 OA
ATOM      8  O   UNL     1      28.461 -24.207 -15.128  0.00  0.00    -0.220 OA
ATOM      9  N   UNL     1      30.907 -25.056 -12.894  0.00  0.00    -0.062 NA
ATOM     10  N   UNL     1      29.776 -24.899 -13.396  0.00  0.00    -0.062 NA
ATOM     11  C   UNL     1      33.028 -23.194 -16.880  0.00  0.00    +0.089 C 
ATOM     12  C   UNL     1      33.138 -23.750 -15.593  0.00  0.00    +0.030 C 
ATOM     13  C   UNL     1      31.744 -23.024 -17.430  0.00  0.00    +0.019 C 
ATOM     14  C   UNL     1      31.993 -24.123 -14.884  0.00  0.00    +0.097 C 
ATOM     15  C   UNL     1      30.740 -23.950 -15.439  0.00  0.00    +0.096 C 
ATOM     16  C   UNL     1      30.604 -23.398 -16.717  0.00  0.00    +0.014 C 
ATOM     17  C   UNL     1      32.067 -24.706 -13.540  0.00  0.00    +0.174 C 
ATOM     18  C   UNL     1      29.579 -24.360 -14.643  0.00  0.00    +0.174 C 
ENDBRANCH   2  11
BRANCH   1  21
ATOM     19  S   UNL     1      37.271 -22.586 -15.137  0.00  0.00    -0.074 S 
ATOM     20  N   UNL     1      36.097 -24.744 -16.051  0.00  0.00    -0.310 N 
ATOM     21  C   UNL     1      36.202 -23.427 -16.256  0.00  0.00    +0.222 C 
ATOM     22  C   UNL     1      36.849 -25.169 -15.003  0.00  0.00    +0.052 C 
ATOM     23  C   UNL     1      37.570 -24.156 -14.360  0.00  0.00    +0.041 C 
ATOM     24  C   UNL     1      36.932 -26.482 -14.562  0.00  0.00    +0.015 C 
ATOM     25  C   UNL     1      38.383 -24.429 -13.273  0.00  0.00    +0.007 C 
ATOM     26  C   UNL     1      37.749 -26.769 -13.467  0.00  0.00    +0.001 C 
ATOM     27  C   UNL     1      38.470 -25.750 -12.827  0.00  0.00    +0.001 C 
ATOM     28  H   UNL     1      35.536 -25.340 -16.599  0.00  0.00    +0.149 HD
ENDBRANCH   1  21
BRANCH   5  29
ATOM     29  C   UNL     1      35.473 -20.900 -20.326  0.00  0.00    +0.037 C 
ATOM     30  C   UNL     1      34.615 -19.989 -20.752  0.00  0.00    +0.003 C 
BRANCH  30  31
ATOM     31  C   UNL     1      34.801 -19.201 -21.983  0.00  0.00    +0.000 C 
ATOM     32  C   UNL     1      35.481 -17.995 -21.920  0.00  0.00    +0.000 C 
ATOM     33  C   UNL     1      34.292 -19.679 -23.179  0.00  0.00    +0.000 C 
ATOM     34  C   UNL     1      35.658 -17.248 -23.086  0.00  0.00    +0.000 C 
ATOM     35  C   UNL     1      34.468 -18.933 -24.344  0.00  0.00    +0.000 C 
ATOM     36  C   UNL     1      35.151 -17.718 -24.298  0.00  0.00    +0.000 C 
ENDBRANCH  30  31
ENDBRANCH   5  29
TORSDOF 4
ENDMDL
MODEL 3
REMARK VINA RESULT:     -12.4      2.469      6.012
REMARK  Name = 6105620
REMARK  4 active torsions:
REMARK  status: ('A' for Active; 'I' for Inactive)
REMARK    1  A    between atoms: N_2  and  C_7
REMARK    2  A    between atoms: N_3  and  C_21
REMARK    3  A    between atoms: C_9  and  C_29
REMARK    4  A    between atoms: C_30  and  C_31
REMARK                            x       y       z     vdW  Elec       q    Type
REMARK                         _______ _______ _______ _____ _____    ______ ____
ROOT
ATOM      1  N   UNL     1      35.803 -22.869 -16.828  0.00  0.00    -0.086 NA
ATOM      2  N   UNL     1      34.412 -23.069 -17.223  0.00  0.00    -0.132 N 
ATOM      3  N   UNL     1      36.381 -22.060 -17.848  0.00  0.00    -0.240 N 
ATOM      4  N   UNL     1      34.217 -22.484 -18.467  0.00  0.00    -0.146 NA
ATOM      5  C   UNL     1      35.375 -21.923 -18.779  0.00  0.00    +0.162 C 
ATOM      6  H   UNL     1      37.291 -21.685 -17.881  0.00  0.00    +0.170 HD
ENDROOT
BRANCH   2  11
ATOM      7  O   UNL     1      29.339 -22.580 -17.500  0.00  0.00    -0.220 OA
ATOM      8  O   UNL     1      30.042 -25.495 -13.254  0.00  0.00    -0.220 OA
ATOM      9  N   UNL     1      28.478 -23.723 -15.724  0.00  0.00    -0.062 NA
ATOM     10  N   UNL     1      28.646 -24.422 -14.705  0.00  0.00    -0.062 NA
ATOM     11  C   UNL     1      33.298 -23.506 -16.477  0.00  0.00    +0.089 C 
ATOM     12  C   UNL     1      31.991 -23.164 -16.869  0.00  0.00    +0.030 C 
ATOM     13  C   UNL     1      33.469 -24.295 -15.326  0.00  0.00    +0.019 C 
ATOM     14  C   UNL     1      30.893 -23.602 -16.123  0.00  0.00    +0.097 C 
ATOM     15  C   UNL     1      31.080 -24.376 -14.994  0.00  0.00    +0.096 C 
ATOM     16  C   UNL     1      32.369 -24.730 -14.585  0.00  0.00    +0.014 C 
ATOM     17  C   UNL     1      29.516 -23.266 -16.498  0.00  0.00    +0.174 C 
ATOM     18  C   UNL     1      29.886 -24.804 -14.257  0.00  0.00    +0.174 C 
ENDBRANCH   2  11
BRANCH   1  21
ATOM     19  S   UNL     1      36.610 -22.601 -14.291  0.00  0.00    -0.074 S 
ATOM     20  N   UNL     1      37.104 -24.599 -15.913  0.00  0.00    -0.310 N 
ATOM     21  C   UNL     1      36.478 -23.419 -15.844  0.00  0.00    +0.222 C 
ATOM     22  C   UNL     1      37.724 -24.928 -14.750  0.00  0.00    +0.052 C 
ATOM     23  C   UNL     1      37.582 -23.980 -13.731  0.00  0.00    +0.041 C 
ATOM     24  C   UNL     1      38.448 -26.091 -14.535  0.00  0.00    +0.015 C 
ATOM     25  C   UNL     1      38.155 -24.170 -12.485  0.00  0.00    +0.007 C 
ATOM     26  C   UNL     1      39.031 -26.294 -13.282  0.00  0.00    +0.001 C 
ATOM     27  C   UNL     1      38.886 -25.339 -12.264  0.00  0.00    +0.001 C 
ATOM     28  H   UNL     1      37.116 -25.166 -16.718  0.00  0.00    +0.149 HD
ENDBRANCH   1  21
BRANCH   5  29
ATOM     29  C   UNL     1      35.545 -21.208 -20.053  0.00  0.00    +0.037 C 
ATOM     30  C   UNL     1      34.767 -20.195 -20.394  0.00  0.00    +0.003 C 
BRANCH  30  31
ATOM     31  C   UNL     1      34.893 -19.455 -21.662  0.00  0.00    +0.000 C 
ATOM     32  C   UNL     1      34.104 -19.821 -22.742  0.00  0.00    +0.000 C 
ATOM     33  C   UNL     1      35.796 -18.409 -21.751  0.00  0.00    +0.000 C 
ATOM     34  C   UNL     1      34.223 -19.121 -23.943  0.00  0.00    +0.000 C 
ATOM     35  C   UNL     1      35.914 -17.709 -22.952  0.00  0.00    +0.000 C 
ATOM     36  C   UNL     1      35.128 -18.065 -24.047  0.00  0.00    +0.000 C 
ENDBRANCH  30  31
ENDBRANCH   5  29
TORSDOF 4
ENDMDL
MODEL 4
REMARK VINA RESULT:     -12.2      1.420      1.818
REMARK  Name = 6105620
REMARK  4 active torsions:
REMARK  status: ('A' for Active; 'I' for Inactive)
REMARK    1  A    between atoms: N_2  and  C_7
REMARK    2  A    between atoms: N_3  and  C_21
REMARK    3  A    between atoms: C_9  and  C_29
REMARK    4  A    between atoms: C_30  and  C_31
REMARK                            x       y       z     vdW  Elec       q    Type
REMARK                         _______ _______ _______ _____ _____    ______ ____
ROOT
ATOM      1  N   UNL     1      33.932 -22.884 -17.436  0.00  0.00    -0.086 NA
ATOM      2  N   UNL     1      35.315 -22.619 -17.052  0.00  0.00    -0.132 N 
ATOM      3  N   UNL     1      33.788 -22.353 -18.750  0.00  0.00    -0.240 N 
ATOM      4  N   UNL     1      35.919 -21.879 -18.060  0.00  0.00    -0.146 NA
ATOM      5  C   UNL     1      35.001 -21.754 -19.006  0.00  0.00    +0.162 C 
ATOM      6  H   UNL     1      33.001 -22.403 -19.340  0.00  0.00    +0.170 HD
ENDROOT
BRANCH   2  11
ATOM      7  O   UNL     1      34.554 -24.374 -12.320  0.00  0.00    -0.220 OA
ATOM      8  O   UNL     1      39.664 -25.004 -13.036  0.00  0.00    -0.220 OA
ATOM      9  N   UNL     1      36.589 -25.044 -11.540  0.00  0.00    -0.062 NA
ATOM     10  N   UNL     1      37.816 -25.194 -11.711  0.00  0.00    -0.062 NA
ATOM     11  C   UNL     1      36.106 -23.171 -16.024  0.00  0.00    +0.089 C 
ATOM     12  C   UNL     1      35.530 -23.556 -14.800  0.00  0.00    +0.030 C 
ATOM     13  C   UNL     1      37.490 -23.348 -16.199  0.00  0.00    +0.019 C 
ATOM     14  C   UNL     1      36.323 -24.103 -13.787  0.00  0.00    +0.097 C 
ATOM     15  C   UNL     1      37.681 -24.269 -13.977  0.00  0.00    +0.096 C 
ATOM     16  C   UNL     1      38.277 -23.894 -15.184  0.00  0.00    +0.014 C 
ATOM     17  C   UNL     1      35.760 -24.517 -12.498  0.00  0.00    +0.174 C 
ATOM     18  C   UNL     1      38.457 -24.849 -12.875  0.00  0.00    +0.174 C 
ENDBRANCH   2  11
BRANCH   1  21
ATOM     19  S   UNL     1      31.273 -23.022 -17.163  0.00  0.00    -0.074 S 
ATOM     20  N   UNL     1      33.088 -24.112 -15.618  0.00  0.00    -0.310 N 
ATOM     21  C   UNL     1      32.942 -23.360 -16.714  0.00  0.00    +0.222 C 
ATOM     22  C   UNL     1      31.899 -24.467 -15.068  0.00  0.00    +0.052 C 
ATOM     23  C   UNL     1      30.778 -23.980 -15.751  0.00  0.00    +0.041 C 
ATOM     24  C   UNL     1      31.748 -25.244 -13.929  0.00  0.00    +0.015 C 
ATOM     25  C   UNL     1      29.493 -24.256 -15.315  0.00  0.00    +0.007 C 
ATOM     26  C   UNL     1      30.456 -25.528 -13.480  0.00  0.00    +0.001 C 
ATOM     27  C   UNL     1      29.337 -25.038 -14.168  0.00  0.00    +0.001 C 
ATOM     28  H   UNL     1      33.962 -24.380 -15.250  0.00  0.00    +0.149 HD
ENDBRANCH   1  21
BRANCH   5  29
ATOM     29  C   UNL     1      35.290 -21.009 -20.240  0.00  0.00    +0.037 C 
ATOM     30  C   UNL     1      34.526 -20.009 -20.647  0.00  0.00    +0.003 C 
BRANCH  30  31
ATOM     31  C   UNL     1      34.769 -19.241 -21.880  0.00  0.00    +0.000 C 
ATOM     32  C   UNL     1      35.472 -18.048 -21.809  0.00  0.00    +0.000 C 
ATOM     33  C   UNL     1      34.290 -19.724 -23.087  0.00  0.00    +0.000 C 
ATOM     34  C   UNL     1      35.702 -17.320 -22.977  0.00  0.00    +0.000 C 
ATOM     35  C   UNL     1      34.521 -18.997 -24.254  0.00  0.00    +0.000 C 
ATOM     36  C   UNL     1      35.227 -17.795 -24.200  0.00  0.00    +0.000 C 
ENDBRANCH  30  31
ENDBRANCH   5  29
TORSDOF 4
ENDMDL
