MODEL 1
REMARK VINA RESULT:     -11.1      0.000      0.000
REMARK  Name = 5288250
REMARK  9 active torsions:
REMARK  status: ('A' for Active; 'I' for Inactive)
REMARK    1  A    between atoms: C_1  and  N_3
REMARK    2  A    between atoms: C_1  and  C_20
REMARK    3  A    between atoms: C_1  and  C_23
REMARK    4  A    between atoms: C_4  and  C_6
REMARK    5  A    between atoms: C_6  and  C_10
REMARK    6  A    between atoms: C_20  and  O_21
REMARK    7  A    between atoms: C_23  and  C_24
REMARK    8  A    between atoms: C_29  and  C_30
REMARK    9  A    between atoms: C_31  and  C_32
REMARK                            x       y       z     vdW  Elec       q    Type
REMARK                         _______ _______ _______ _____ _____    ______ ____
ROOT
ATOM      1  C   UNL     1      35.469 -24.826 -15.821  0.00  0.00    +0.176 C 
ENDROOT
BRANCH   1   3
ATOM      2  O   UNL     1      35.239 -23.537 -13.239  0.00  0.00    -0.275 OA
ATOM      3  N   UNL     1      34.279 -24.694 -15.012  0.00  0.00    -0.297 N 
ATOM      4  C   UNL     1      34.267 -24.055 -13.780  0.00  0.00    +0.223 C 
ATOM      5  H   UNL     1      33.437 -25.075 -15.351  0.00  0.00    +0.150 HD
BRANCH   4   6
ATOM      6  C   UNL     1      32.881 -24.070 -13.170  0.00  0.00    +0.087 C 
BRANCH   6  10
ATOM      7  N   UNL     1      29.945 -23.548 -15.533  0.00  0.00    -0.282 N 
ATOM      8  N   UNL     1      30.987 -22.603 -17.328  0.00  0.00    -0.331 N 
ATOM      9  N   UNL     1      28.643 -22.744 -17.300  0.00  0.00    -0.273 NA
ATOM     10  C   UNL     1      31.802 -24.425 -14.190  0.00  0.00    +0.029 C 
ATOM     11  C   UNL     1      30.855 -25.498 -13.632  0.00  0.00    +0.004 C 
ATOM     12  C   UNL     1      31.014 -23.175 -14.608  0.00  0.00    +0.094 C 
ATOM     13  C   UNL     1      29.735 -25.806 -14.623  0.00  0.00    +0.022 C 
ATOM     14  C   UNL     1      28.993 -24.538 -15.033  0.00  0.00    +0.093 C 
ATOM     15  C   UNL     1      29.801 -22.957 -16.741  0.00  0.00    +0.174 C 
ATOM     16  H   UNL     1      31.838 -22.785 -16.869  0.00  0.00    +0.145 HD
ATOM     17  H   UNL     1      30.988 -22.166 -18.211  0.00  0.00    +0.145 HD
ATOM     18  H   UNL     1      27.817 -23.016 -16.838  0.00  0.00    +0.189 HD
ENDBRANCH   6  10
ENDBRANCH   4   6
ENDBRANCH   1   3
BRANCH   1  20
ATOM     19  O   UNL     1      36.231 -27.119 -15.774  0.00  0.00    -0.248 OA
ATOM     20  C   UNL     1      36.361 -25.971 -15.360  0.00  0.00    +0.335 C 
BRANCH  20  21
ATOM     21  O   UNL     1      37.282 -25.567 -14.441  0.00  0.00    -0.443 OA
ATOM     22  C   UNL     1      37.400 -26.391 -13.277  0.00  0.00    +0.256 C 
ENDBRANCH  20  21
ENDBRANCH   1  20
BRANCH   1  23
ATOM     23  C   UNL     1      36.236 -23.498 -15.907  0.00  0.00    +0.057 C 
BRANCH  23  24
ATOM     24  C   UNL     1      35.990 -22.707 -17.172  0.00  0.00    -0.020 C 
ATOM     25  C   UNL     1      37.016 -21.945 -17.730  0.00  0.00    -0.004 C 
ATOM     26  C   UNL     1      34.736 -22.742 -17.783  0.00  0.00    -0.004 C 
ATOM     27  C   UNL     1      36.788 -21.215 -18.897  0.00  0.00    +0.008 C 
ATOM     28  C   UNL     1      34.508 -22.013 -18.950  0.00  0.00    +0.008 C 
ATOM     29  C   UNL     1      35.534 -21.250 -19.507  0.00  0.00    +0.042 C 
BRANCH  29  30
ATOM     30  C   UNL     1      35.301 -20.502 -20.703  0.00  0.00    -0.060 C 
ATOM     31  C   UNL     1      35.104 -19.873 -21.706  0.00  0.00    -0.060 C 
BRANCH  31  32
ATOM     32  C   UNL     1      34.870 -19.123 -22.903  0.00  0.00    +0.042 C 
ATOM     33  C   UNL     1      34.272 -19.736 -24.003  0.00  0.00    +0.008 C 
ATOM     34  C   UNL     1      35.242 -17.780 -22.967  0.00  0.00    +0.008 C 
ATOM     35  C   UNL     1      34.044 -19.006 -25.170  0.00  0.00    +0.001 C 
ATOM     36  C   UNL     1      35.014 -17.050 -24.134  0.00  0.00    +0.001 C 
ATOM     37  C   UNL     1      34.416 -17.663 -25.235  0.00  0.00    +0.000 C 
ENDBRANCH  31  32
ENDBRANCH  29  30
ENDBRANCH  23  24
ENDBRANCH   1  23
TORSDOF 9
ENDMDL
MODEL 2
REMARK VINA RESULT:     -10.9      2.376      5.346
REMARK  Name = 5288250
REMARK  9 active torsions:
REMARK  status: ('A' for Active; 'I' for Inactive)
REMARK    1  A    between atoms: C_1  and  N_3
REMARK    2  A    between atoms: C_1  and  C_20
REMARK    3  A    between atoms: C_1  and  C_23
REMARK    4  A    between atoms: C_4  and  C_6
REMARK    5  A    between atoms: C_6  and  C_10
REMARK    6  A    between atoms: C_20  and  O_21
REMARK    7  A    between atoms: C_23  and  C_24
REMARK    8  A    between atoms: C_29  and  C_30
REMARK    9  A    between atoms: C_31  and  C_32
REMARK                            x       y       z     vdW  Elec       q    Type
REMARK                         _______ _______ _______ _____ _____    ______ ____
ROOT
ATOM      1  C   UNL     1      33.254 -23.131 -15.275  0.00  0.00    +0.176 C 
ENDROOT
BRANCH   1   3
ATOM      2  O   UNL     1      32.655 -25.207 -13.349  0.00  0.00    -0.275 OA
ATOM      3  N   UNL     1      34.029 -23.494 -14.111  0.00  0.00    -0.297 N 
ATOM      4  C   UNL     1      33.660 -24.510 -13.241  0.00  0.00    +0.223 C 
ATOM      5  H   UNL     1      34.860 -22.998 -13.927  0.00  0.00    +0.150 HD
BRANCH   4   6
ATOM      6  C   UNL     1      34.666 -24.663 -12.119  0.00  0.00    +0.087 C 
BRANCH   6  10
ATOM      7  N   UNL     1      38.158 -25.669 -13.246  0.00  0.00    -0.282 N 
ATOM      8  N   UNL     1      37.764 -26.284 -15.407  0.00  0.00    -0.331 N 
ATOM      9  N   UNL     1      39.891 -26.639 -14.478  0.00  0.00    -0.273 NA
ATOM     10  C   UNL     1      36.104 -24.492 -12.603  0.00  0.00    +0.029 C 
ATOM     11  C   UNL     1      36.923 -23.669 -11.596  0.00  0.00    +0.004 C 
ATOM     12  C   UNL     1      36.764 -25.856 -12.848  0.00  0.00    +0.094 C 
ATOM     13  C   UNL     1      38.379 -23.553 -12.044  0.00  0.00    +0.022 C 
ATOM     14  C   UNL     1      38.991 -24.927 -12.302  0.00  0.00    +0.093 C 
ATOM     15  C   UNL     1      38.663 -26.216 -14.375  0.00  0.00    +0.174 C 
ATOM     16  H   UNL     1      36.846 -25.952 -15.283  0.00  0.00    +0.145 HD
ATOM     17  H   UNL     1      38.036 -26.666 -16.272  0.00  0.00    +0.145 HD
ATOM     18  H   UNL     1      40.501 -26.569 -13.708  0.00  0.00    +0.189 HD
ENDBRANCH   6  10
ENDBRANCH   4   6
ENDBRANCH   1   3
BRANCH   1  20
ATOM     19  O   UNL     1      31.085 -22.773 -14.272  0.00  0.00    -0.248 OA
ATOM     20  C   UNL     1      31.766 -23.390 -15.085  0.00  0.00    +0.335 C 
BRANCH  20  21
ATOM     21  O   UNL     1      31.308 -24.381 -15.901  0.00  0.00    -0.443 OA
ATOM     22  C   UNL     1      29.974 -24.829 -15.645  0.00  0.00    +0.256 C 
ENDBRANCH  20  21
ENDBRANCH   1  20
BRANCH   1  23
ATOM     23  C   UNL     1      33.800 -23.807 -16.542  0.00  0.00    +0.057 C 
BRANCH  23  24
ATOM     24  C   UNL     1      33.935 -22.891 -17.738  0.00  0.00    -0.020 C 
ATOM     25  C   UNL     1      32.795 -22.411 -18.382  0.00  0.00    -0.004 C 
ATOM     26  C   UNL     1      35.201 -22.525 -18.195  0.00  0.00    -0.004 C 
ATOM     27  C   UNL     1      32.920 -21.567 -19.486  0.00  0.00    +0.008 C 
ATOM     28  C   UNL     1      35.327 -21.680 -19.298  0.00  0.00    +0.008 C 
ATOM     29  C   UNL     1      34.186 -21.201 -19.943  0.00  0.00    +0.042 C 
BRANCH  29  30
ATOM     30  C   UNL     1      34.315 -20.336 -21.074  0.00  0.00    -0.060 C 
ATOM     31  C   UNL     1      34.421 -19.610 -22.024  0.00  0.00    -0.060 C 
BRANCH  31  32
ATOM     32  C   UNL     1      34.548 -18.744 -23.156  0.00  0.00    +0.042 C 
ATOM     33  C   UNL     1      34.038 -19.134 -24.393  0.00  0.00    +0.008 C 
ATOM     34  C   UNL     1      35.184 -17.509 -23.021  0.00  0.00    +0.008 C 
ATOM     35  C   UNL     1      34.161 -18.290 -25.497  0.00  0.00    +0.001 C 
ATOM     36  C   UNL     1      35.307 -16.665 -24.125  0.00  0.00    +0.001 C 
ATOM     37  C   UNL     1      34.796 -17.056 -25.363  0.00  0.00    +0.000 C 
ENDBRANCH  31  32
ENDBRANCH  29  30
ENDBRANCH  23  24
ENDBRANCH   1  23
TORSDOF 9
ENDMDL
MODEL 3
REMARK VINA RESULT:     -10.7      3.221      5.540
REMARK  Name = 5288250
REMARK  9 active torsions:
REMARK  status: ('A' for Active; 'I' for Inactive)
REMARK    1  A    between atoms: C_1  and  N_3
REMARK    2  A    between atoms: C_1  and  C_20
REMARK    3  A    between atoms: C_1  and  C_23
REMARK    4  A    between atoms: C_4  and  C_6
REMARK    5  A    between atoms: C_6  and  C_10
REMARK    6  A    between atoms: C_20  and  O_21
REMARK    7  A    between atoms: C_23  and  C_24
REMARK    8  A    between atoms: C_29  and  C_30
REMARK    9  A    between atoms: C_31  and  C_32
REMARK                            x       y       z     vdW  Elec       q    Type
REMARK                         _______ _______ _______ _____ _____    ______ ____
ROOT
ATOM      1  C   UNL     1      35.270 -22.146 -18.590  0.00  0.00    +0.176 C 
ENDROOT
BRANCH   1   3
ATOM      2  O   UNL     1      37.282 -20.957 -16.883  0.00  0.00    -0.275 OA
ATOM      3  N   UNL     1      35.949 -22.767 -17.476  0.00  0.00    -0.297 N 
ATOM      4  C   UNL     1      36.905 -22.113 -16.712  0.00  0.00    +0.223 C 
ATOM      5  H   UNL     1      35.722 -23.697 -17.248  0.00  0.00    +0.150 HD
BRANCH   4   6
ATOM      6  C   UNL     1      37.437 -23.011 -15.615  0.00  0.00    +0.087 C 
BRANCH   6  10
ATOM      7  N   UNL     1      36.002 -24.320 -12.343  0.00  0.00    -0.282 N 
ATOM      8  N   UNL     1      37.221 -23.135 -10.822  0.00  0.00    -0.331 N 
ATOM      9  N   UNL     1      35.776 -24.828 -10.073  0.00  0.00    -0.273 NA
ATOM     10  C   UNL     1      36.450 -23.164 -14.460  0.00  0.00    +0.029 C 
ATOM     11  C   UNL     1      35.079 -23.630 -14.973  0.00  0.00    +0.004 C 
ATOM     12  C   UNL     1      36.991 -24.138 -13.405  0.00  0.00    +0.094 C 
ATOM     13  C   UNL     1      34.109 -23.849 -13.814  0.00  0.00    +0.022 C 
ATOM     14  C   UNL     1      34.692 -24.801 -12.775  0.00  0.00    +0.093 C 
ATOM     15  C   UNL     1      36.305 -24.131 -11.038  0.00  0.00    +0.174 C 
ATOM     16  H   UNL     1      37.594 -22.635 -11.583  0.00  0.00    +0.145 HD
ATOM     17  H   UNL     1      37.507 -22.920  -9.904  0.00  0.00    +0.145 HD
ATOM     18  H   UNL     1      35.121 -25.534 -10.278  0.00  0.00    +0.189 HD
ENDBRANCH   6  10
ENDBRANCH   4   6
ENDBRANCH   1   3
BRANCH   1  20
ATOM     19  O   UNL     1      34.292 -23.987 -19.812  0.00  0.00    -0.248 OA
ATOM     20  C   UNL     1      34.118 -22.994 -19.112  0.00  0.00    +0.335 C 
BRANCH  20  21
ATOM     21  O   UNL     1      32.905 -22.507 -18.726  0.00  0.00    -0.443 OA
ATOM     22  C   UNL     1      32.407 -23.000 -17.479  0.00  0.00    +0.256 C 
ENDBRANCH  20  21
ENDBRANCH   1  20
BRANCH   1  23
ATOM     23  C   UNL     1      36.257 -21.767 -19.705  0.00  0.00    +0.057 C 
BRANCH  23  24
ATOM     24  C   UNL     1      35.870 -20.539 -20.500  0.00  0.00    -0.020 C 
ATOM     25  C   UNL     1      36.829 -19.574 -20.805  0.00  0.00    -0.004 C 
ATOM     26  C   UNL     1      34.552 -20.373 -20.928  0.00  0.00    -0.004 C 
ATOM     27  C   UNL     1      36.472 -18.443 -21.538  0.00  0.00    +0.008 C 
ATOM     28  C   UNL     1      34.195 -19.242 -21.662  0.00  0.00    +0.008 C 
ATOM     29  C   UNL     1      35.154 -18.277 -21.966  0.00  0.00    +0.042 C 
BRANCH  29  30
ATOM     30  C   UNL     1      34.788 -17.117 -22.717  0.00  0.00    -0.060 C 
ATOM     31  C   UNL     1      34.482 -16.143 -23.348  0.00  0.00    -0.060 C 
BRANCH  31  32
ATOM     32  C   UNL     1      34.115 -14.982 -24.101  0.00  0.00    +0.042 C 
ATOM     33  C   UNL     1      34.271 -13.713 -23.544  0.00  0.00    +0.008 C 
ATOM     34  C   UNL     1      33.601 -15.121 -25.390  0.00  0.00    +0.008 C 
ATOM     35  C   UNL     1      33.914 -12.581 -24.277  0.00  0.00    +0.001 C 
ATOM     36  C   UNL     1      33.244 -13.988 -26.123  0.00  0.00    +0.001 C 
ATOM     37  C   UNL     1      33.400 -12.719 -25.566  0.00  0.00    +0.000 C 
ENDBRANCH  31  32
ENDBRANCH  29  30
ENDBRANCH  23  24
ENDBRANCH   1  23
TORSDOF 9
ENDMDL
MODEL 4
REMARK VINA RESULT:     -10.5      3.275      5.657
REMARK  Name = 5288250
REMARK  9 active torsions:
REMARK  status: ('A' for Active; 'I' for Inactive)
REMARK    1  A    between atoms: C_1  and  N_3
REMARK    2  A    between atoms: C_1  and  C_20
REMARK    3  A    between atoms: C_1  and  C_23
REMARK    4  A    between atoms: C_4  and  C_6
REMARK    5  A    between atoms: C_6  and  C_10
REMARK    6  A    between atoms: C_20  and  O_21
REMARK    7  A    between atoms: C_23  and  C_24
REMARK    8  A    between atoms: C_29  and  C_30
REMARK    9  A    between atoms: C_31  and  C_32
REMARK                            x       y       z     vdW  Elec       q    Type
REMARK                         _______ _______ _______ _____ _____    ______ ____
ROOT
ATOM      1  C   UNL     1      35.952 -21.970 -18.457  0.00  0.00    +0.176 C 
ENDROOT
BRANCH   1   3
ATOM      2  O   UNL     1      36.513 -21.558 -15.648  0.00  0.00    -0.275 OA
ATOM      3  N   UNL     1      36.861 -22.726 -17.627  0.00  0.00    -0.297 N 
ATOM      4  C   UNL     1      37.065 -22.453 -16.282  0.00  0.00    +0.223 C 
ATOM      5  H   UNL     1      37.358 -23.472 -18.035  0.00  0.00    +0.150 HD
BRANCH   4   6
ATOM      6  C   UNL     1      38.067 -23.411 -15.675  0.00  0.00    +0.087 C 
BRANCH   6  10
ATOM      7  N   UNL     1      36.767 -24.982 -12.462  0.00  0.00    -0.282 N 
ATOM      8  N   UNL     1      34.815 -23.839 -12.172  0.00  0.00    -0.331 N 
ATOM      9  N   UNL     1      35.551 -25.305 -10.492  0.00  0.00    -0.273 NA
ATOM     10  C   UNL     1      37.405 -24.448 -14.770  0.00  0.00    +0.029 C 
ATOM     11  C   UNL     1      38.145 -25.791 -14.848  0.00  0.00    +0.004 C 
ATOM     12  C   UNL     1      37.344 -23.948 -13.320  0.00  0.00    +0.094 C 
ATOM     13  C   UNL     1      37.525 -26.811 -13.894  0.00  0.00    +0.022 C 
ATOM     14  C   UNL     1      37.459 -26.269 -12.470  0.00  0.00    +0.093 C 
ATOM     15  C   UNL     1      35.709 -24.738 -11.654  0.00  0.00    +0.174 C 
ATOM     16  H   UNL     1      34.976 -23.436 -13.055  0.00  0.00    +0.145 HD
ATOM     17  H   UNL     1      34.010 -23.596 -11.659  0.00  0.00    +0.145 HD
ATOM     18  H   UNL     1      36.223 -25.946 -10.163  0.00  0.00    +0.189 HD
ENDBRANCH   6  10
ENDBRANCH   4   6
ENDBRANCH   1   3
BRANCH   1  20
ATOM     19  O   UNL     1      33.574 -21.903 -18.885  0.00  0.00    -0.248 OA
ATOM     20  C   UNL     1      34.525 -22.496 -18.384  0.00  0.00    +0.335 C 
BRANCH  20  21
ATOM     21  O   UNL     1      34.443 -23.668 -17.694  0.00  0.00    -0.443 OA
ATOM     22  C   UNL     1      33.512 -23.685 -16.608  0.00  0.00    +0.256 C 
ENDBRANCH  20  21
ENDBRANCH   1  20
BRANCH   1  23
ATOM     23  C   UNL     1      36.459 -21.882 -19.905  0.00  0.00    +0.057 C 
BRANCH  23  24
ATOM     24  C   UNL     1      36.038 -20.633 -20.647  0.00  0.00    -0.020 C 
ATOM     25  C   UNL     1      36.899 -19.539 -20.715  0.00  0.00    -0.004 C 
ATOM     26  C   UNL     1      34.788 -20.577 -21.264  0.00  0.00    -0.004 C 
ATOM     27  C   UNL     1      36.511 -18.386 -21.398  0.00  0.00    +0.008 C 
ATOM     28  C   UNL     1      34.400 -19.425 -21.948  0.00  0.00    +0.008 C 
ATOM     29  C   UNL     1      35.261 -18.330 -22.015  0.00  0.00    +0.042 C 
BRANCH  29  30
ATOM     30  C   UNL     1      34.863 -17.150 -22.716  0.00  0.00    -0.060 C 
ATOM     31  C   UNL     1      34.529 -16.157 -23.302  0.00  0.00    -0.060 C 
BRANCH  31  32
ATOM     32  C   UNL     1      34.131 -14.974 -24.003  0.00  0.00    +0.042 C 
ATOM     33  C   UNL     1      34.268 -13.726 -23.397  0.00  0.00    +0.008 C 
ATOM     34  C   UNL     1      33.606 -15.070 -25.292  0.00  0.00    +0.008 C 
ATOM     35  C   UNL     1      33.880 -12.572 -24.079  0.00  0.00    +0.001 C 
ATOM     36  C   UNL     1      33.218 -13.917 -25.974  0.00  0.00    +0.001 C 
ATOM     37  C   UNL     1      33.355 -12.668 -25.367  0.00  0.00    +0.000 C 
ENDBRANCH  31  32
ENDBRANCH  29  30
ENDBRANCH  23  24
ENDBRANCH   1  23
TORSDOF 9
ENDMDL
MODEL 5
REMARK VINA RESULT:     -10.2      2.867      5.308
REMARK  Name = 5288250
REMARK  9 active torsions:
REMARK  status: ('A' for Active; 'I' for Inactive)
REMARK    1  A    between atoms: C_1  and  N_3
REMARK    2  A    between atoms: C_1  and  C_20
REMARK    3  A    between atoms: C_1  and  C_23
REMARK    4  A    between atoms: C_4  and  C_6
REMARK    5  A    between atoms: C_6  and  C_10
REMARK    6  A    between atoms: C_20  and  O_21
REMARK    7  A    between atoms: C_23  and  C_24
REMARK    8  A    between atoms: C_29  and  C_30
REMARK    9  A    between atoms: C_31  and  C_32
REMARK                            x       y       z     vdW  Elec       q    Type
REMARK                         _______ _______ _______ _____ _____    ______ ____
ROOT
ATOM      1  C   UNL     1      35.712 -22.118 -18.574  0.00  0.00    +0.176 C 
ENDROOT
BRANCH   1   3
ATOM      2  O   UNL     1      37.440 -20.746 -16.701  0.00  0.00    -0.275 OA
ATOM      3  N   UNL     1      36.549 -22.714 -17.559  0.00  0.00    -0.297 N 
ATOM      4  C   UNL     1      37.348 -21.970 -16.702  0.00  0.00    +0.223 C 
ATOM      5  H   UNL     1      36.552 -23.694 -17.470  0.00  0.00    +0.150 HD
BRANCH   4   6
ATOM      6  C   UNL     1      38.106 -22.865 -15.745  0.00  0.00    +0.087 C 
BRANCH   6  10
ATOM      7  N   UNL     1      35.223 -24.290 -13.712  0.00  0.00    -0.282 N 
ATOM      8  N   UNL     1      33.494 -24.065 -15.183  0.00  0.00    -0.331 N 
ATOM      9  N   UNL     1      33.054 -24.774 -12.988  0.00  0.00    -0.273 NA
ATOM     10  C   UNL     1      37.209 -23.922 -15.104  0.00  0.00    +0.029 C 
ATOM     11  C   UNL     1      38.014 -24.810 -14.144  0.00  0.00    +0.004 C 
ATOM     12  C   UNL     1      36.030 -23.265 -14.372  0.00  0.00    +0.094 C 
ATOM     13  C   UNL     1      37.106 -25.825 -13.451  0.00  0.00    +0.022 C 
ATOM     14  C   UNL     1      35.934 -25.137 -12.757  0.00  0.00    +0.093 C 
ATOM     15  C   UNL     1      33.889 -24.394 -13.913  0.00  0.00    +0.174 C 
ATOM     16  H   UNL     1      34.161 -23.783 -15.849  0.00  0.00    +0.145 HD
ATOM     17  H   UNL     1      32.541 -24.110 -15.428  0.00  0.00    +0.145 HD
ATOM     18  H   UNL     1      33.387 -25.001 -12.089  0.00  0.00    +0.189 HD
ENDBRANCH   6  10
ENDBRANCH   4   6
ENDBRANCH   1   3
BRANCH   1  20
ATOM     19  O   UNL     1      34.369 -23.678 -19.839  0.00  0.00    -0.248 OA
ATOM     20  C   UNL     1      34.467 -22.945 -18.859  0.00  0.00    +0.335 C 
BRANCH  20  21
ATOM     21  O   UNL     1      33.497 -22.756 -17.921  0.00  0.00    -0.443 OA
ATOM     22  C   UNL     1      32.293 -22.140 -18.389  0.00  0.00    +0.256 C 
ENDBRANCH  20  21
ENDBRANCH   1  20
BRANCH   1  23
ATOM     23  C   UNL     1      36.510 -21.820 -19.853  0.00  0.00    +0.057 C 
BRANCH  23  24
ATOM     24  C   UNL     1      36.078 -20.572 -20.591  0.00  0.00    -0.020 C 
ATOM     25  C   UNL     1      34.727 -20.347 -20.849  0.00  0.00    -0.004 C 
ATOM     26  C   UNL     1      37.033 -19.647 -21.013  0.00  0.00    -0.004 C 
ATOM     27  C   UNL     1      34.329 -19.197 -21.530  0.00  0.00    +0.008 C 
ATOM     28  C   UNL     1      36.635 -18.496 -21.694  0.00  0.00    +0.008 C 
ATOM     29  C   UNL     1      35.283 -18.271 -21.952  0.00  0.00    +0.042 C 
BRANCH  29  30
ATOM     30  C   UNL     1      34.875 -17.093 -22.651  0.00  0.00    -0.060 C 
ATOM     31  C   UNL     1      34.532 -16.104 -23.239  0.00  0.00    -0.060 C 
BRANCH  31  32
ATOM     32  C   UNL     1      34.122 -14.924 -23.938  0.00  0.00    +0.042 C 
ATOM     33  C   UNL     1      34.272 -13.673 -23.342  0.00  0.00    +0.008 C 
ATOM     34  C   UNL     1      33.571 -15.027 -25.216  0.00  0.00    +0.008 C 
ATOM     35  C   UNL     1      33.873 -12.523 -24.022  0.00  0.00    +0.001 C 
ATOM     36  C   UNL     1      33.172 -13.877 -25.896  0.00  0.00    +0.001 C 
ATOM     37  C   UNL     1      33.323 -12.625 -25.299  0.00  0.00    +0.000 C 
ENDBRANCH  31  32
ENDBRANCH  29  30
ENDBRANCH  23  24
ENDBRANCH   1  23
TORSDOF 9
ENDMDL
MODEL 6
REMARK VINA RESULT:     -10.1      6.123      9.795
REMARK  Name = 5288250
REMARK  9 active torsions:
REMARK  status: ('A' for Active; 'I' for Inactive)
REMARK    1  A    between atoms: C_1  and  N_3
REMARK    2  A    between atoms: C_1  and  C_20
REMARK    3  A    between atoms: C_1  and  C_23
REMARK    4  A    between atoms: C_4  and  C_6
REMARK    5  A    between atoms: C_6  and  C_10
REMARK    6  A    between atoms: C_20  and  O_21
REMARK    7  A    between atoms: C_23  and  C_24
REMARK    8  A    between atoms: C_29  and  C_30
REMARK    9  A    between atoms: C_31  and  C_32
REMARK                            x       y       z     vdW  Elec       q    Type
REMARK                         _______ _______ _______ _____ _____    ______ ____
ROOT
ATOM      1  C   UNL     1      34.231 -18.373 -24.000  0.00  0.00    +0.176 C 
ENDROOT
BRANCH   1   3
ATOM      2  O   UNL     1      34.976 -18.198 -21.209  0.00  0.00    -0.275 OA
ATOM      3  N   UNL     1      34.828 -19.408 -23.188  0.00  0.00    -0.297 N 
ATOM      4  C   UNL     1      35.151 -19.230 -21.850  0.00  0.00    +0.223 C 
ATOM      5  H   UNL     1      35.012 -20.281 -23.603  0.00  0.00    +0.150 HD
BRANCH   4   6
ATOM      6  C   UNL     1      35.756 -20.487 -21.261  0.00  0.00    +0.087 C 
BRANCH   6  10
ATOM      7  N   UNL     1      34.990 -22.611 -18.199  0.00  0.00    -0.282 N 
ATOM      8  N   UNL     1      36.603 -21.896 -16.752  0.00  0.00    -0.331 N 
ATOM      9  N   UNL     1      35.237 -23.709 -16.150  0.00  0.00    -0.273 NA
ATOM     10  C   UNL     1      35.042 -20.932 -19.987  0.00  0.00    +0.029 C 
ATOM     11  C   UNL     1      33.560 -21.224 -20.267  0.00  0.00    +0.004 C 
ATOM     12  C   UNL     1      35.729 -22.162 -19.378  0.00  0.00    +0.094 C 
ATOM     13  C   UNL     1      32.858 -21.735 -19.010  0.00  0.00    +0.022 C 
ATOM     14  C   UNL     1      33.584 -22.940 -18.420  0.00  0.00    +0.093 C 
ATOM     15  C   UNL     1      35.590 -22.785 -16.998  0.00  0.00    +0.174 C 
ATOM     16  H   UNL     1      36.834 -21.214 -17.423  0.00  0.00    +0.145 HD
ATOM     17  H   UNL     1      37.101 -21.941 -15.904  0.00  0.00    +0.145 HD
ATOM     18  H   UNL     1      34.502 -24.325 -16.372  0.00  0.00    +0.189 HD
ENDBRANCH   6  10
ENDBRANCH   4   6
ENDBRANCH   1   3
BRANCH   1  20
ATOM     19  O   UNL     1      34.116 -19.876 -25.888  0.00  0.00    -0.248 OA
ATOM     20  C   UNL     1      33.635 -18.919 -25.290  0.00  0.00    +0.335 C 
BRANCH  20  21
ATOM     21  O   UNL     1      32.540 -18.213 -25.690  0.00  0.00    -0.443 OA
ATOM     22  C   UNL     1      31.424 -18.994 -26.128  0.00  0.00    +0.256 C 
ENDBRANCH  20  21
ENDBRANCH   1  20
BRANCH   1  23
ATOM     23  C   UNL     1      35.221 -17.228 -24.263  0.00  0.00    +0.057 C 
BRANCH  23  24
ATOM     24  C   UNL     1      34.684 -15.847 -23.963  0.00  0.00    -0.020 C 
ATOM     25  C   UNL     1      33.930 -15.168 -24.920  0.00  0.00    -0.004 C 
ATOM     26  C   UNL     1      34.941 -15.252 -22.728  0.00  0.00    -0.004 C 
ATOM     27  C   UNL     1      33.435 -13.894 -24.643  0.00  0.00    +0.008 C 
ATOM     28  C   UNL     1      34.446 -13.978 -22.450  0.00  0.00    +0.008 C 
ATOM     29  C   UNL     1      33.693 -13.299 -23.408  0.00  0.00    +0.042 C 
BRANCH  29  30
ATOM     30  C   UNL     1      33.186 -11.993 -23.125  0.00  0.00    -0.060 C 
ATOM     31  C   UNL     1      32.759 -10.896 -22.889  0.00  0.00    -0.060 C 
BRANCH  31  32
ATOM     32  C   UNL     1      32.250  -9.588 -22.606  0.00  0.00    +0.042 C 
ATOM     33  C   UNL     1      32.351  -9.065 -21.317  0.00  0.00    +0.008 C 
ATOM     34  C   UNL     1      31.653  -8.838 -23.619  0.00  0.00    +0.008 C 
ATOM     35  C   UNL     1      31.856  -7.791 -21.040  0.00  0.00    +0.001 C 
ATOM     36  C   UNL     1      31.157  -7.564 -23.342  0.00  0.00    +0.001 C 
ATOM     37  C   UNL     1      31.259  -7.041 -22.053  0.00  0.00    +0.000 C 
ENDBRANCH  31  32
ENDBRANCH  29  30
ENDBRANCH  23  24
ENDBRANCH   1  23
TORSDOF 9
ENDMDL
MODEL 7
REMARK VINA RESULT:      -9.7      5.542     10.895
REMARK  Name = 5288250
REMARK  9 active torsions:
REMARK  status: ('A' for Active; 'I' for Inactive)
REMARK    1  A    between atoms: C_1  and  N_3
REMARK    2  A    between atoms: C_1  and  C_20
REMARK    3  A    between atoms: C_1  and  C_23
REMARK    4  A    between atoms: C_4  and  C_6
REMARK    5  A    between atoms: C_6  and  C_10
REMARK    6  A    between atoms: C_20  and  O_21
REMARK    7  A    between atoms: C_23  and  C_24
REMARK    8  A    between atoms: C_29  and  C_30
REMARK    9  A    between atoms: C_31  and  C_32
REMARK                            x       y       z     vdW  Elec       q    Type
REMARK                         _______ _______ _______ _____ _____    ______ ____
ROOT
ATOM      1  C   UNL     1      34.831 -19.489 -22.031  0.00  0.00    +0.176 C 
ENDROOT
BRANCH   1   3
ATOM      2  O   UNL     1      36.404 -17.104 -22.489  0.00  0.00    -0.275 OA
ATOM      3  N   UNL     1      34.598 -18.171 -21.488  0.00  0.00    -0.297 N 
ATOM      4  C   UNL     1      35.412 -17.082 -21.767  0.00  0.00    +0.223 C 
ATOM      5  H   UNL     1      33.825 -18.039 -20.893  0.00  0.00    +0.150 HD
BRANCH   4   6
ATOM      6  C   UNL     1      34.919 -15.836 -21.061  0.00  0.00    +0.087 C 
BRANCH   6  10
ATOM      7  N   UNL     1      33.545 -13.773 -23.949  0.00  0.00    -0.282 N 
ATOM      8  N   UNL     1      33.270 -15.379 -25.545  0.00  0.00    -0.331 N 
ATOM      9  N   UNL     1      32.933 -13.124 -26.109  0.00  0.00    -0.273 NA
ATOM     10  C   UNL     1      33.896 -15.065 -21.893  0.00  0.00    +0.029 C 
ATOM     11  C   UNL     1      33.312 -13.894 -21.089  0.00  0.00    +0.004 C 
ATOM     12  C   UNL     1      34.522 -14.563 -23.201  0.00  0.00    +0.094 C 
ATOM     13  C   UNL     1      32.338 -13.081 -21.941  0.00  0.00    +0.022 C 
ATOM     14  C   UNL     1      32.989 -12.622 -23.242  0.00  0.00    +0.093 C 
ATOM     15  C   UNL     1      33.237 -14.044 -25.238  0.00  0.00    +0.174 C 
ATOM     16  H   UNL     1      33.505 -16.038 -24.854  0.00  0.00    +0.145 HD
ATOM     17  H   UNL     1      33.059 -15.678 -26.460  0.00  0.00    +0.145 HD
ATOM     18  H   UNL     1      32.923 -12.177 -25.840  0.00  0.00    +0.189 HD
ENDBRANCH   6  10
ENDBRANCH   4   6
ENDBRANCH   1   3
BRANCH   1  20
ATOM     19  O   UNL     1      35.392 -20.233 -24.260  0.00  0.00    -0.248 OA
ATOM     20  C   UNL     1      34.687 -19.527 -23.546  0.00  0.00    +0.335 C 
BRANCH  20  21
ATOM     21  O   UNL     1      33.713 -18.685 -23.992  0.00  0.00    -0.443 OA
ATOM     22  C   UNL     1      33.414 -18.765 -25.389  0.00  0.00    +0.256 C 
ENDBRANCH  20  21
ENDBRANCH   1  20
BRANCH   1  23
ATOM     23  C   UNL     1      33.947 -20.541 -21.343  0.00  0.00    +0.057 C 
BRANCH  23  24
ATOM     24  C   UNL     1      34.560 -21.173 -20.113  0.00  0.00    -0.020 C 
ATOM     25  C   UNL     1      33.757 -21.881 -19.219  0.00  0.00    -0.004 C 
ATOM     26  C   UNL     1      35.928 -21.048 -19.873  0.00  0.00    -0.004 C 
ATOM     27  C   UNL     1      34.322 -22.463 -18.084  0.00  0.00    +0.008 C 
ATOM     28  C   UNL     1      36.494 -21.631 -18.739  0.00  0.00    +0.008 C 
ATOM     29  C   UNL     1      35.691 -22.339 -17.845  0.00  0.00    +0.042 C 
BRANCH  29  30
ATOM     30  C   UNL     1      36.269 -22.935 -16.682  0.00  0.00    -0.060 C 
ATOM     31  C   UNL     1      36.757 -23.437 -15.706  0.00  0.00    -0.060 C 
BRANCH  31  32
ATOM     32  C   UNL     1      37.337 -24.034 -14.542  0.00  0.00    +0.042 C 
ATOM     33  C   UNL     1      38.103 -25.192 -14.662  0.00  0.00    +0.008 C 
ATOM     34  C   UNL     1      37.136 -23.456 -13.288  0.00  0.00    +0.008 C 
ATOM     35  C   UNL     1      38.669 -25.775 -13.528  0.00  0.00    +0.001 C 
ATOM     36  C   UNL     1      37.702 -24.039 -12.154  0.00  0.00    +0.001 C 
ATOM     37  C   UNL     1      38.468 -25.198 -12.274  0.00  0.00    +0.000 C 
ENDBRANCH  31  32
ENDBRANCH  29  30
ENDBRANCH  23  24
ENDBRANCH   1  23
TORSDOF 9
ENDMDL
MODEL 8
REMARK VINA RESULT:      -9.3      6.058     10.950
REMARK  Name = 5288250
REMARK  9 active torsions:
REMARK  status: ('A' for Active; 'I' for Inactive)
REMARK    1  A    between atoms: C_1  and  N_3
REMARK    2  A    between atoms: C_1  and  C_20
REMARK    3  A    between atoms: C_1  and  C_23
REMARK    4  A    between atoms: C_4  and  C_6
REMARK    5  A    between atoms: C_6  and  C_10
REMARK    6  A    between atoms: C_20  and  O_21
REMARK    7  A    between atoms: C_23  and  C_24
REMARK    8  A    between atoms: C_29  and  C_30
REMARK    9  A    between atoms: C_31  and  C_32
REMARK                            x       y       z     vdW  Elec       q    Type
REMARK                         _______ _______ _______ _____ _____    ______ ____
ROOT
ATOM      1  C   UNL     1      35.715 -18.655 -22.856  0.00  0.00    +0.176 C 
ENDROOT
BRANCH   1   3
ATOM      2  O   UNL     1      35.660 -15.800 -23.329  0.00  0.00    -0.275 OA
ATOM      3  N   UNL     1      35.087 -17.644 -22.036  0.00  0.00    -0.297 N 
ATOM      4  C   UNL     1      35.114 -16.292 -22.346  0.00  0.00    +0.223 C 
ATOM      5  H   UNL     1      34.617 -17.930 -21.219  0.00  0.00    +0.150 HD
BRANCH   4   6
ATOM      6  C   UNL     1      34.371 -15.478 -21.308  0.00  0.00    +0.087 C 
BRANCH   6  10
ATOM      7  N   UNL     1      33.441 -12.303 -23.187  0.00  0.00    -0.282 N 
ATOM      8  N   UNL     1      33.767 -12.958 -25.348  0.00  0.00    -0.331 N 
ATOM      9  N   UNL     1      33.268 -10.710 -24.889  0.00  0.00    -0.273 NA
ATOM     10  C   UNL     1      33.475 -14.414 -21.938  0.00  0.00    +0.029 C 
ATOM     11  C   UNL     1      32.565 -13.771 -20.880  0.00  0.00    +0.004 C 
ATOM     12  C   UNL     1      34.315 -13.344 -22.649  0.00  0.00    +0.094 C 
ATOM     13  C   UNL     1      31.716 -12.660 -21.495  0.00  0.00    +0.022 C 
ATOM     14  C   UNL     1      32.584 -11.631 -22.213  0.00  0.00    +0.093 C 
ATOM     15  C   UNL     1      33.482 -11.931 -24.488  0.00  0.00    +0.174 C 
ATOM     16  H   UNL     1      33.921 -13.865 -24.998  0.00  0.00    +0.145 HD
ATOM     17  H   UNL     1      33.818 -12.789 -26.317  0.00  0.00    +0.145 HD
ATOM     18  H   UNL     1      33.066 -10.005 -24.232  0.00  0.00    +0.189 HD
ENDBRANCH   6  10
ENDBRANCH   4   6
ENDBRANCH   1   3
BRANCH   1  20
ATOM     19  O   UNL     1      34.943 -20.357 -24.387  0.00  0.00    -0.248 OA
ATOM     20  C   UNL     1      34.753 -19.261 -23.868  0.00  0.00    +0.335 C 
BRANCH  20  21
ATOM     21  O   UNL     1      33.695 -18.442 -24.128  0.00  0.00    -0.443 OA
ATOM     22  C   UNL     1      33.678 -17.843 -25.427  0.00  0.00    +0.256 C 
ENDBRANCH  20  21
ENDBRANCH   1  20
BRANCH   1  23
ATOM     23  C   UNL     1      36.397 -19.728 -21.996  0.00  0.00    +0.057 C 
BRANCH  23  24
ATOM     24  C   UNL     1      35.486 -20.415 -21.003  0.00  0.00    -0.020 C 
ATOM     25  C   UNL     1      34.108 -20.212 -21.064  0.00  0.00    -0.004 C 
ATOM     26  C   UNL     1      36.025 -21.254 -20.027  0.00  0.00    -0.004 C 
ATOM     27  C   UNL     1      33.268 -20.845 -20.148  0.00  0.00    +0.008 C 
ATOM     28  C   UNL     1      35.185 -21.888 -19.112  0.00  0.00    +0.008 C 
ATOM     29  C   UNL     1      33.806 -21.684 -19.172  0.00  0.00    +0.042 C 
BRANCH  29  30
ATOM     30  C   UNL     1      32.945 -22.332 -18.234  0.00  0.00    -0.060 C 
ATOM     31  C   UNL     1      32.223 -22.877 -17.444  0.00  0.00    -0.060 C 
BRANCH  31  32
ATOM     32  C   UNL     1      31.362 -23.526 -16.503  0.00  0.00    +0.042 C 
ATOM     33  C   UNL     1      29.978 -23.427 -16.642  0.00  0.00    +0.008 C 
ATOM     34  C   UNL     1      31.907 -24.257 -15.447  0.00  0.00    +0.008 C 
ATOM     35  C   UNL     1      29.137 -24.059 -15.726  0.00  0.00    +0.001 C 
ATOM     36  C   UNL     1      31.066 -24.889 -14.531  0.00  0.00    +0.001 C 
ATOM     37  C   UNL     1      29.682 -24.789 -14.670  0.00  0.00    +0.000 C 
ENDBRANCH  31  32
ENDBRANCH  29  30
ENDBRANCH  23  24
ENDBRANCH   1  23
TORSDOF 9
ENDMDL
MODEL 9
REMARK VINA RESULT:      -9.2      5.374     11.220
REMARK  Name = 5288250
REMARK  9 active torsions:
REMARK  status: ('A' for Active; 'I' for Inactive)
REMARK    1  A    between atoms: C_1  and  N_3
REMARK    2  A    between atoms: C_1  and  C_20
REMARK    3  A    between atoms: C_1  and  C_23
REMARK    4  A    between atoms: C_4  and  C_6
REMARK    5  A    between atoms: C_6  and  C_10
REMARK    6  A    between atoms: C_20  and  O_21
REMARK    7  A    between atoms: C_23  and  C_24
REMARK    8  A    between atoms: C_29  and  C_30
REMARK    9  A    between atoms: C_31  and  C_32
REMARK                            x       y       z     vdW  Elec       q    Type
REMARK                         _______ _______ _______ _____ _____    ______ ____
ROOT
ATOM      1  C   UNL     1      34.812 -18.336 -22.263  0.00  0.00    +0.176 C 
ENDROOT
BRANCH   1   3
ATOM      2  O   UNL     1      33.056 -18.743 -24.527  0.00  0.00    -0.275 OA
ATOM      3  N   UNL     1      34.953 -17.782 -23.590  0.00  0.00    -0.297 N 
ATOM      4  C   UNL     1      34.055 -18.035 -24.616  0.00  0.00    +0.223 C 
ATOM      5  H   UNL     1      35.723 -17.196 -23.774  0.00  0.00    +0.150 HD
BRANCH   4   6
ATOM      6  C   UNL     1      34.459 -17.318 -25.887  0.00  0.00    +0.087 C 
BRANCH   6  10
ATOM      7  N   UNL     1      33.329 -13.964 -24.489  0.00  0.00    -0.282 N 
ATOM      8  N   UNL     1      34.662 -13.783 -22.647  0.00  0.00    -0.331 N 
ATOM      9  N   UNL     1      32.973 -12.192 -23.007  0.00  0.00    -0.273 NA
ATOM     10  C   UNL     1      34.350 -15.800 -25.756  0.00  0.00    +0.029 C 
ATOM     11  C   UNL     1      33.798 -15.180 -27.048  0.00  0.00    +0.004 C 
ATOM     12  C   UNL     1      33.473 -15.418 -24.556  0.00  0.00    +0.094 C 
ATOM     13  C   UNL     1      33.625 -13.669 -26.896  0.00  0.00    +0.022 C 
ATOM     14  C   UNL     1      32.769 -13.329 -25.680  0.00  0.00    +0.093 C 
ATOM     15  C   UNL     1      33.620 -13.264 -23.369  0.00  0.00    +0.174 C 
ATOM     16  H   UNL     1      35.122 -14.595 -22.960  0.00  0.00    +0.145 HD
ATOM     17  H   UNL     1      34.951 -13.344 -21.814  0.00  0.00    +0.145 HD
ATOM     18  H   UNL     1      32.229 -11.857 -23.560  0.00  0.00    +0.189 HD
ENDBRANCH   6  10
ENDBRANCH   4   6
ENDBRANCH   1   3
BRANCH   1  20
ATOM     19  O   UNL     1      36.437 -18.144 -20.485  0.00  0.00    -0.248 OA
ATOM     20  C   UNL     1      35.638 -17.583 -21.229  0.00  0.00    +0.335 C 
BRANCH  20  21
ATOM     21  O   UNL     1      35.367 -16.248 -21.226  0.00  0.00    -0.443 OA
ATOM     22  C   UNL     1      34.416 -15.809 -20.251  0.00  0.00    +0.256 C 
ENDBRANCH  20  21
ENDBRANCH   1  20
BRANCH   1  23
ATOM     23  C   UNL     1      35.110 -19.843 -22.252  0.00  0.00    +0.057 C 
BRANCH  23  24
ATOM     24  C   UNL     1      34.519 -20.595 -21.080  0.00  0.00    -0.020 C 
ATOM     25  C   UNL     1      33.151 -20.521 -20.821  0.00  0.00    -0.004 C 
ATOM     26  C   UNL     1      35.344 -21.363 -20.258  0.00  0.00    -0.004 C 
ATOM     27  C   UNL     1      32.607 -21.214 -19.740  0.00  0.00    +0.008 C 
ATOM     28  C   UNL     1      34.800 -22.057 -19.177  0.00  0.00    +0.008 C 
ATOM     29  C   UNL     1      33.432 -21.983 -18.918  0.00  0.00    +0.042 C 
BRANCH  29  30
ATOM     30  C   UNL     1      32.874 -22.692 -17.810  0.00  0.00    -0.060 C 
ATOM     31  C   UNL     1      32.405 -23.287 -16.878  0.00  0.00    -0.060 C 
BRANCH  31  32
ATOM     32  C   UNL     1      31.846 -23.997 -15.769  0.00  0.00    +0.042 C 
ATOM     33  C   UNL     1      30.499 -24.354 -15.778  0.00  0.00    +0.008 C 
ATOM     34  C   UNL     1      32.650 -24.331 -14.678  0.00  0.00    +0.008 C 
ATOM     35  C   UNL     1      29.953 -25.046 -14.696  0.00  0.00    +0.001 C 
ATOM     36  C   UNL     1      32.104 -25.023 -13.597  0.00  0.00    +0.001 C 
ATOM     37  C   UNL     1      30.755 -25.380 -13.606  0.00  0.00    +0.000 C 
ENDBRANCH  31  32
ENDBRANCH  29  30
ENDBRANCH  23  24
ENDBRANCH   1  23
TORSDOF 9
ENDMDL
