MODEL 1
REMARK VINA RESULT:     -11.4      0.000      0.000
REMARK  Name = 6914613
REMARK  8 active torsions:
REMARK  status: ('A' for Active; 'I' for Inactive)
REMARK    1  A    between atoms: C_1  and  N_2
REMARK    2  A    between atoms: C_1  and  C_6
REMARK    3  A    between atoms: C_1  and  C_17
REMARK    4  A    between atoms: C_6  and  C_8
REMARK    5  A    between atoms: C_17  and  O_18
REMARK    6  A    between atoms: O_18  and  C_20
REMARK    7  A    between atoms: C_23  and  C_25
REMARK    8  A    between atoms: C_26  and  C_28
REMARK                            x       y       z     vdW  Elec       q    Type
REMARK                         _______ _______ _______ _____ _____    ______ ____
ROOT
ATOM      1  C   UNL     1      35.333 -19.517 -21.751  0.00  0.00    -0.017 C 
ENDROOT
BRANCH   1   2
ATOM      2  N   UNL     1      35.426 -18.305 -20.928  0.00  0.00    +0.384 N 
ATOM      3  H   UNL     1      36.362 -17.909 -21.011  0.00  0.00    -0.089 HD
ATOM      4  H   UNL     1      35.242 -18.541 -19.953  0.00  0.00    -0.089 HD
ATOM      5  H   UNL     1      34.739 -17.624 -21.249  0.00  0.00    -0.089 HD
ENDBRANCH   1   2
BRANCH   1   6
ATOM      6  C   UNL     1      34.431 -20.558 -21.036  0.00  0.00    +0.009 C 
BRANCH   6   8
ATOM      7  N   UNL     1      36.608 -21.991 -18.479  0.00  0.00    -0.312 N 
ATOM      8  C   UNL     1      35.070 -21.237 -19.891  0.00  0.00    -0.008 C 
ATOM      9  C   UNL     1      34.412 -21.985 -18.874  0.00  0.00    +0.011 C 
ATOM     10  C   UNL     1      35.399 -22.446 -18.000  0.00  0.00    +0.048 C 
ATOM     11  C   UNL     1      36.419 -21.259 -19.621  0.00  0.00    +0.058 C 
ATOM     12  C   UNL     1      33.068 -22.314 -18.611  0.00  0.00    +0.001 C 
ATOM     13  C   UNL     1      35.109 -23.222 -16.873  0.00  0.00    +0.015 C 
ATOM     14  C   UNL     1      32.762 -23.090 -17.487  0.00  0.00    +0.000 C 
ATOM     15  C   UNL     1      33.768 -23.536 -16.634  0.00  0.00    +0.001 C 
ATOM     16  H   UNL     1      37.482 -22.165 -18.060  0.00  0.00    +0.152 HD
ENDBRANCH   6   8
ENDBRANCH   1   6
BRANCH   1  17
ATOM     17  C   UNL     1      34.831 -19.124 -23.146  0.00  0.00    +0.184 C 
BRANCH  17  18
ATOM     18  O   UNL     1      35.507 -17.979 -23.648  0.00  0.00    -0.476 OA
BRANCH  18  20
ATOM     19  N   UNL     1      33.366 -16.474 -26.185  0.00  0.00    -0.239 NA
ATOM     20  C   UNL     1      34.742 -17.044 -24.297  0.00  0.00    +0.158 C 
ATOM     21  C   UNL     1      34.573 -15.781 -23.761  0.00  0.00    +0.040 C 
ATOM     22  C   UNL     1      34.132 -17.349 -25.493  0.00  0.00    +0.136 C 
ATOM     23  C   UNL     1      33.793 -14.853 -24.443  0.00  0.00    +0.022 C 
ATOM     24  C   UNL     1      33.217 -15.246 -25.640  0.00  0.00    +0.099 C 
BRANCH  23  25
ATOM     25  C   UNL     1      33.589 -13.516 -23.918  0.00  0.00    +0.002 C 
ATOM     26  C   UNL     1      34.039 -12.372 -24.489  0.00  0.00    +0.000 C 
BRANCH  26  28
ATOM     27  N   UNL     1      33.394  -8.451 -22.983  0.00  0.00    -0.242 NA
ATOM     28  C   UNL     1      33.816 -11.013 -23.966  0.00  0.00    +0.003 C 
ATOM     29  C   UNL     1      34.705 -10.007 -24.289  0.00  0.00    +0.021 C 
ATOM     30  C   UNL     1      32.721 -10.766 -23.161  0.00  0.00    +0.021 C 
ATOM     31  C   UNL     1      34.450  -8.746 -23.774  0.00  0.00    +0.099 C 
ATOM     32  C   UNL     1      32.555  -9.472 -22.696  0.00  0.00    +0.099 C 
ENDBRANCH  26  28
ENDBRANCH  23  25
ENDBRANCH  18  20
ENDBRANCH  17  18
ENDBRANCH   1  17
TORSDOF 8
ENDMDL
MODEL 2
REMARK VINA RESULT:     -11.3      1.604     10.837
REMARK  Name = 6914613
REMARK  8 active torsions:
REMARK  status: ('A' for Active; 'I' for Inactive)
REMARK    1  A    between atoms: C_1  and  N_2
REMARK    2  A    between atoms: C_1  and  C_6
REMARK    3  A    between atoms: C_1  and  C_17
REMARK    4  A    between atoms: C_6  and  C_8
REMARK    5  A    between atoms: C_17  and  O_18
REMARK    6  A    between atoms: O_18  and  C_20
REMARK    7  A    between atoms: C_23  and  C_25
REMARK    8  A    between atoms: C_26  and  C_28
REMARK                            x       y       z     vdW  Elec       q    Type
REMARK                         _______ _______ _______ _____ _____    ______ ____
ROOT
ATOM      1  C   UNL     1      33.539 -13.373 -23.373  0.00  0.00    -0.017 C 
ENDROOT
BRANCH   1   2
ATOM      2  N   UNL     1      34.546 -13.686 -22.353  0.00  0.00    +0.384 N 
ATOM      3  H   UNL     1      34.093 -13.775 -21.444  0.00  0.00    -0.089 HD
ATOM      4  H   UNL     1      35.237 -12.936 -22.316  0.00  0.00    -0.089 HD
ATOM      5  H   UNL     1      35.009 -14.563 -22.590  0.00  0.00    -0.089 HD
ENDBRANCH   1   2
BRANCH   1   6
ATOM      6  C   UNL     1      33.810 -11.958 -23.948  0.00  0.00    +0.009 C 
BRANCH   6   8
ATOM      7  N   UNL     1      31.692  -9.767 -21.937  0.00  0.00    -0.312 N 
ATOM      8  C   UNL     1      33.122 -10.864 -23.233  0.00  0.00    -0.008 C 
ATOM      9  C   UNL     1      33.455  -9.481 -23.275  0.00  0.00    +0.011 C 
ATOM     10  C   UNL     1      32.544  -8.814 -22.453  0.00  0.00    +0.048 C 
ATOM     11  C   UNL     1      32.034 -11.008 -22.402  0.00  0.00    +0.058 C 
ATOM     12  C   UNL     1      34.447  -8.730 -23.935  0.00  0.00    +0.001 C 
ATOM     13  C   UNL     1      32.575  -7.429 -22.258  0.00  0.00    +0.015 C 
ATOM     14  C   UNL     1      34.492  -7.343 -23.749  0.00  0.00    +0.000 C 
ATOM     15  C   UNL     1      33.569  -6.706 -22.923  0.00  0.00    +0.001 C 
ATOM     16  H   UNL     1      30.946  -9.581 -21.321  0.00  0.00    +0.152 HD
ENDBRANCH   6   8
ENDBRANCH   1   6
BRANCH   1  17
ATOM     17  C   UNL     1      33.556 -14.481 -24.434  0.00  0.00    +0.184 C 
BRANCH  17  18
ATOM     18  O   UNL     1      34.726 -15.284 -24.341  0.00  0.00    -0.476 OA
BRANCH  18  20
ATOM     19  N   UNL     1      33.872 -18.521 -25.783  0.00  0.00    -0.239 NA
ATOM     20  C   UNL     1      34.554 -16.640 -24.449  0.00  0.00    +0.158 C 
ATOM     21  C   UNL     1      34.866 -17.473 -23.390  0.00  0.00    +0.040 C 
ATOM     22  C   UNL     1      34.067 -17.193 -25.612  0.00  0.00    +0.136 C 
ATOM     23  C   UNL     1      34.679 -18.844 -23.528  0.00  0.00    +0.022 C 
ATOM     24  C   UNL     1      34.184 -19.313 -24.733  0.00  0.00    +0.099 C 
BRANCH  23  25
ATOM     25  C   UNL     1      34.993 -19.755 -22.442  0.00  0.00    +0.002 C 
ATOM     26  C   UNL     1      34.198 -20.003 -21.372  0.00  0.00    +0.000 C 
BRANCH  26  28
ATOM     27  N   UNL     1      35.090 -22.708 -18.219  0.00  0.00    -0.242 NA
ATOM     28  C   UNL     1      34.507 -20.942 -20.279  0.00  0.00    +0.003 C 
ATOM     29  C   UNL     1      35.819 -21.115 -19.885  0.00  0.00    +0.021 C 
ATOM     30  C   UNL     1      33.480 -21.632 -19.667  0.00  0.00    +0.021 C 
ATOM     31  C   UNL     1      36.057 -22.007 -18.852  0.00  0.00    +0.099 C 
ATOM     32  C   UNL     1      33.823 -22.502 -18.644  0.00  0.00    +0.099 C 
ENDBRANCH  26  28
ENDBRANCH  23  25
ENDBRANCH  18  20
ENDBRANCH  17  18
ENDBRANCH   1  17
TORSDOF 8
ENDMDL
MODEL 3
REMARK VINA RESULT:     -11.2      2.629     11.069
REMARK  Name = 6914613
REMARK  8 active torsions:
REMARK  status: ('A' for Active; 'I' for Inactive)
REMARK    1  A    between atoms: C_1  and  N_2
REMARK    2  A    between atoms: C_1  and  C_6
REMARK    3  A    between atoms: C_1  and  C_17
REMARK    4  A    between atoms: C_6  and  C_8
REMARK    5  A    between atoms: C_17  and  O_18
REMARK    6  A    between atoms: O_18  and  C_20
REMARK    7  A    between atoms: C_23  and  C_25
REMARK    8  A    between atoms: C_26  and  C_28
REMARK                            x       y       z     vdW  Elec       q    Type
REMARK                         _______ _______ _______ _____ _____    ______ ____
ROOT
ATOM      1  C   UNL     1      35.069 -18.703 -21.663  0.00  0.00    -0.017 C 
ENDROOT
BRANCH   1   2
ATOM      2  N   UNL     1      36.092 -18.295 -20.694  0.00  0.00    +0.384 N 
ATOM      3  H   UNL     1      35.790 -18.551 -19.754  0.00  0.00    -0.089 HD
ATOM      4  H   UNL     1      36.226 -17.285 -20.745  0.00  0.00    -0.089 HD
ATOM      5  H   UNL     1      36.970 -18.766 -20.909  0.00  0.00    -0.089 HD
ENDBRANCH   1   2
BRANCH   1   6
ATOM      6  C   UNL     1      35.646 -18.594 -23.100  0.00  0.00    +0.009 C 
BRANCH   6   8
ATOM      7  N   UNL     1      33.673 -17.041 -25.750  0.00  0.00    -0.312 N 
ATOM      8  C   UNL     1      34.864 -17.733 -24.009  0.00  0.00    -0.008 C 
ATOM      9  C   UNL     1      34.542 -16.361 -23.811  0.00  0.00    +0.011 C 
ATOM     10  C   UNL     1      33.794 -15.951 -24.917  0.00  0.00    +0.048 C 
ATOM     11  C   UNL     1      34.316 -18.122 -25.210  0.00  0.00    +0.058 C 
ATOM     12  C   UNL     1      34.817 -15.425 -22.794  0.00  0.00    +0.001 C 
ATOM     13  C   UNL     1      33.304 -14.648 -25.057  0.00  0.00    +0.015 C 
ATOM     14  C   UNL     1      34.333 -14.118 -22.920  0.00  0.00    +0.000 C 
ATOM     15  C   UNL     1      33.589 -13.738 -24.035  0.00  0.00    +0.001 C 
ATOM     16  H   UNL     1      33.192 -17.042 -26.609  0.00  0.00    +0.152 HD
ENDBRANCH   6   8
ENDBRANCH   1   6
BRANCH   1  17
ATOM     17  C   UNL     1      34.586 -20.114 -21.302  0.00  0.00    +0.184 C 
BRANCH  17  18
ATOM     18  O   UNL     1      35.649 -20.931 -20.829  0.00  0.00    -0.476 OA
BRANCH  18  20
ATOM     19  N   UNL     1      36.392 -22.397 -17.576  0.00  0.00    -0.239 NA
ATOM     20  C   UNL     1      35.455 -21.564 -19.628  0.00  0.00    +0.158 C 
ATOM     21  C   UNL     1      34.196 -22.000 -19.260  0.00  0.00    +0.040 C 
ATOM     22  C   UNL     1      36.513 -21.778 -18.772  0.00  0.00    +0.136 C 
ATOM     23  C   UNL     1      34.031 -22.641 -18.037  0.00  0.00    +0.022 C 
ATOM     24  C   UNL     1      35.151 -22.814 -17.239  0.00  0.00    +0.099 C 
BRANCH  23  25
ATOM     25  C   UNL     1      32.727 -23.115 -17.610  0.00  0.00    +0.002 C 
ATOM     26  C   UNL     1      32.380 -23.409 -16.333  0.00  0.00    +0.000 C 
BRANCH  26  28
ATOM     27  N   UNL     1      28.547 -24.742 -15.073  0.00  0.00    -0.242 NA
ATOM     28  C   UNL     1      31.051 -23.872 -15.896  0.00  0.00    +0.003 C 
ATOM     29  C   UNL     1      30.957 -24.886 -14.964  0.00  0.00    +0.021 C 
ATOM     30  C   UNL     1      29.919 -23.284 -16.427  0.00  0.00    +0.021 C 
ATOM     31  C   UNL     1      29.686 -25.284 -14.586  0.00  0.00    +0.099 C 
ATOM     32  C   UNL     1      28.694 -23.753 -15.983  0.00  0.00    +0.099 C 
ENDBRANCH  26  28
ENDBRANCH  23  25
ENDBRANCH  18  20
ENDBRANCH  17  18
ENDBRANCH   1  17
TORSDOF 8
ENDMDL
MODEL 4
REMARK VINA RESULT:     -11.1      2.735     11.738
REMARK  Name = 6914613
REMARK  8 active torsions:
REMARK  status: ('A' for Active; 'I' for Inactive)
REMARK    1  A    between atoms: C_1  and  N_2
REMARK    2  A    between atoms: C_1  and  C_6
REMARK    3  A    between atoms: C_1  and  C_17
REMARK    4  A    between atoms: C_6  and  C_8
REMARK    5  A    between atoms: C_17  and  O_18
REMARK    6  A    between atoms: O_18  and  C_20
REMARK    7  A    between atoms: C_23  and  C_25
REMARK    8  A    between atoms: C_26  and  C_28
REMARK                            x       y       z     vdW  Elec       q    Type
REMARK                         _______ _______ _______ _____ _____    ______ ____
ROOT
ATOM      1  C   UNL     1      35.152 -18.804 -21.602  0.00  0.00    -0.017 C 
ENDROOT
BRANCH   1   2
ATOM      2  N   UNL     1      36.215 -18.519 -20.632  0.00  0.00    +0.384 N 
ATOM      3  H   UNL     1      35.971 -17.685 -20.097  0.00  0.00    -0.089 HD
ATOM      4  H   UNL     1      37.093 -18.362 -21.125  0.00  0.00    -0.089 HD
ATOM      5  H   UNL     1      36.317 -19.311 -19.998  0.00  0.00    -0.089 HD
ENDBRANCH   1   2
BRANCH   1   6
ATOM      6  C   UNL     1      35.708 -18.635 -23.041  0.00  0.00    +0.009 C 
BRANCH   6   8
ATOM      7  N   UNL     1      33.765 -16.864 -25.574  0.00  0.00    -0.312 N 
ATOM      8  C   UNL     1      34.943 -17.698 -23.887  0.00  0.00    -0.008 C 
ATOM      9  C   UNL     1      34.644 -16.338 -23.591  0.00  0.00    +0.011 C 
ATOM     10  C   UNL     1      33.904 -15.838 -24.665  0.00  0.00    +0.048 C 
ATOM     11  C   UNL     1      34.389 -17.991 -25.112  0.00  0.00    +0.058 C 
ATOM     12  C   UNL     1      34.932 -15.483 -22.510  0.00  0.00    +0.001 C 
ATOM     13  C   UNL     1      33.436 -14.520 -24.712  0.00  0.00    +0.015 C 
ATOM     14  C   UNL     1      34.471 -14.161 -22.543  0.00  0.00    +0.000 C 
ATOM     15  C   UNL     1      33.735 -13.690 -23.627  0.00  0.00    +0.001 C 
ATOM     16  H   UNL     1      33.285 -16.795 -26.431  0.00  0.00    +0.152 HD
ENDBRANCH   6   8
ENDBRANCH   1   6
BRANCH   1  17
ATOM     17  C   UNL     1      34.594 -20.205 -21.321  0.00  0.00    +0.184 C 
BRANCH  17  18
ATOM     18  O   UNL     1      35.405 -20.921 -20.398  0.00  0.00    -0.476 OA
BRANCH  18  20
ATOM     19  N   UNL     1      32.694 -22.608 -18.641  0.00  0.00    -0.239 NA
ATOM     20  C   UNL     1      34.753 -21.662 -19.447  0.00  0.00    +0.158 C 
ATOM     21  C   UNL     1      35.445 -22.192 -18.373  0.00  0.00    +0.040 C 
ATOM     22  C   UNL     1      33.398 -21.889 -19.545  0.00  0.00    +0.136 C 
ATOM     23  C   UNL     1      34.755 -22.938 -17.423  0.00  0.00    +0.022 C 
ATOM     24  C   UNL     1      33.393 -23.115 -17.602  0.00  0.00    +0.099 C 
BRANCH  23  25
ATOM     25  C   UNL     1      35.442 -23.512 -16.280  0.00  0.00    +0.002 C 
ATOM     26  C   UNL     1      34.838 -24.024 -15.180  0.00  0.00    +0.000 C 
BRANCH  26  28
ATOM     27  N   UNL     1      36.843 -25.757 -11.858  0.00  0.00    -0.242 NA
ATOM     28  C   UNL     1      35.534 -24.624 -14.027  0.00  0.00    +0.003 C 
ATOM     29  C   UNL     1      35.138 -24.292 -12.747  0.00  0.00    +0.021 C 
ATOM     30  C   UNL     1      36.571 -25.510 -14.247  0.00  0.00    +0.021 C 
ATOM     31  C   UNL     1      35.823 -24.884 -11.699  0.00  0.00    +0.099 C 
ATOM     32  C   UNL     1      37.191 -26.047 -13.132  0.00  0.00    +0.099 C 
ENDBRANCH  26  28
ENDBRANCH  23  25
ENDBRANCH  18  20
ENDBRANCH  17  18
ENDBRANCH   1  17
TORSDOF 8
ENDMDL
MODEL 5
REMARK VINA RESULT:     -10.9      3.945      7.228
REMARK  Name = 6914613
REMARK  8 active torsions:
REMARK  status: ('A' for Active; 'I' for Inactive)
REMARK    1  A    between atoms: C_1  and  N_2
REMARK    2  A    between atoms: C_1  and  C_6
REMARK    3  A    between atoms: C_1  and  C_17
REMARK    4  A    between atoms: C_6  and  C_8
REMARK    5  A    between atoms: C_17  and  O_18
REMARK    6  A    between atoms: O_18  and  C_20
REMARK    7  A    between atoms: C_23  and  C_25
REMARK    8  A    between atoms: C_26  and  C_28
REMARK                            x       y       z     vdW  Elec       q    Type
REMARK                         _______ _______ _______ _____ _____    ______ ____
ROOT
ATOM      1  C   UNL     1      33.137 -23.469 -15.797  0.00  0.00    -0.017 C 
ENDROOT
BRANCH   1   2
ATOM      2  N   UNL     1      31.719 -23.651 -15.469  0.00  0.00    +0.384 N 
ATOM      3  H   UNL     1      31.609 -23.712 -14.457  0.00  0.00    -0.089 HD
ATOM      4  H   UNL     1      31.377 -24.510 -15.901  0.00  0.00    -0.089 HD
ATOM      5  H   UNL     1      31.184 -22.857 -15.822  0.00  0.00    -0.089 HD
ENDBRANCH   1   2
BRANCH   1   6
ATOM      6  C   UNL     1      34.004 -24.299 -14.814  0.00  0.00    +0.009 C 
BRANCH   6   8
ATOM      7  N   UNL     1      37.370 -22.901 -15.027  0.00  0.00    -0.312 N 
ATOM      8  C   UNL     1      35.450 -24.004 -14.874  0.00  0.00    -0.008 C 
ATOM      9  C   UNL     1      36.512 -24.949 -14.802  0.00  0.00    +0.011 C 
ATOM     10  C   UNL     1      37.707 -24.231 -14.900  0.00  0.00    +0.048 C 
ATOM     11  C   UNL     1      36.009 -22.754 -15.011  0.00  0.00    +0.058 C 
ATOM     12  C   UNL     1      36.573 -26.349 -14.664  0.00  0.00    +0.001 C 
ATOM     13  C   UNL     1      38.963 -24.845 -14.866  0.00  0.00    +0.015 C 
ATOM     14  C   UNL     1      37.823 -26.978 -14.627  0.00  0.00    +0.000 C 
ATOM     15  C   UNL     1      38.997 -26.236 -14.727  0.00  0.00    +0.001 C 
ATOM     16  H   UNL     1      38.016 -22.162 -15.114  0.00  0.00    +0.152 HD
ENDBRANCH   6   8
ENDBRANCH   1   6
BRANCH   1  17
ATOM     17  C   UNL     1      33.351 -23.842 -17.270  0.00  0.00    +0.184 C 
BRANCH  17  18
ATOM     18  O   UNL     1      32.885 -22.825 -18.146  0.00  0.00    -0.476 OA
BRANCH  18  20
ATOM     19  N   UNL     1      36.156 -21.665 -19.260  0.00  0.00    -0.239 NA
ATOM     20  C   UNL     1      33.833 -22.154 -18.875  0.00  0.00    +0.158 C 
ATOM     21  C   UNL     1      33.460 -21.320 -19.913  0.00  0.00    +0.040 C 
ATOM     22  C   UNL     1      35.171 -22.299 -18.583  0.00  0.00    +0.136 C 
ATOM     23  C   UNL     1      34.444 -20.651 -20.633  0.00  0.00    +0.022 C 
ATOM     24  C   UNL     1      35.765 -20.856 -20.269  0.00  0.00    +0.099 C 
BRANCH  23  25
ATOM     25  C   UNL     1      34.097 -19.766 -21.730  0.00  0.00    +0.002 C 
ATOM     26  C   UNL     1      34.923 -19.420 -22.748  0.00  0.00    +0.000 C 
BRANCH  26  28
ATOM     27  N   UNL     1      33.888 -16.871 -25.987  0.00  0.00    -0.242 NA
ATOM     28  C   UNL     1      34.565 -18.536 -23.872  0.00  0.00    +0.003 C 
ATOM     29  C   UNL     1      33.798 -19.032 -24.907  0.00  0.00    +0.021 C 
ATOM     30  C   UNL     1      35.002 -17.226 -23.871  0.00  0.00    +0.021 C 
ATOM     31  C   UNL     1      33.487 -18.161 -25.939  0.00  0.00    +0.099 C 
ATOM     32  C   UNL     1      34.638 -16.436 -24.949  0.00  0.00    +0.099 C 
ENDBRANCH  26  28
ENDBRANCH  23  25
ENDBRANCH  18  20
ENDBRANCH  17  18
ENDBRANCH   1  17
TORSDOF 8
ENDMDL
MODEL 6
REMARK VINA RESULT:     -10.8      3.337     11.145
REMARK  Name = 6914613
REMARK  8 active torsions:
REMARK  status: ('A' for Active; 'I' for Inactive)
REMARK    1  A    between atoms: C_1  and  N_2
REMARK    2  A    between atoms: C_1  and  C_6
REMARK    3  A    between atoms: C_1  and  C_17
REMARK    4  A    between atoms: C_6  and  C_8
REMARK    5  A    between atoms: C_17  and  O_18
REMARK    6  A    between atoms: O_18  and  C_20
REMARK    7  A    between atoms: C_23  and  C_25
REMARK    8  A    between atoms: C_26  and  C_28
REMARK                            x       y       z     vdW  Elec       q    Type
REMARK                         _______ _______ _______ _____ _____    ______ ____
ROOT
ATOM      1  C   UNL     1      35.267 -20.670 -20.976  0.00  0.00    -0.017 C 
ENDROOT
BRANCH   1   2
ATOM      2  N   UNL     1      33.871 -20.514 -20.550  0.00  0.00    +0.384 N 
ATOM      3  H   UNL     1      33.834 -19.930 -19.715  0.00  0.00    -0.089 HD
ATOM      4  H   UNL     1      33.475 -21.431 -20.342  0.00  0.00    -0.089 HD
ATOM      5  H   UNL     1      33.335 -20.075 -21.298  0.00  0.00    -0.089 HD
ENDBRANCH   1   2
BRANCH   1   6
ATOM      6  C   UNL     1      35.994 -19.303 -20.870  0.00  0.00    +0.009 C 
BRANCH   6   8
ATOM      7  N   UNL     1      35.328 -17.476 -23.961  0.00  0.00    -0.312 N 
ATOM      8  C   UNL     1      35.660 -18.348 -21.946  0.00  0.00    -0.008 C 
ATOM      9  C   UNL     1      35.237 -16.999 -21.783  0.00  0.00    +0.011 C 
ATOM     10  C   UNL     1      35.035 -16.474 -23.061  0.00  0.00    +0.048 C 
ATOM     11  C   UNL     1      35.706 -18.612 -23.296  0.00  0.00    +0.058 C 
ATOM     12  C   UNL     1      35.006 -16.171 -20.666  0.00  0.00    +0.001 C 
ATOM     13  C   UNL     1      34.612 -15.159 -23.280  0.00  0.00    +0.015 C 
ATOM     14  C   UNL     1      34.583 -14.853 -20.870  0.00  0.00    +0.000 C 
ATOM     15  C   UNL     1      34.390 -14.357 -22.157  0.00  0.00    +0.001 C 
ATOM     16  H   UNL     1      35.273 -17.388 -24.940  0.00  0.00    +0.152 HD
ENDBRANCH   6   8
ENDBRANCH   1   6
BRANCH   1  17
ATOM     17  C   UNL     1      35.915 -21.776 -20.133  0.00  0.00    +0.184 C 
BRANCH  17  18
ATOM     18  O   UNL     1      36.476 -21.265 -18.931  0.00  0.00    -0.476 OA
BRANCH  18  20
ATOM     19  N   UNL     1      37.145 -22.911 -15.749  0.00  0.00    -0.239 NA
ATOM     20  C   UNL     1      36.264 -21.996 -17.791  0.00  0.00    +0.158 C 
ATOM     21  C   UNL     1      35.021 -22.542 -17.528  0.00  0.00    +0.040 C 
ATOM     22  C   UNL     1      37.286 -22.199 -16.890  0.00  0.00    +0.136 C 
ATOM     23  C   UNL     1      34.837 -23.281 -16.364  0.00  0.00    +0.022 C 
ATOM     24  C   UNL     1      35.921 -23.434 -15.516  0.00  0.00    +0.099 C 
BRANCH  23  25
ATOM     25  C   UNL     1      33.549 -23.872 -16.049  0.00  0.00    +0.002 C 
ATOM     26  C   UNL     1      32.365 -23.212 -16.039  0.00  0.00    +0.000 C 
BRANCH  26  28
ATOM     27  N   UNL     1      28.589 -24.958 -15.172  0.00  0.00    -0.242 NA
ATOM     28  C   UNL     1      31.056 -23.817 -15.737  0.00  0.00    +0.003 C 
ATOM     29  C   UNL     1      29.918 -23.301 -16.326  0.00  0.00    +0.021 C 
ATOM     30  C   UNL     1      30.987 -24.891 -14.872  0.00  0.00    +0.021 C 
ATOM     31  C   UNL     1      28.712 -23.905 -16.012  0.00  0.00    +0.099 C 
ATOM     32  C   UNL     1      29.733 -25.424 -14.623  0.00  0.00    +0.099 C 
ENDBRANCH  26  28
ENDBRANCH  23  25
ENDBRANCH  18  20
ENDBRANCH  17  18
ENDBRANCH   1  17
TORSDOF 8
ENDMDL
MODEL 7
REMARK VINA RESULT:     -10.6      4.010      7.436
REMARK  Name = 6914613
REMARK  8 active torsions:
REMARK  status: ('A' for Active; 'I' for Inactive)
REMARK    1  A    between atoms: C_1  and  N_2
REMARK    2  A    between atoms: C_1  and  C_6
REMARK    3  A    between atoms: C_1  and  C_17
REMARK    4  A    between atoms: C_6  and  C_8
REMARK    5  A    between atoms: C_17  and  O_18
REMARK    6  A    between atoms: O_18  and  C_20
REMARK    7  A    between atoms: C_23  and  C_25
REMARK    8  A    between atoms: C_26  and  C_28
REMARK                            x       y       z     vdW  Elec       q    Type
REMARK                         _______ _______ _______ _____ _____    ______ ____
ROOT
ATOM      1  C   UNL     1      33.418 -23.429 -15.618  0.00  0.00    -0.017 C 
ENDROOT
BRANCH   1   2
ATOM      2  N   UNL     1      32.053 -23.550 -16.142  0.00  0.00    +0.384 N 
ATOM      3  H   UNL     1      31.464 -24.016 -15.451  0.00  0.00    -0.089 HD
ATOM      4  H   UNL     1      32.066 -24.098 -17.002  0.00  0.00    -0.089 HD
ATOM      5  H   UNL     1      31.680 -22.621 -16.336  0.00  0.00    -0.089 HD
ENDBRANCH   1   2
BRANCH   1   6
ATOM      6  C   UNL     1      33.681 -24.566 -14.596  0.00  0.00    +0.009 C 
BRANCH   6   8
ATOM      7  N   UNL     1      37.073 -25.897 -14.836  0.00  0.00    -0.312 N 
ATOM      8  C   UNL     1      35.101 -24.950 -14.459  0.00  0.00    -0.008 C 
ATOM      9  C   UNL     1      36.002 -24.519 -13.445  0.00  0.00    +0.011 C 
ATOM     10  C   UNL     1      37.232 -25.127 -13.705  0.00  0.00    +0.048 C 
ATOM     11  C   UNL     1      35.788 -25.795 -15.299  0.00  0.00    +0.058 C 
ATOM     12  C   UNL     1      35.889 -23.668 -12.328  0.00  0.00    +0.001 C 
ATOM     13  C   UNL     1      38.359 -24.926 -12.900  0.00  0.00    +0.015 C 
ATOM     14  C   UNL     1      37.008 -23.457 -11.514  0.00  0.00    +0.000 C 
ATOM     15  C   UNL     1      38.223 -24.078 -11.798  0.00  0.00    +0.001 C 
ATOM     16  H   UNL     1      37.781 -26.440 -15.252  0.00  0.00    +0.152 HD
ENDBRANCH   6   8
ENDBRANCH   1   6
BRANCH   1  17
ATOM     17  C   UNL     1      34.398 -23.425 -16.798  0.00  0.00    +0.184 C 
BRANCH  17  18
ATOM     18  O   UNL     1      33.801 -22.904 -17.979  0.00  0.00    -0.476 OA
BRANCH  18  20
ATOM     19  N   UNL     1      36.789 -21.295 -19.308  0.00  0.00    -0.239 NA
ATOM     20  C   UNL     1      34.594 -22.125 -18.781  0.00  0.00    +0.158 C 
ATOM     21  C   UNL     1      34.044 -21.406 -19.826  0.00  0.00    +0.040 C 
ATOM     22  C   UNL     1      35.951 -22.045 -18.556  0.00  0.00    +0.136 C 
ATOM     23  C   UNL     1      34.874 -20.623 -20.621  0.00  0.00    +0.022 C 
ATOM     24  C   UNL     1      36.227 -20.602 -20.322  0.00  0.00    +0.099 C 
BRANCH  23  25
ATOM     25  C   UNL     1      34.340 -19.852 -21.729  0.00  0.00    +0.002 C 
ATOM     26  C   UNL     1      35.064 -19.363 -22.765  0.00  0.00    +0.000 C 
BRANCH  26  28
ATOM     27  N   UNL     1      33.493 -17.153 -26.037  0.00  0.00    -0.242 NA
ATOM     28  C   UNL     1      34.519 -18.596 -23.899  0.00  0.00    +0.003 C 
ATOM     29  C   UNL     1      34.845 -17.261 -24.036  0.00  0.00    +0.021 C 
ATOM     30  C   UNL     1      33.690 -19.225 -24.807  0.00  0.00    +0.021 C 
ATOM     31  C   UNL     1      34.309 -16.585 -25.119  0.00  0.00    +0.099 C 
ATOM     32  C   UNL     1      33.205 -18.461 -25.856  0.00  0.00    +0.099 C 
ENDBRANCH  26  28
ENDBRANCH  23  25
ENDBRANCH  18  20
ENDBRANCH  17  18
ENDBRANCH   1  17
TORSDOF 8
ENDMDL
MODEL 8
REMARK VINA RESULT:     -10.5      3.801     12.137
REMARK  Name = 6914613
REMARK  8 active torsions:
REMARK  status: ('A' for Active; 'I' for Inactive)
REMARK    1  A    between atoms: C_1  and  N_2
REMARK    2  A    between atoms: C_1  and  C_6
REMARK    3  A    between atoms: C_1  and  C_17
REMARK    4  A    between atoms: C_6  and  C_8
REMARK    5  A    between atoms: C_17  and  O_18
REMARK    6  A    between atoms: O_18  and  C_20
REMARK    7  A    between atoms: C_23  and  C_25
REMARK    8  A    between atoms: C_26  and  C_28
REMARK                            x       y       z     vdW  Elec       q    Type
REMARK                         _______ _______ _______ _____ _____    ______ ____
ROOT
ATOM      1  C   UNL     1      31.924  -8.439 -20.339  0.00  0.00    -0.017 C 
ENDROOT
BRANCH   1   2
ATOM      2  N   UNL     1      32.696  -9.367 -19.505  0.00  0.00    +0.384 N 
ATOM      3  H   UNL     1      32.081 -10.100 -19.152  0.00  0.00    -0.089 HD
ATOM      4  H   UNL     1      33.105  -8.859 -18.720  0.00  0.00    -0.089 HD
ATOM      5  H   UNL     1      33.440  -9.787 -20.062  0.00  0.00    -0.089 HD
ENDBRANCH   1   2
BRANCH   1   6
ATOM      6  C   UNL     1      32.731  -7.129 -20.536  0.00  0.00    +0.009 C 
BRANCH   6   8
ATOM      7  N   UNL     1      31.031  -4.899 -22.874  0.00  0.00    -0.312 N 
ATOM      8  C   UNL     1      32.263  -6.284 -21.653  0.00  0.00    -0.008 C 
ATOM      9  C   UNL     1      32.915  -6.095 -22.904  0.00  0.00    +0.011 C 
ATOM     10  C   UNL     1      32.121  -5.221 -23.652  0.00  0.00    +0.048 C 
ATOM     11  C   UNL     1      31.108  -5.536 -21.664  0.00  0.00    +0.058 C 
ATOM     12  C   UNL     1      34.106  -6.584 -23.474  0.00  0.00    +0.001 C 
ATOM     13  C   UNL     1      32.461  -4.811 -24.945  0.00  0.00    +0.015 C 
ATOM     14  C   UNL     1      34.460  -6.182 -24.767  0.00  0.00    +0.000 C 
ATOM     15  C   UNL     1      33.649  -5.310 -25.489  0.00  0.00    +0.001 C 
ATOM     16  H   UNL     1      30.302  -4.296 -23.148  0.00  0.00    +0.152 HD
ENDBRANCH   6   8
ENDBRANCH   1   6
BRANCH   1  17
ATOM     17  C   UNL     1      31.568  -9.144 -21.654  0.00  0.00    +0.184 C 
BRANCH  17  18
ATOM     18  O   UNL     1      31.726 -10.554 -21.558  0.00  0.00    -0.476 OA
BRANCH  18  20
ATOM     19  N   UNL     1      33.821 -10.946 -24.516  0.00  0.00    -0.239 NA
ATOM     20  C   UNL     1      32.508 -11.155 -22.511  0.00  0.00    +0.158 C 
ATOM     21  C   UNL     1      32.767 -12.511 -22.453  0.00  0.00    +0.040 C 
ATOM     22  C   UNL     1      33.044 -10.416 -23.543  0.00  0.00    +0.136 C 
ATOM     23  C   UNL     1      33.562 -13.093 -23.435  0.00  0.00    +0.022 C 
ATOM     24  C   UNL     1      34.059 -12.274 -24.435  0.00  0.00    +0.099 C 
BRANCH  23  25
ATOM     25  C   UNL     1      33.860 -14.514 -23.413  0.00  0.00    +0.002 C 
ATOM     26  C   UNL     1      34.744 -15.116 -22.580  0.00  0.00    +0.000 C 
BRANCH  26  28
ATOM     27  N   UNL     1      35.579 -19.281 -22.477  0.00  0.00    -0.242 NA
ATOM     28  C   UNL     1      35.033 -16.561 -22.544  0.00  0.00    +0.003 C 
ATOM     29  C   UNL     1      34.943 -17.300 -23.707  0.00  0.00    +0.021 C 
ATOM     30  C   UNL     1      35.388 -17.152 -21.348  0.00  0.00    +0.021 C 
ATOM     31  C   UNL     1      35.226 -18.653 -23.621  0.00  0.00    +0.099 C 
ATOM     32  C   UNL     1      35.651 -18.512 -21.367  0.00  0.00    +0.099 C 
ENDBRANCH  26  28
ENDBRANCH  23  25
ENDBRANCH  18  20
ENDBRANCH  17  18
ENDBRANCH   1  17
TORSDOF 8
ENDMDL
MODEL 9
REMARK VINA RESULT:     -10.4      2.820     11.046
REMARK  Name = 6914613
REMARK  8 active torsions:
REMARK  status: ('A' for Active; 'I' for Inactive)
REMARK    1  A    between atoms: C_1  and  N_2
REMARK    2  A    between atoms: C_1  and  C_6
REMARK    3  A    between atoms: C_1  and  C_17
REMARK    4  A    between atoms: C_6  and  C_8
REMARK    5  A    between atoms: C_17  and  O_18
REMARK    6  A    between atoms: O_18  and  C_20
REMARK    7  A    between atoms: C_23  and  C_25
REMARK    8  A    between atoms: C_26  and  C_28
REMARK                            x       y       z     vdW  Elec       q    Type
REMARK                         _______ _______ _______ _____ _____    ______ ____
ROOT
ATOM      1  C   UNL     1      35.277 -19.589 -22.369  0.00  0.00    -0.017 C 
ENDROOT
BRANCH   1   2
ATOM      2  N   UNL     1      33.879 -19.335 -22.735  0.00  0.00    +0.384 N 
ATOM      3  H   UNL     1      33.263 -19.766 -22.045  0.00  0.00    -0.089 HD
ATOM      4  H   UNL     1      33.689 -19.734 -23.654  0.00  0.00    -0.089 HD
ATOM      5  H   UNL     1      33.711 -18.329 -22.759  0.00  0.00    -0.089 HD
ENDBRANCH   1   2
BRANCH   1   6
ATOM      6  C   UNL     1      36.145 -18.368 -22.773  0.00  0.00    +0.009 C 
BRANCH   6   8
ATOM      7  N   UNL     1      34.568 -15.139 -22.130  0.00  0.00    -0.312 N 
ATOM      8  C   UNL     1      35.423 -17.080 -22.784  0.00  0.00    -0.008 C 
ATOM      9  C   UNL     1      34.721 -16.511 -23.884  0.00  0.00    +0.011 C 
ATOM     10  C   UNL     1      34.194 -15.293 -23.447  0.00  0.00    +0.048 C 
ATOM     11  C   UNL     1      35.311 -16.213 -21.722  0.00  0.00    +0.058 C 
ATOM     12  C   UNL     1      34.481 -16.916 -25.211  0.00  0.00    +0.001 C 
ATOM     13  C   UNL     1      33.437 -14.457 -24.275  0.00  0.00    +0.015 C 
ATOM     14  C   UNL     1      33.726 -16.089 -26.052  0.00  0.00    +0.000 C 
ATOM     15  C   UNL     1      33.213 -14.880 -25.589  0.00  0.00    +0.001 C 
ATOM     16  H   UNL     1      34.335 -14.366 -21.566  0.00  0.00    +0.152 HD
ENDBRANCH   6   8
ENDBRANCH   1   6
BRANCH   1  17
ATOM     17  C   UNL     1      35.340 -19.918 -20.872  0.00  0.00    +0.184 C 
BRANCH  17  18
ATOM     18  O   UNL     1      35.894 -21.206 -20.637  0.00  0.00    -0.476 OA
BRANCH  18  20
ATOM     19  N   UNL     1      36.462 -22.417 -17.247  0.00  0.00    -0.239 NA
ATOM     20  C   UNL     1      35.643 -21.774 -19.415  0.00  0.00    +0.158 C 
ATOM     21  C   UNL     1      34.386 -22.263 -19.112  0.00  0.00    +0.040 C 
ATOM     22  C   UNL     1      36.641 -21.868 -18.470  0.00  0.00    +0.136 C 
ATOM     23  C   UNL     1      34.163 -22.835 -17.864  0.00  0.00    +0.022 C 
ATOM     24  C   UNL     1      35.225 -22.888 -16.976  0.00  0.00    +0.099 C 
BRANCH  23  25
ATOM     25  C   UNL     1      32.859 -23.361 -17.504  0.00  0.00    +0.002 C 
ATOM     26  C   UNL     1      32.260 -23.213 -16.297  0.00  0.00    +0.000 C 
BRANCH  26  28
ATOM     27  N   UNL     1      28.419 -24.708 -15.262  0.00  0.00    -0.242 NA
ATOM     28  C   UNL     1      30.928 -23.731 -15.937  0.00  0.00    +0.003 C 
ATOM     29  C   UNL     1      29.802 -23.127 -16.460  0.00  0.00    +0.021 C 
ATOM     30  C   UNL     1      30.827 -24.812 -15.084  0.00  0.00    +0.021 C 
ATOM     31  C   UNL     1      28.573 -23.652 -16.093  0.00  0.00    +0.099 C 
ATOM     32  C   UNL     1      29.554 -25.261 -14.779  0.00  0.00    +0.099 C 
ENDBRANCH  26  28
ENDBRANCH  23  25
ENDBRANCH  18  20
ENDBRANCH  17  18
ENDBRANCH   1  17
TORSDOF 8
ENDMDL
