MODEL 1
REMARK VINA RESULT:     -11.2      0.000      0.000
REMARK  Name = 445770
REMARK  5 active torsions:
REMARK  status: ('A' for Active; 'I' for Inactive)
REMARK    1  A    between atoms: N_2  and  C_17
REMARK    2  A    between atoms: C_3  and  C_5
REMARK    3  A    between atoms: C_6  and  S_11
REMARK    4  A    between atoms: S_11  and  N_14
REMARK    5  A    between atoms: C_17  and  C_23
REMARK                            x       y       z     vdW  Elec       q    Type
REMARK                         _______ _______ _______ _____ _____    ______ ____
ROOT
ATOM      1  O   UNL     1      37.202 -18.696 -21.814  0.00  0.00    -0.270 OA
ATOM      2  N   UNL     1      35.115 -18.295 -22.738  0.00  0.00    -0.297 N 
ATOM      3  C   UNL     1      35.986 -18.950 -21.860  0.00  0.00    +0.246 C 
ATOM      4  H   UNL     1      34.162 -18.546 -22.723  0.00  0.00    +0.150 HD
ENDROOT
BRANCH   3   5
ATOM      5  C   UNL     1      35.412 -19.977 -21.005  0.00  0.00    +0.053 C 
ATOM      6  C   UNL     1      34.313 -21.948 -19.365  0.00  0.00    +0.122 C 
ATOM      7  C   UNL     1      34.030 -20.155 -20.960  0.00  0.00    +0.006 C 
ATOM      8  C   UNL     1      36.246 -20.784 -20.231  0.00  0.00    +0.006 C 
ATOM      9  C   UNL     1      33.481 -21.140 -20.139  0.00  0.00    +0.020 C 
ATOM     10  C   UNL     1      35.696 -21.771 -19.411  0.00  0.00    +0.020 C 
BRANCH   6  11
ATOM     11  S   UNL     1      33.626 -23.182 -18.340  0.00  0.00    +0.057 S 
ATOM     12  O   UNL     1      33.770 -24.470 -19.004  0.00  0.00    -0.153 OA
ATOM     13  O   UNL     1      32.310 -22.737 -17.904  0.00  0.00    -0.153 OA
BRANCH  11  14
ATOM     14  N   UNL     1      34.694 -23.130 -17.007  0.00  0.00    -0.203 NA
ATOM     15  H   UNL     1      35.554 -23.624 -17.241  0.00  0.00    +0.144 HD
ATOM     16  H   UNL     1      34.254 -23.576 -16.201  0.00  0.00    +0.144 HD
ENDBRANCH  11  14
ENDBRANCH   6  11
ENDBRANCH   3   5
BRANCH   2  17
ATOM     17  C   UNL     1      35.537 -17.269 -23.666  0.00  0.00    +0.121 C 
BRANCH  17  23
ATOM     18  F   UNL     1      35.266 -15.871 -21.227  0.00  0.00    -0.202 F 
ATOM     19  F   UNL     1      34.131 -16.128 -25.830  0.00  0.00    -0.202 F 
ATOM     20  F   UNL     1      32.634 -13.863 -25.581  0.00  0.00    -0.199 F 
ATOM     21  F   UNL     1      33.770 -13.604 -20.991  0.00  0.00    -0.199 F 
ATOM     22  F   UNL     1      32.452 -12.597 -23.165  0.00  0.00    -0.199 F 
ATOM     23  C   UNL     1      34.711 -16.018 -23.531  0.00  0.00    +0.057 A 
ATOM     24  C   UNL     1      34.625 -15.384 -22.298  0.00  0.00    +0.170 A 
ATOM     25  C   UNL     1      34.047 -15.515 -24.641  0.00  0.00    +0.170 A 
ATOM     26  C   UNL     1      33.282 -14.356 -24.517  0.00  0.00    +0.197 A 
ATOM     27  C   UNL     1      33.859 -14.225 -22.175  0.00  0.00    +0.197 A 
ATOM     28  C   UNL     1      33.187 -13.710 -23.284  0.00  0.00    +0.199 A 
ENDBRANCH  17  23
ENDBRANCH   2  17
TORSDOF 5
ENDMDL
MODEL 2
REMARK VINA RESULT:     -11.1      0.769      2.510
REMARK  Name = 445770
REMARK  5 active torsions:
REMARK  status: ('A' for Active; 'I' for Inactive)
REMARK    1  A    between atoms: N_2  and  C_17
REMARK    2  A    between atoms: C_3  and  C_5
REMARK    3  A    between atoms: C_6  and  S_11
REMARK    4  A    between atoms: S_11  and  N_14
REMARK    5  A    between atoms: C_17  and  C_23
REMARK                            x       y       z     vdW  Elec       q    Type
REMARK                         _______ _______ _______ _____ _____    ______ ____
ROOT
ATOM      1  O   UNL     1      37.034 -18.650 -22.025  0.00  0.00    -0.270 OA
ATOM      2  N   UNL     1      34.941 -18.450 -23.001  0.00  0.00    -0.297 N 
ATOM      3  C   UNL     1      35.835 -18.980 -22.064  0.00  0.00    +0.246 C 
ATOM      4  H   UNL     1      34.004 -18.756 -22.976  0.00  0.00    +0.150 HD
ENDROOT
BRANCH   3   5
ATOM      5  C   UNL     1      35.310 -19.969 -21.135  0.00  0.00    +0.053 C 
ATOM      6  C   UNL     1      34.303 -21.866 -19.355  0.00  0.00    +0.122 C 
ATOM      7  C   UNL     1      36.185 -20.746 -20.376  0.00  0.00    +0.006 C 
ATOM      8  C   UNL     1      33.932 -20.141 -21.006  0.00  0.00    +0.006 C 
ATOM      9  C   UNL     1      35.681 -21.694 -19.486  0.00  0.00    +0.020 C 
ATOM     10  C   UNL     1      33.428 -21.089 -20.115  0.00  0.00    +0.020 C 
BRANCH   6  11
ATOM     11  S   UNL     1      33.673 -23.052 -18.241  0.00  0.00    +0.057 S 
ATOM     12  O   UNL     1      32.273 -22.746 -17.981  0.00  0.00    -0.153 OA
ATOM     13  O   UNL     1      34.603 -23.178 -17.128  0.00  0.00    -0.153 OA
BRANCH  11  14
ATOM     14  N   UNL     1      33.757 -24.470 -19.192  0.00  0.00    -0.203 NA
ATOM     15  H   UNL     1      34.100 -25.242 -18.621  0.00  0.00    +0.144 HD
ATOM     16  H   UNL     1      34.392 -24.316 -19.975  0.00  0.00    +0.144 HD
ENDBRANCH  11  14
ENDBRANCH   6  11
ENDBRANCH   3   5
BRANCH   2  17
ATOM     17  C   UNL     1      35.315 -17.477 -24.003  0.00  0.00    +0.121 C 
BRANCH  17  23
ATOM     18  F   UNL     1      33.866 -16.184 -26.053  0.00  0.00    -0.202 F 
ATOM     19  F   UNL     1      35.334 -16.103 -21.538  0.00  0.00    -0.202 F 
ATOM     20  F   UNL     1      34.058 -13.721 -21.173  0.00  0.00    -0.199 F 
ATOM     21  F   UNL     1      32.590 -13.805 -25.675  0.00  0.00    -0.199 F 
ATOM     22  F   UNL     1      32.685 -12.570 -23.236  0.00  0.00    -0.199 F 
ATOM     23  C   UNL     1      34.610 -16.163 -23.799  0.00  0.00    +0.057 A 
ATOM     24  C   UNL     1      33.916 -15.587 -24.854  0.00  0.00    +0.170 A 
ATOM     25  C   UNL     1      34.664 -15.546 -22.557  0.00  0.00    +0.170 A 
ATOM     26  C   UNL     1      34.011 -14.328 -22.366  0.00  0.00    +0.197 A 
ATOM     27  C   UNL     1      33.264 -14.369 -24.664  0.00  0.00    +0.197 A 
ATOM     28  C   UNL     1      33.311 -13.739 -23.420  0.00  0.00    +0.199 A 
ENDBRANCH  17  23
ENDBRANCH   2  17
TORSDOF 5
ENDMDL
MODEL 3
REMARK VINA RESULT:     -10.4      5.027      7.654
REMARK  Name = 445770
REMARK  5 active torsions:
REMARK  status: ('A' for Active; 'I' for Inactive)
REMARK    1  A    between atoms: N_2  and  C_17
REMARK    2  A    between atoms: C_3  and  C_5
REMARK    3  A    between atoms: C_6  and  S_11
REMARK    4  A    between atoms: S_11  and  N_14
REMARK    5  A    between atoms: C_17  and  C_23
REMARK                            x       y       z     vdW  Elec       q    Type
REMARK                         _______ _______ _______ _____ _____    ______ ____
ROOT
ATOM      1  O   UNL     1      32.358 -23.843 -16.278  0.00  0.00    -0.270 OA
ATOM      2  N   UNL     1      34.187 -22.951 -17.386  0.00  0.00    -0.297 N 
ATOM      3  C   UNL     1      33.556 -23.511 -16.270  0.00  0.00    +0.246 C 
ATOM      4  H   UNL     1      35.140 -22.710 -17.312  0.00  0.00    +0.150 HD
ENDROOT
BRANCH   3   5
ATOM      5  C   UNL     1      34.360 -23.672 -15.069  0.00  0.00    +0.053 C 
ATOM      6  C   UNL     1      35.901 -23.979 -12.764  0.00  0.00    +0.122 C 
ATOM      7  C   UNL     1      35.689 -23.248 -15.057  0.00  0.00    +0.006 C 
ATOM      8  C   UNL     1      33.801 -24.249 -13.929  0.00  0.00    +0.006 C 
ATOM      9  C   UNL     1      36.459 -23.403 -13.904  0.00  0.00    +0.020 C 
ATOM     10  C   UNL     1      34.572 -24.403 -12.775  0.00  0.00    +0.020 C 
BRANCH   6  11
ATOM     11  S   UNL     1      36.864 -24.171 -11.321  0.00  0.00    +0.057 S 
ATOM     12  O   UNL     1      37.410 -22.872 -10.952  0.00  0.00    -0.153 OA
ATOM     13  O   UNL     1      37.760 -25.303 -11.513  0.00  0.00    -0.153 OA
BRANCH  11  14
ATOM     14  N   UNL     1      35.665 -24.604 -10.183  0.00  0.00    -0.203 NA
ATOM     15  H   UNL     1      35.626 -25.620 -10.101  0.00  0.00    +0.144 HD
ATOM     16  H   UNL     1      34.759 -24.253 -10.495  0.00  0.00    +0.144 HD
ENDBRANCH  11  14
ENDBRANCH   6  11
ENDBRANCH   3   5
BRANCH   2  17
ATOM     17  C   UNL     1      33.518 -22.706 -18.645  0.00  0.00    +0.121 C 
BRANCH  17  23
ATOM     18  F   UNL     1      32.273 -21.022 -20.540  0.00  0.00    -0.202 F 
ATOM     19  F   UNL     1      36.323 -22.438 -18.507  0.00  0.00    -0.202 F 
ATOM     20  F   UNL     1      37.713 -20.696 -20.078  0.00  0.00    -0.199 F 
ATOM     21  F   UNL     1      33.672 -19.281 -22.103  0.00  0.00    -0.199 F 
ATOM     22  F   UNL     1      36.393 -19.116 -21.876  0.00  0.00    -0.199 F 
ATOM     23  C   UNL     1      34.287 -21.744 -19.510  0.00  0.00    +0.057 A 
ATOM     24  C   UNL     1      33.605 -20.947 -20.420  0.00  0.00    +0.170 A 
ATOM     25  C   UNL     1      35.667 -21.667 -19.386  0.00  0.00    +0.170 A 
ATOM     26  C   UNL     1      36.381 -20.777 -20.187  0.00  0.00    +0.197 A 
ATOM     27  C   UNL     1      34.319 -20.057 -21.222  0.00  0.00    +0.197 A 
ATOM     28  C   UNL     1      35.707 -19.971 -21.106  0.00  0.00    +0.199 A 
ENDBRANCH  17  23
ENDBRANCH   2  17
TORSDOF 5
ENDMDL
MODEL 4
REMARK VINA RESULT:     -10.4      5.021      7.436
REMARK  Name = 445770
REMARK  5 active torsions:
REMARK  status: ('A' for Active; 'I' for Inactive)
REMARK    1  A    between atoms: N_2  and  C_17
REMARK    2  A    between atoms: C_3  and  C_5
REMARK    3  A    between atoms: C_6  and  S_11
REMARK    4  A    between atoms: S_11  and  N_14
REMARK    5  A    between atoms: C_17  and  C_23
REMARK                            x       y       z     vdW  Elec       q    Type
REMARK                         _______ _______ _______ _____ _____    ______ ____
ROOT
ATOM      1  O   UNL     1      32.352 -23.822 -16.280  0.00  0.00    -0.270 OA
ATOM      2  N   UNL     1      34.188 -22.952 -17.395  0.00  0.00    -0.297 N 
ATOM      3  C   UNL     1      33.553 -23.501 -16.276  0.00  0.00    +0.246 C 
ATOM      4  H   UNL     1      35.142 -22.719 -17.323  0.00  0.00    +0.150 HD
ENDROOT
BRANCH   3   5
ATOM      5  C   UNL     1      34.356 -23.662 -15.074  0.00  0.00    +0.053 C 
ATOM      6  C   UNL     1      35.898 -23.971 -12.770  0.00  0.00    +0.122 C 
ATOM      7  C   UNL     1      33.797 -24.237 -13.933  0.00  0.00    +0.006 C 
ATOM      8  C   UNL     1      35.686 -23.240 -15.063  0.00  0.00    +0.006 C 
ATOM      9  C   UNL     1      34.568 -24.391 -12.781  0.00  0.00    +0.020 C 
ATOM     10  C   UNL     1      36.457 -23.395 -13.910  0.00  0.00    +0.020 C 
BRANCH   6  11
ATOM     11  S   UNL     1      36.863 -24.165 -11.328  0.00  0.00    +0.057 S 
ATOM     12  O   UNL     1      37.411 -22.867 -10.959  0.00  0.00    -0.153 OA
ATOM     13  O   UNL     1      37.756 -25.298 -11.522  0.00  0.00    -0.153 OA
BRANCH  11  14
ATOM     14  N   UNL     1      35.664 -24.598 -10.190  0.00  0.00    -0.203 NA
ATOM     15  H   UNL     1      34.740 -24.448 -10.595  0.00  0.00    +0.144 HD
ATOM     16  H   UNL     1      35.766 -24.023  -9.353  0.00  0.00    +0.144 HD
ENDBRANCH  11  14
ENDBRANCH   6  11
ENDBRANCH   3   5
BRANCH   2  17
ATOM     17  C   UNL     1      33.519 -22.708 -18.654  0.00  0.00    +0.121 C 
BRANCH  17  23
ATOM     18  F   UNL     1      36.325 -22.425 -18.511  0.00  0.00    -0.202 F 
ATOM     19  F   UNL     1      32.270 -21.034 -20.551  0.00  0.00    -0.202 F 
ATOM     20  F   UNL     1      33.663 -19.287 -22.114  0.00  0.00    -0.199 F 
ATOM     21  F   UNL     1      37.708 -20.677 -20.081  0.00  0.00    -0.199 F 
ATOM     22  F   UNL     1      36.381 -19.106 -21.883  0.00  0.00    -0.199 F 
ATOM     23  C   UNL     1      34.286 -21.744 -19.518  0.00  0.00    +0.057 A 
ATOM     24  C   UNL     1      35.667 -21.660 -19.392  0.00  0.00    +0.170 A 
ATOM     25  C   UNL     1      33.603 -20.952 -20.430  0.00  0.00    +0.170 A 
ATOM     26  C   UNL     1      34.312 -20.058 -21.232  0.00  0.00    +0.197 A 
ATOM     27  C   UNL     1      36.376 -20.765 -20.193  0.00  0.00    +0.197 A 
ATOM     28  C   UNL     1      35.700 -19.964 -21.114  0.00  0.00    +0.199 A 
ENDBRANCH  17  23
ENDBRANCH   2  17
TORSDOF 5
ENDMDL
MODEL 5
REMARK VINA RESULT:     -10.1      6.517     10.538
REMARK  Name = 445770
REMARK  5 active torsions:
REMARK  status: ('A' for Active; 'I' for Inactive)
REMARK    1  A    between atoms: N_2  and  C_17
REMARK    2  A    between atoms: C_3  and  C_5
REMARK    3  A    between atoms: C_6  and  S_11
REMARK    4  A    between atoms: S_11  and  N_14
REMARK    5  A    between atoms: C_17  and  C_23
REMARK                            x       y       z     vdW  Elec       q    Type
REMARK                         _______ _______ _______ _____ _____    ______ ____
ROOT
ATOM      1  O   UNL     1      33.707 -24.261 -18.709  0.00  0.00    -0.270 OA
ATOM      2  N   UNL     1      34.718 -23.174 -16.928  0.00  0.00    -0.297 N 
ATOM      3  C   UNL     1      34.319 -23.273 -18.266  0.00  0.00    +0.246 C 
ATOM      4  H   UNL     1      35.200 -22.363 -16.644  0.00  0.00    +0.150 HD
ENDROOT
BRANCH   3   5
ATOM      5  C   UNL     1      34.674 -22.169 -19.144  0.00  0.00    +0.053 C 
ATOM      6  C   UNL     1      35.357 -20.053 -20.828  0.00  0.00    +0.122 C 
ATOM      7  C   UNL     1      33.677 -21.468 -19.821  0.00  0.00    +0.006 C 
ATOM      8  C   UNL     1      36.013 -21.814 -19.309  0.00  0.00    +0.006 C 
ATOM      9  C   UNL     1      34.019 -20.410 -20.664  0.00  0.00    +0.020 C 
ATOM     10  C   UNL     1      36.355 -20.755 -20.151  0.00  0.00    +0.020 C 
BRANCH   6  11
ATOM     11  S   UNL     1      35.785 -18.728 -21.882  0.00  0.00    +0.057 S 
ATOM     12  O   UNL     1      34.905 -18.756 -23.041  0.00  0.00    -0.153 OA
ATOM     13  O   UNL     1      37.229 -18.738 -22.069  0.00  0.00    -0.153 OA
BRANCH  11  14
ATOM     14  N   UNL     1      35.366 -17.389 -20.906  0.00  0.00    -0.203 NA
ATOM     15  H   UNL     1      34.410 -17.102 -21.116  0.00  0.00    +0.144 HD
ATOM     16  H   UNL     1      36.003 -16.616 -21.098  0.00  0.00    +0.144 HD
ENDBRANCH  11  14
ENDBRANCH   6  11
ENDBRANCH   3   5
BRANCH   2  17
ATOM     17  C   UNL     1      34.460 -24.197 -15.939  0.00  0.00    +0.121 C 
BRANCH  17  23
ATOM     18  F   UNL     1      35.766 -26.700 -15.839  0.00  0.00    -0.202 F 
ATOM     19  F   UNL     1      35.597 -22.218 -14.281  0.00  0.00    -0.202 F 
ATOM     20  F   UNL     1      37.776 -22.688 -12.711  0.00  0.00    -0.199 F 
ATOM     21  F   UNL     1      37.946 -27.157 -14.268  0.00  0.00    -0.199 F 
ATOM     22  F   UNL     1      38.954 -25.154 -12.702  0.00  0.00    -0.199 F 
ATOM     23  C   UNL     1      35.664 -24.455 -15.073  0.00  0.00    +0.057 A 
ATOM     24  C   UNL     1      36.253 -25.712 -15.076  0.00  0.00    +0.170 A 
ATOM     25  C   UNL     1      36.167 -23.431 -14.283  0.00  0.00    +0.170 A 
ATOM     26  C   UNL     1      37.282 -23.668 -13.479  0.00  0.00    +0.197 A 
ATOM     27  C   UNL     1      37.368 -25.949 -14.272  0.00  0.00    +0.197 A 
ATOM     28  C   UNL     1      37.883 -24.927 -13.474  0.00  0.00    +0.199 A 
ENDBRANCH  17  23
ENDBRANCH   2  17
TORSDOF 5
ENDMDL
MODEL 6
REMARK VINA RESULT:     -10.0      4.009      6.258
REMARK  Name = 445770
REMARK  5 active torsions:
REMARK  status: ('A' for Active; 'I' for Inactive)
REMARK    1  A    between atoms: N_2  and  C_17
REMARK    2  A    between atoms: C_3  and  C_5
REMARK    3  A    between atoms: C_6  and  S_11
REMARK    4  A    between atoms: S_11  and  N_14
REMARK    5  A    between atoms: C_17  and  C_23
REMARK                            x       y       z     vdW  Elec       q    Type
REMARK                         _______ _______ _______ _____ _____    ______ ____
ROOT
ATOM      1  O   UNL     1      32.814 -13.882 -25.282  0.00  0.00    -0.270 OA
ATOM      2  N   UNL     1      34.020 -12.513 -23.852  0.00  0.00    -0.297 N 
ATOM      3  C   UNL     1      33.631 -13.761 -24.353  0.00  0.00    +0.246 C 
ATOM      4  H   UNL     1      34.672 -12.489 -23.114  0.00  0.00    +0.150 HD
ENDROOT
BRANCH   3   5
ATOM      5  C   UNL     1      34.209 -14.935 -23.719  0.00  0.00    +0.053 C 
ATOM      6  C   UNL     1      35.316 -17.189 -22.503  0.00  0.00    +0.122 C 
ATOM      7  C   UNL     1      34.570 -14.894 -22.372  0.00  0.00    +0.006 C 
ATOM      8  C   UNL     1      34.402 -16.103 -24.458  0.00  0.00    +0.006 C 
ATOM      9  C   UNL     1      35.123 -16.021 -21.765  0.00  0.00    +0.020 C 
ATOM     10  C   UNL     1      34.955 -17.230 -23.850  0.00  0.00    +0.020 C 
BRANCH   6  11
ATOM     11  S   UNL     1      36.007 -18.600 -21.742  0.00  0.00    +0.057 S 
ATOM     12  O   UNL     1      35.228 -19.766 -22.134  0.00  0.00    -0.153 OA
ATOM     13  O   UNL     1      36.211 -18.307 -20.330  0.00  0.00    -0.153 OA
BRANCH  11  14
ATOM     14  N   UNL     1      37.530 -18.672 -22.514  0.00  0.00    -0.203 NA
ATOM     15  H   UNL     1      37.898 -17.728 -22.628  0.00  0.00    +0.144 HD
ATOM     16  H   UNL     1      37.426 -19.110 -23.429  0.00  0.00    +0.144 HD
ENDBRANCH  11  14
ENDBRANCH   6  11
ENDBRANCH   3   5
BRANCH   2  17
ATOM     17  C   UNL     1      33.517 -11.256 -24.360  0.00  0.00    +0.121 C 
BRANCH  17  23
ATOM     18  F   UNL     1      34.408  -8.586 -24.128  0.00  0.00    -0.202 F 
ATOM     19  F   UNL     1      31.723 -12.069 -22.340  0.00  0.00    -0.202 F 
ATOM     20  F   UNL     1      30.922 -10.410 -20.330  0.00  0.00    -0.199 F 
ATOM     21  F   UNL     1      33.597  -6.935 -22.117  0.00  0.00    -0.199 F 
ATOM     22  F   UNL     1      31.855  -7.844 -20.214  0.00  0.00    -0.199 F 
ATOM     23  C   UNL     1      33.072 -10.341 -23.251  0.00  0.00    +0.057 A 
ATOM     24  C   UNL     1      33.553  -9.039 -23.202  0.00  0.00    +0.170 A 
ATOM     25  C   UNL     1      32.187 -10.812 -22.291  0.00  0.00    +0.170 A 
ATOM     26  C   UNL     1      31.774  -9.966 -21.262  0.00  0.00    +0.197 A 
ATOM     27  C   UNL     1      33.141  -8.194 -22.173  0.00  0.00    +0.197 A 
ATOM     28  C   UNL     1      32.251  -8.656 -21.203  0.00  0.00    +0.199 A 
ENDBRANCH  17  23
ENDBRANCH   2  17
TORSDOF 5
ENDMDL
MODEL 7
REMARK VINA RESULT:     -10.0      6.152     10.200
REMARK  Name = 445770
REMARK  5 active torsions:
REMARK  status: ('A' for Active; 'I' for Inactive)
REMARK    1  A    between atoms: N_2  and  C_17
REMARK    2  A    between atoms: C_3  and  C_5
REMARK    3  A    between atoms: C_6  and  S_11
REMARK    4  A    between atoms: S_11  and  N_14
REMARK    5  A    between atoms: C_17  and  C_23
REMARK                            x       y       z     vdW  Elec       q    Type
REMARK                         _______ _______ _______ _____ _____    ______ ____
ROOT
ATOM      1  O   UNL     1      33.824 -24.150 -19.171  0.00  0.00    -0.270 OA
ATOM      2  N   UNL     1      33.980 -22.805 -17.290  0.00  0.00    -0.297 N 
ATOM      3  C   UNL     1      34.052 -23.036 -18.668  0.00  0.00    +0.246 C 
ATOM      4  H   UNL     1      34.174 -21.898 -16.958  0.00  0.00    +0.150 HD
ENDROOT
BRANCH   3   5
ATOM      5  C   UNL     1      34.438 -21.912 -19.507  0.00  0.00    +0.053 C 
ATOM      6  C   UNL     1      35.177 -19.756 -21.115  0.00  0.00    +0.122 C 
ATOM      7  C   UNL     1      35.786 -21.585 -19.658  0.00  0.00    +0.006 C 
ATOM      8  C   UNL     1      33.460 -21.161 -20.159  0.00  0.00    +0.006 C 
ATOM      9  C   UNL     1      36.155 -20.507 -20.463  0.00  0.00    +0.020 C 
ATOM     10  C   UNL     1      33.830 -20.083 -20.964  0.00  0.00    +0.020 C 
BRANCH   6  11
ATOM     11  S   UNL     1      35.640 -18.407 -22.123  0.00  0.00    +0.057 S 
ATOM     12  O   UNL     1      35.362 -17.174 -21.402  0.00  0.00    -0.153 OA
ATOM     13  O   UNL     1      35.078 -18.611 -23.451  0.00  0.00    -0.153 OA
BRANCH  11  14
ATOM     14  N   UNL     1      37.333 -18.626 -22.203  0.00  0.00    -0.203 NA
ATOM     15  H   UNL     1      37.750 -17.864 -22.736  0.00  0.00    +0.144 HD
ATOM     16  H   UNL     1      37.540 -19.515 -22.660  0.00  0.00    +0.144 HD
ENDBRANCH  11  14
ENDBRANCH   6  11
ENDBRANCH   3   5
BRANCH   2  17
ATOM     17  C   UNL     1      33.634 -23.825 -16.325  0.00  0.00    +0.121 C 
BRANCH  17  23
ATOM     18  F   UNL     1      36.354 -23.188 -16.741  0.00  0.00    -0.202 F 
ATOM     19  F   UNL     1      33.028 -24.719 -13.719  0.00  0.00    -0.202 F 
ATOM     20  F   UNL     1      34.918 -24.950 -11.767  0.00  0.00    -0.199 F 
ATOM     21  F   UNL     1      38.234 -23.418 -14.781  0.00  0.00    -0.199 F 
ATOM     22  F   UNL     1      37.520 -24.299 -12.292  0.00  0.00    -0.199 F 
ATOM     23  C   UNL     1      34.676 -23.951 -15.246  0.00  0.00    +0.057 A 
ATOM     24  C   UNL     1      35.995 -23.619 -15.525  0.00  0.00    +0.170 A 
ATOM     25  C   UNL     1      34.302 -24.399 -13.987  0.00  0.00    +0.170 A 
ATOM     26  C   UNL     1      35.266 -24.517 -12.985  0.00  0.00    +0.197 A 
ATOM     27  C   UNL     1      36.958 -23.737 -14.524  0.00  0.00    +0.197 A 
ATOM     28  C   UNL     1      36.595 -24.186 -13.254  0.00  0.00    +0.199 A 
ENDBRANCH  17  23
ENDBRANCH   2  17
TORSDOF 5
ENDMDL
MODEL 8
REMARK VINA RESULT:     -10.0      4.006      6.181
REMARK  Name = 445770
REMARK  5 active torsions:
REMARK  status: ('A' for Active; 'I' for Inactive)
REMARK    1  A    between atoms: N_2  and  C_17
REMARK    2  A    between atoms: C_3  and  C_5
REMARK    3  A    between atoms: C_6  and  S_11
REMARK    4  A    between atoms: S_11  and  N_14
REMARK    5  A    between atoms: C_17  and  C_23
REMARK                            x       y       z     vdW  Elec       q    Type
REMARK                         _______ _______ _______ _____ _____    ______ ____
ROOT
ATOM      1  O   UNL     1      32.806 -13.895 -25.275  0.00  0.00    -0.270 OA
ATOM      2  N   UNL     1      34.019 -12.523 -23.855  0.00  0.00    -0.297 N 
ATOM      3  C   UNL     1      33.628 -13.771 -24.350  0.00  0.00    +0.246 C 
ATOM      4  H   UNL     1      34.675 -12.497 -23.120  0.00  0.00    +0.150 HD
ENDROOT
BRANCH   3   5
ATOM      5  C   UNL     1      34.207 -14.945 -23.716  0.00  0.00    +0.053 C 
ATOM      6  C   UNL     1      35.319 -17.196 -22.499  0.00  0.00    +0.122 C 
ATOM      7  C   UNL     1      34.570 -14.902 -22.369  0.00  0.00    +0.006 C 
ATOM      8  C   UNL     1      34.401 -16.112 -24.454  0.00  0.00    +0.006 C 
ATOM      9  C   UNL     1      35.126 -16.028 -21.761  0.00  0.00    +0.020 C 
ATOM     10  C   UNL     1      34.956 -17.238 -23.845  0.00  0.00    +0.020 C 
BRANCH   6  11
ATOM     11  S   UNL     1      36.013 -18.605 -21.737  0.00  0.00    +0.057 S 
ATOM     12  O   UNL     1      35.238 -19.773 -22.130  0.00  0.00    -0.153 OA
ATOM     13  O   UNL     1      36.214 -18.312 -20.325  0.00  0.00    -0.153 OA
BRANCH  11  14
ATOM     14  N   UNL     1      37.537 -18.673 -22.508  0.00  0.00    -0.203 NA
ATOM     15  H   UNL     1      37.847 -19.643 -22.562  0.00  0.00    +0.144 HD
ATOM     16  H   UNL     1      38.213 -18.129 -21.972  0.00  0.00    +0.144 HD
ENDBRANCH  11  14
ENDBRANCH   6  11
ENDBRANCH   3   5
BRANCH   2  17
ATOM     17  C   UNL     1      33.514 -11.267 -24.363  0.00  0.00    +0.121 C 
BRANCH  17  23
ATOM     18  F   UNL     1      31.713 -12.072 -22.343  0.00  0.00    -0.202 F 
ATOM     19  F   UNL     1      34.415  -8.603 -24.134  0.00  0.00    -0.202 F 
ATOM     20  F   UNL     1      33.607  -6.945 -22.125  0.00  0.00    -0.199 F 
ATOM     21  F   UNL     1      30.915 -10.407 -20.337  0.00  0.00    -0.199 F 
ATOM     22  F   UNL     1      31.860  -7.843 -20.224  0.00  0.00    -0.199 F 
ATOM     23  C   UNL     1      33.071 -10.351 -23.254  0.00  0.00    +0.057 A 
ATOM     24  C   UNL     1      32.182 -10.817 -22.295  0.00  0.00    +0.170 A 
ATOM     25  C   UNL     1      33.557  -9.052 -23.207  0.00  0.00    +0.170 A 
ATOM     26  C   UNL     1      33.147  -8.202 -22.180  0.00  0.00    +0.197 A 
ATOM     27  C   UNL     1      31.771  -9.967 -21.269  0.00  0.00    +0.197 A 
ATOM     28  C   UNL     1      32.254  -8.659 -21.210  0.00  0.00    +0.199 A 
ENDBRANCH  17  23
ENDBRANCH   2  17
TORSDOF 5
ENDMDL
MODEL 9
REMARK VINA RESULT:     -10.0      6.152     10.063
REMARK  Name = 445770
REMARK  5 active torsions:
REMARK  status: ('A' for Active; 'I' for Inactive)
REMARK    1  A    between atoms: N_2  and  C_17
REMARK    2  A    between atoms: C_3  and  C_5
REMARK    3  A    between atoms: C_6  and  S_11
REMARK    4  A    between atoms: S_11  and  N_14
REMARK    5  A    between atoms: C_17  and  C_23
REMARK                            x       y       z     vdW  Elec       q    Type
REMARK                         _______ _______ _______ _____ _____    ______ ____
ROOT
ATOM      1  O   UNL     1      33.824 -24.157 -19.149  0.00  0.00    -0.270 OA
ATOM      2  N   UNL     1      33.987 -22.804 -17.274  0.00  0.00    -0.297 N 
ATOM      3  C   UNL     1      34.057 -23.041 -18.651  0.00  0.00    +0.246 C 
ATOM      4  H   UNL     1      34.185 -21.896 -16.946  0.00  0.00    +0.150 HD
ENDROOT
BRANCH   3   5
ATOM      5  C   UNL     1      34.444 -21.922 -19.495  0.00  0.00    +0.053 C 
ATOM      6  C   UNL     1      35.188 -19.775 -21.113  0.00  0.00    +0.122 C 
ATOM      7  C   UNL     1      33.468 -21.167 -20.145  0.00  0.00    +0.006 C 
ATOM      8  C   UNL     1      35.793 -21.604 -19.655  0.00  0.00    +0.006 C 
ATOM      9  C   UNL     1      33.840 -20.094 -20.954  0.00  0.00    +0.020 C 
ATOM     10  C   UNL     1      36.165 -20.529 -20.464  0.00  0.00    +0.020 C 
BRANCH   6  11
ATOM     11  S   UNL     1      35.654 -18.431 -22.125  0.00  0.00    +0.057 S 
ATOM     12  O   UNL     1      35.351 -17.193 -21.420  0.00  0.00    -0.153 OA
ATOM     13  O   UNL     1      35.116 -18.652 -23.460  0.00  0.00    -0.153 OA
BRANCH  11  14
ATOM     14  N   UNL     1      37.350 -18.633 -22.174  0.00  0.00    -0.203 NA
ATOM     15  H   UNL     1      37.801 -17.826 -21.745  0.00  0.00    +0.144 HD
ATOM     16  H   UNL     1      37.655 -18.716 -23.145  0.00  0.00    +0.144 HD
ENDBRANCH  11  14
ENDBRANCH   6  11
ENDBRANCH   3   5
BRANCH   2  17
ATOM     17  C   UNL     1      33.640 -23.819 -16.304  0.00  0.00    +0.121 C 
BRANCH  17  23
ATOM     18  F   UNL     1      33.054 -24.737 -13.698  0.00  0.00    -0.202 F 
ATOM     19  F   UNL     1      36.352 -23.166 -16.731  0.00  0.00    -0.202 F 
ATOM     20  F   UNL     1      38.245 -23.402 -14.783  0.00  0.00    -0.199 F 
ATOM     21  F   UNL     1      34.956 -24.972 -11.760  0.00  0.00    -0.199 F 
ATOM     22  F   UNL     1      37.553 -24.304 -12.298  0.00  0.00    -0.199 F 
ATOM     23  C   UNL     1      34.687 -23.950 -15.231  0.00  0.00    +0.057 A 
ATOM     24  C   UNL     1      34.324 -24.409 -13.972  0.00  0.00    +0.170 A 
ATOM     25  C   UNL     1      36.002 -23.609 -15.515  0.00  0.00    +0.170 A 
ATOM     26  C   UNL     1      36.974 -23.730 -14.522  0.00  0.00    +0.197 A 
ATOM     27  C   UNL     1      35.295 -24.528 -12.978  0.00  0.00    +0.197 A 
ATOM     28  C   UNL     1      36.620 -24.189 -13.252  0.00  0.00    +0.199 A 
ENDBRANCH  17  23
ENDBRANCH   2  17
TORSDOF 5
ENDMDL
