MODEL 1
REMARK VINA RESULT:     -10.8      0.000      0.000
REMARK  Name = 5288018
REMARK  3 active torsions:
REMARK  status: ('A' for Active; 'I' for Inactive)
REMARK    1  A    between atoms: C_9  and  N_24
REMARK    2  A    between atoms: C_10  and  C_17
REMARK    3  A    between atoms: N_23  and  N_29
REMARK                            x       y       z     vdW  Elec       q    Type
REMARK                         _______ _______ _______ _____ _____    ______ ____
ROOT
ATOM      1  O   UNL     1      33.178  -8.927 -24.047  0.00  0.00    -0.286 OA
ATOM      2  N   UNL     1      32.186  -5.187 -21.827  0.00  0.00    -0.278 N 
ATOM      3  N   UNL     1      31.818  -5.949 -20.759  0.00  0.00    -0.173 NA
ATOM      4  C   UNL     1      32.349  -9.375 -21.783  0.00  0.00    +0.054 C 
ATOM      5  C   UNL     1      32.535  -7.201 -22.527  0.00  0.00    +0.072 A 
ATOM      6  C   UNL     1      31.919  -8.515 -20.734  0.00  0.00    +0.024 C 
ATOM      7  C   UNL     1      32.042  -7.172 -21.215  0.00  0.00    +0.105 A 
ATOM      8  C   UNL     1      32.759  -8.549 -22.972  0.00  0.00    +0.199 C 
ATOM      9  C   UNL     1      32.349 -10.732 -21.627  0.00  0.00    +0.055 C 
ATOM     10  C   UNL     1      32.626  -5.904 -22.922  0.00  0.00    +0.073 A 
ATOM     11  C   UNL     1      31.489  -9.011 -19.525  0.00  0.00    +0.002 C 
ATOM     12  C   UNL     1      31.919 -11.256 -20.415  0.00  0.00    +0.015 C 
ATOM     13  C   UNL     1      31.492 -10.402 -19.374  0.00  0.00    +0.001 C 
ATOM     14  H   UNL     1      32.141  -4.203 -21.820  0.00  0.00    +0.189 HD
ENDROOT
BRANCH  10  17
ATOM     15  S   UNL     1      34.477  -5.834 -24.935  0.00  0.00    -0.075 S 
ATOM     16  N   UNL     1      33.128  -3.906 -26.006  0.00  0.00    -0.407 NA
ATOM     17  C   UNL     1      33.054  -5.309 -24.128  0.00  0.00    +0.141 C 
ATOM     18  C   UNL     1      32.476  -4.280 -24.848  0.00  0.00    +0.103 C 
ATOM     19  C   UNL     1      34.197  -4.658 -26.153  0.00  0.00    +0.135 C 
ATOM     20  C   UNL     1      31.237  -3.555 -24.492  0.00  0.00    +0.063 C 
ATOM     21  C   UNL     1      35.148  -4.549 -27.280  0.00  0.00    +0.074 C 
ENDBRANCH  10  17
BRANCH   9  24
ATOM     22  O   UNL     1      32.346 -13.729 -21.771  0.00  0.00    -0.251 OA
ATOM     23  N   UNL     1      33.255 -13.474 -23.882  0.00  0.00    -0.231 N 
ATOM     24  N   UNL     1      32.773 -11.599 -22.659  0.00  0.00    -0.267 N 
ATOM     25  C   UNL     1      32.748 -12.997 -22.672  0.00  0.00    +0.318 C 
ATOM     26  H   UNL     1      33.566 -12.846 -24.574  0.00  0.00    +0.171 HD
ATOM     27  H   UNL     1      33.130 -11.166 -23.468  0.00  0.00    +0.156 HD
BRANCH  23  29
ATOM     28  N   UNL     1      34.536 -17.188 -25.248  0.00  0.00    +0.387 N 
ATOM     29  N   UNL     1      33.318 -14.837 -24.097  0.00  0.00    -0.209 NA
ATOM     30  C   UNL     1      34.661 -16.889 -23.816  0.00  0.00    -0.058 C 
ATOM     31  C   UNL     1      33.281 -16.642 -25.780  0.00  0.00    -0.058 C 
ATOM     32  C   UNL     1      34.571 -15.380 -23.564  0.00  0.00    +0.069 C 
ATOM     33  C   UNL     1      33.191 -15.134 -25.527  0.00  0.00    +0.069 C 
ATOM     34  C   UNL     1      34.618 -18.628 -25.487  0.00  0.00    -0.101 C 
ATOM     35  H   UNL     1      35.312 -16.743 -25.738  0.00  0.00    -0.080 HD
ENDBRANCH  23  29
ENDBRANCH   9  24
TORSDOF 3
ENDMDL
MODEL 2
REMARK VINA RESULT:     -10.6     10.595     16.220
REMARK  Name = 5288018
REMARK  3 active torsions:
REMARK  status: ('A' for Active; 'I' for Inactive)
REMARK    1  A    between atoms: C_9  and  N_24
REMARK    2  A    between atoms: C_10  and  C_17
REMARK    3  A    between atoms: N_23  and  N_29
REMARK                            x       y       z     vdW  Elec       q    Type
REMARK                         _______ _______ _______ _____ _____    ______ ____
ROOT
ATOM      1  O   UNL     1      36.457 -23.116 -16.950  0.00  0.00    -0.286 OA
ATOM      2  N   UNL     1      34.632 -24.989 -13.335  0.00  0.00    -0.278 N 
ATOM      3  N   UNL     1      33.399 -24.697 -13.838  0.00  0.00    -0.173 NA
ATOM      4  C   UNL     1      34.006 -23.041 -16.993  0.00  0.00    +0.054 C 
ATOM      5  C   UNL     1      35.092 -24.010 -15.206  0.00  0.00    +0.072 A 
ATOM      6  C   UNL     1      33.018 -23.503 -16.080  0.00  0.00    +0.024 C 
ATOM      7  C   UNL     1      33.712 -24.100 -14.979  0.00  0.00    +0.105 A 
ATOM      8  C   UNL     1      35.376 -23.356 -16.454  0.00  0.00    +0.199 C 
ATOM      9  C   UNL     1      33.655 -22.419 -18.157  0.00  0.00    +0.055 C 
ATOM     10  C   UNL     1      35.687 -24.591 -14.130  0.00  0.00    +0.073 A 
ATOM     11  C   UNL     1      31.675 -23.344 -16.329  0.00  0.00    +0.002 C 
ATOM     12  C   UNL     1      32.305 -22.247 -18.431  0.00  0.00    +0.015 C 
ATOM     13  C   UNL     1      31.323 -22.705 -17.523  0.00  0.00    +0.001 C 
ATOM     14  H   UNL     1      34.759 -25.448 -12.473  0.00  0.00    +0.189 HD
ENDROOT
BRANCH  10  17
ATOM     15  S   UNL     1      38.028 -25.898 -14.673  0.00  0.00    -0.075 S 
ATOM     16  N   UNL     1      39.111 -24.618 -12.705  0.00  0.00    -0.407 NA
ATOM     17  C   UNL     1      37.043 -24.797 -13.796  0.00  0.00    +0.141 C 
ATOM     18  C   UNL     1      37.794 -24.215 -12.791  0.00  0.00    +0.103 C 
ATOM     19  C   UNL     1      39.347 -25.504 -13.647  0.00  0.00    +0.135 C 
ATOM     20  C   UNL     1      37.316 -23.211 -11.815  0.00  0.00    +0.063 C 
ATOM     21  C   UNL     1      40.652 -26.164 -13.868  0.00  0.00    +0.074 C 
ENDBRANCH  10  17
BRANCH   9  24
ATOM     22  O   UNL     1      33.463 -20.315 -20.288  0.00  0.00    -0.251 OA
ATOM     23  N   UNL     1      35.676 -20.801 -20.750  0.00  0.00    -0.231 N 
ATOM     24  N   UNL     1      34.624 -21.954 -19.074  0.00  0.00    -0.267 N 
ATOM     25  C   UNL     1      34.479 -20.964 -20.052  0.00  0.00    +0.318 C 
ATOM     26  H   UNL     1      36.463 -21.347 -20.523  0.00  0.00    +0.171 HD
ATOM     27  H   UNL     1      35.511 -22.379 -19.019  0.00  0.00    +0.156 HD
BRANCH  23  29
ATOM     28  N   UNL     1      34.709 -17.596 -23.220  0.00  0.00    +0.387 N 
ATOM     29  N   UNL     1      35.743 -19.866 -21.765  0.00  0.00    -0.209 NA
ATOM     30  C   UNL     1      35.866 -17.465 -22.326  0.00  0.00    -0.058 C 
ATOM     31  C   UNL     1      34.640 -18.954 -23.776  0.00  0.00    -0.058 C 
ATOM     32  C   UNL     1      35.813 -18.512 -21.207  0.00  0.00    +0.069 C 
ATOM     33  C   UNL     1      34.587 -20.000 -22.658  0.00  0.00    +0.069 C 
ATOM     34  C   UNL     1      34.762 -16.600 -24.288  0.00  0.00    -0.101 C 
ATOM     35  H   UNL     1      33.862 -17.430 -22.676  0.00  0.00    -0.080 HD
ENDBRANCH  23  29
ENDBRANCH   9  24
TORSDOF 3
ENDMDL
MODEL 3
REMARK VINA RESULT:     -10.6      9.545     15.267
REMARK  Name = 5288018
REMARK  3 active torsions:
REMARK  status: ('A' for Active; 'I' for Inactive)
REMARK    1  A    between atoms: C_9  and  N_24
REMARK    2  A    between atoms: C_10  and  C_17
REMARK    3  A    between atoms: N_23  and  N_29
REMARK                            x       y       z     vdW  Elec       q    Type
REMARK                         _______ _______ _______ _____ _____    ______ ____
ROOT
ATOM      1  O   UNL     1      32.441 -22.413 -18.431  0.00  0.00    -0.286 OA
ATOM      2  N   UNL     1      32.513 -24.250 -14.366  0.00  0.00    -0.278 N 
ATOM      3  N   UNL     1      33.869 -24.114 -14.357  0.00  0.00    -0.173 NA
ATOM      4  C   UNL     1      34.713 -22.589 -17.523  0.00  0.00    +0.054 C 
ATOM      5  C   UNL     1      32.921 -23.338 -16.282  0.00  0.00    +0.072 A 
ATOM      6  C   UNL     1      35.215 -23.096 -16.292  0.00  0.00    +0.024 C 
ATOM      7  C   UNL     1      34.089 -23.556 -15.538  0.00  0.00    +0.105 A 
ATOM      8  C   UNL     1      33.215 -22.732 -17.551  0.00  0.00    +0.199 C 
ATOM      9  C   UNL     1      35.553 -22.073 -18.469  0.00  0.00    +0.055 C 
ATOM     10  C   UNL     1      31.897 -23.794 -15.513  0.00  0.00    +0.073 A 
ATOM     11  C   UNL     1      36.560 -23.087 -16.004  0.00  0.00    +0.002 C 
ATOM     12  C   UNL     1      36.915 -22.053 -18.200  0.00  0.00    +0.015 C 
ATOM     13  C   UNL     1      37.414 -22.557 -16.977  0.00  0.00    +0.001 C 
ATOM     14  H   UNL     1      32.013 -24.643 -13.614  0.00  0.00    +0.189 HD
ENDROOT
BRANCH  10  17
ATOM     15  S   UNL     1      29.657 -22.529 -16.445  0.00  0.00    -0.075 S 
ATOM     16  N   UNL     1      28.287 -24.611 -15.758  0.00  0.00    -0.407 NA
ATOM     17  C   UNL     1      30.502 -23.841 -15.726  0.00  0.00    +0.141 C 
ATOM     18  C   UNL     1      29.606 -24.852 -15.431  0.00  0.00    +0.103 C 
ATOM     19  C   UNL     1      28.195 -23.417 -16.299  0.00  0.00    +0.135 C 
ATOM     20  C   UNL     1      29.934 -26.152 -14.805  0.00  0.00    +0.063 C 
ATOM     21  C   UNL     1      26.934 -22.809 -16.777  0.00  0.00    +0.074 C 
ENDBRANCH  10  17
BRANCH   9  24
ATOM     22  O   UNL     1      36.560 -19.817 -20.172  0.00  0.00    -0.251 OA
ATOM     23  N   UNL     1      34.815 -20.323 -21.602  0.00  0.00    -0.231 N 
ATOM     24  N   UNL     1      35.069 -21.566 -19.696  0.00  0.00    -0.267 N 
ATOM     25  C   UNL     1      35.582 -20.506 -20.451  0.00  0.00    +0.318 C 
ATOM     26  H   UNL     1      34.038 -20.901 -21.780  0.00  0.00    +0.171 HD
ATOM     27  H   UNL     1      34.274 -22.014 -20.066  0.00  0.00    +0.156 HD
BRANCH  23  29
ATOM     28  N   UNL     1      34.559 -16.926 -23.989  0.00  0.00    +0.387 N 
ATOM     29  N   UNL     1      35.156 -19.318 -22.487  0.00  0.00    -0.209 NA
ATOM     30  C   UNL     1      35.433 -16.887 -22.809  0.00  0.00    -0.058 C 
ATOM     31  C   UNL     1      34.639 -18.237 -24.645  0.00  0.00    -0.058 C 
ATOM     32  C   UNL     1      35.076 -18.011 -21.830  0.00  0.00    +0.069 C 
ATOM     33  C   UNL     1      34.283 -19.360 -23.665  0.00  0.00    +0.069 C 
ATOM     34  C   UNL     1      34.901 -15.856 -24.924  0.00  0.00    -0.101 C 
ATOM     35  H   UNL     1      33.597 -16.780 -23.681  0.00  0.00    -0.080 HD
ENDBRANCH  23  29
ENDBRANCH   9  24
TORSDOF 3
ENDMDL
MODEL 4
REMARK VINA RESULT:     -10.2     11.732     16.764
REMARK  Name = 5288018
REMARK  3 active torsions:
REMARK  status: ('A' for Active; 'I' for Inactive)
REMARK    1  A    between atoms: C_9  and  N_24
REMARK    2  A    between atoms: C_10  and  C_17
REMARK    3  A    between atoms: N_23  and  N_29
REMARK                            x       y       z     vdW  Elec       q    Type
REMARK                         _______ _______ _______ _____ _____    ______ ____
ROOT
ATOM      1  O   UNL     1      34.935 -24.035 -16.704  0.00  0.00    -0.286 OA
ATOM      2  N   UNL     1      35.456 -24.892 -12.356  0.00  0.00    -0.278 N 
ATOM      3  N   UNL     1      34.124 -24.665 -12.178  0.00  0.00    -0.173 NA
ATOM      4  C   UNL     1      32.834 -23.844 -15.454  0.00  0.00    +0.054 C 
ATOM      5  C   UNL     1      34.776 -24.414 -14.351  0.00  0.00    +0.072 A 
ATOM      6  C   UNL     1      32.519 -24.022 -14.077  0.00  0.00    +0.024 C 
ATOM      7  C   UNL     1      33.736 -24.375 -13.412  0.00  0.00    +0.105 A 
ATOM      8  C   UNL     1      34.302 -24.092 -15.669  0.00  0.00    +0.199 C 
ATOM      9  C   UNL     1      31.870 -23.500 -16.358  0.00  0.00    +0.055 C 
ATOM     10  C   UNL     1      35.895 -24.751 -13.657  0.00  0.00    +0.073 A 
ATOM     11  C   UNL     1      31.238 -23.857 -13.603  0.00  0.00    +0.002 C 
ATOM     12  C   UNL     1      30.570 -23.328 -15.904  0.00  0.00    +0.015 C 
ATOM     13  C   UNL     1      30.258 -23.504 -14.536  0.00  0.00    +0.001 C 
ATOM     14  H   UNL     1      36.057 -25.138 -11.616  0.00  0.00    +0.189 HD
ENDROOT
BRANCH  10  17
ATOM     15  S   UNL     1      38.137 -26.315 -13.553  0.00  0.00    -0.075 S 
ATOM     16  N   UNL     1      39.316 -24.596 -15.082  0.00  0.00    -0.407 NA
ATOM     17  C   UNL     1      37.235 -24.943 -14.057  0.00  0.00    +0.141 C 
ATOM     18  C   UNL     1      38.029 -24.147 -14.862  0.00  0.00    +0.103 C 
ATOM     19  C   UNL     1      39.485 -25.730 -14.440  0.00  0.00    +0.135 C 
ATOM     20  C   UNL     1      37.626 -22.874 -15.501  0.00  0.00    +0.063 C 
ATOM     21  C   UNL     1      40.741 -26.513 -14.439  0.00  0.00    +0.074 C 
ENDBRANCH  10  17
BRANCH   9  24
ATOM     22  O   UNL     1      33.889 -21.725 -17.691  0.00  0.00    -0.251 OA
ATOM     23  N   UNL     1      33.103 -22.589 -19.687  0.00  0.00    -0.231 N 
ATOM     24  N   UNL     1      32.167 -23.319 -17.728  0.00  0.00    -0.267 N 
ATOM     25  C   UNL     1      33.125 -22.472 -18.296  0.00  0.00    +0.318 C 
ATOM     26  H   UNL     1      32.470 -23.203 -20.125  0.00  0.00    +0.171 HD
ATOM     27  H   UNL     1      31.634 -23.853 -18.361  0.00  0.00    +0.156 HD
BRANCH  23  29
ATOM     28  N   UNL     1      35.652 -19.515 -20.851  0.00  0.00    +0.387 N 
ATOM     29  N   UNL     1      33.978 -21.831 -20.441  0.00  0.00    -0.209 NA
ATOM     30  C   UNL     1      36.232 -20.833 -20.565  0.00  0.00    -0.058 C 
ATOM     31  C   UNL     1      34.366 -19.658 -21.546  0.00  0.00    -0.058 C 
ATOM     32  C   UNL     1      35.260 -21.690 -19.746  0.00  0.00    +0.069 C 
ATOM     33  C   UNL     1      33.396 -20.515 -20.727  0.00  0.00    +0.069 C 
ATOM     34  C   UNL     1      36.577 -18.699 -21.635  0.00  0.00    -0.101 C 
ATOM     35  H   UNL     1      35.485 -19.038 -19.964  0.00  0.00    -0.080 HD
ENDBRANCH  23  29
ENDBRANCH   9  24
TORSDOF 3
ENDMDL
MODEL 5
REMARK VINA RESULT:      -9.2      2.088      3.117
REMARK  Name = 5288018
REMARK  3 active torsions:
REMARK  status: ('A' for Active; 'I' for Inactive)
REMARK    1  A    between atoms: C_9  and  N_24
REMARK    2  A    between atoms: C_10  and  C_17
REMARK    3  A    between atoms: N_23  and  N_29
REMARK                            x       y       z     vdW  Elec       q    Type
REMARK                         _______ _______ _______ _____ _____    ______ ____
ROOT
ATOM      1  O   UNL     1      33.403  -6.697 -25.233  0.00  0.00    -0.286 OA
ATOM      2  N   UNL     1      31.848  -2.615 -24.323  0.00  0.00    -0.278 N 
ATOM      3  N   UNL     1      31.632  -3.013 -23.037  0.00  0.00    -0.173 NA
ATOM      4  C   UNL     1      32.702  -6.462 -22.894  0.00  0.00    +0.054 C 
ATOM      5  C   UNL     1      32.512  -4.672 -24.334  0.00  0.00    +0.072 A 
ATOM      6  C   UNL     1      32.156  -5.370 -22.164  0.00  0.00    +0.024 C 
ATOM      7  C   UNL     1      32.046  -4.270 -23.074  0.00  0.00    +0.105 A 
ATOM      8  C   UNL     1      32.948  -6.041 -24.318  0.00  0.00    +0.199 C 
ATOM      9  C   UNL     1      32.930  -7.668 -22.295  0.00  0.00    +0.055 C 
ATOM     10  C   UNL     1      32.380  -3.589 -25.144  0.00  0.00    +0.073 A 
ATOM     11  C   UNL     1      31.837  -5.482 -20.830  0.00  0.00    +0.002 C 
ATOM     12  C   UNL     1      32.616  -7.805 -20.949  0.00  0.00    +0.015 C 
ATOM     13  C   UNL     1      32.073  -6.720 -20.224  0.00  0.00    +0.001 C 
ATOM     14  H   UNL     1      31.641  -1.707 -24.641  0.00  0.00    +0.189 HD
ENDROOT
BRANCH  10  17
ATOM     15  S   UNL     1      34.057  -4.104 -27.244  0.00  0.00    -0.075 S 
ATOM     16  N   UNL     1      32.536  -2.627 -28.723  0.00  0.00    -0.407 NA
ATOM     17  C   UNL     1      32.680  -3.386 -26.508  0.00  0.00    +0.141 C 
ATOM     18  C   UNL     1      31.998  -2.640 -27.452  0.00  0.00    +0.103 C 
ATOM     19  C   UNL     1      33.624  -3.365 -28.731  0.00  0.00    +0.135 C 
ATOM     20  C   UNL     1      30.758  -1.866 -27.222  0.00  0.00    +0.063 C 
ATOM     21  C   UNL     1      34.475  -3.589 -29.920  0.00  0.00    +0.074 C 
ENDBRANCH  10  17
BRANCH   9  24
ATOM     22  O   UNL     1      31.750 -10.356 -22.917  0.00  0.00    -0.251 OA
ATOM     23  N   UNL     1      33.741 -10.805 -24.005  0.00  0.00    -0.231 N 
ATOM     24  N   UNL     1      33.471  -8.762 -23.007  0.00  0.00    -0.267 N 
ATOM     25  C   UNL     1      32.872  -9.999 -23.268  0.00  0.00    +0.318 C 
ATOM     26  H   UNL     1      34.632 -10.473 -24.262  0.00  0.00    +0.171 HD
ATOM     27  H   UNL     1      34.382  -8.640 -23.362  0.00  0.00    +0.156 HD
BRANCH  23  29
ATOM     28  N   UNL     1      33.865 -14.743 -25.341  0.00  0.00    +0.387 N 
ATOM     29  N   UNL     1      33.338 -12.076 -24.368  0.00  0.00    -0.209 NA
ATOM     30  C   UNL     1      33.561 -14.494 -23.926  0.00  0.00    -0.058 C 
ATOM     31  C   UNL     1      33.216 -13.736 -26.191  0.00  0.00    -0.058 C 
ATOM     32  C   UNL     1      33.986 -13.079 -23.518  0.00  0.00    +0.069 C 
ATOM     33  C   UNL     1      33.640 -12.322 -25.782  0.00  0.00    +0.069 C 
ATOM     34  C   UNL     1      33.457 -16.091 -25.730  0.00  0.00    -0.101 C 
ATOM     35  H   UNL     1      34.874 -14.669 -25.471  0.00  0.00    -0.080 HD
ENDBRANCH  23  29
ENDBRANCH   9  24
TORSDOF 3
ENDMDL
MODEL 6
REMARK VINA RESULT:      -9.0      2.369      5.038
REMARK  Name = 5288018
REMARK  3 active torsions:
REMARK  status: ('A' for Active; 'I' for Inactive)
REMARK    1  A    between atoms: C_9  and  N_24
REMARK    2  A    between atoms: C_10  and  C_17
REMARK    3  A    between atoms: N_23  and  N_29
REMARK                            x       y       z     vdW  Elec       q    Type
REMARK                         _______ _______ _______ _____ _____    ______ ____
ROOT
ATOM      1  O   UNL     1      34.133  -6.274 -25.097  0.00  0.00    -0.286 OA
ATOM      2  N   UNL     1      33.376  -2.297 -26.973  0.00  0.00    -0.278 N 
ATOM      3  N   UNL     1      32.460  -2.040 -25.997  0.00  0.00    -0.173 NA
ATOM      4  C   UNL     1      32.443  -4.974 -23.886  0.00  0.00    +0.054 C 
ATOM      5  C   UNL     1      33.435  -4.091 -25.770  0.00  0.00    +0.072 A 
ATOM      6  C   UNL     1      31.890  -3.682 -24.107  0.00  0.00    +0.024 C 
ATOM      7  C   UNL     1      32.518  -3.152 -25.279  0.00  0.00    +0.105 A 
ATOM      8  C   UNL     1      33.458  -5.275 -24.955  0.00  0.00    +0.199 C 
ATOM      9  C   UNL     1      32.042  -5.742 -22.830  0.00  0.00    +0.055 C 
ATOM     10  C   UNL     1      33.991  -3.529 -26.875  0.00  0.00    +0.073 A 
ATOM     11  C   UNL     1      30.933  -3.154 -23.270  0.00  0.00    +0.002 C 
ATOM     12  C   UNL     1      31.077  -5.231 -21.972  0.00  0.00    +0.015 C 
ATOM     13  C   UNL     1      30.527  -3.947 -22.192  0.00  0.00    +0.001 C 
ATOM     14  H   UNL     1      33.582  -1.656 -27.691  0.00  0.00    +0.189 HD
ENDROOT
BRANCH  10  17
ATOM     15  S   UNL     1      36.530  -4.476 -27.252  0.00  0.00    -0.075 S 
ATOM     16  N   UNL     1      36.020  -4.620 -29.782  0.00  0.00    -0.407 NA
ATOM     17  C   UNL     1      34.969  -3.991 -27.782  0.00  0.00    +0.141 C 
ATOM     18  C   UNL     1      34.889  -4.139 -29.154  0.00  0.00    +0.103 C 
ATOM     19  C   UNL     1      36.950  -4.833 -28.877  0.00  0.00    +0.135 C 
ATOM     20  C   UNL     1      33.712  -3.832 -29.997  0.00  0.00    +0.063 C 
ATOM     21  C   UNL     1      38.304  -5.350 -29.173  0.00  0.00    +0.074 C 
ENDBRANCH  10  17
BRANCH   9  24
ATOM     22  O   UNL     1      31.467  -8.363 -24.173  0.00  0.00    -0.251 OA
ATOM     23  N   UNL     1      33.030  -9.268 -22.729  0.00  0.00    -0.231 N 
ATOM     24  N   UNL     1      32.582  -7.027 -22.597  0.00  0.00    -0.267 N 
ATOM     25  C   UNL     1      32.275  -8.221 -23.258  0.00  0.00    +0.318 C 
ATOM     26  H   UNL     1      33.664  -9.104 -21.994  0.00  0.00    +0.171 HD
ATOM     27  H   UNL     1      33.256  -7.090 -21.882  0.00  0.00    +0.156 HD
BRANCH  23  29
ATOM     28  N   UNL     1      33.675 -13.301 -23.523  0.00  0.00    +0.387 N 
ATOM     29  N   UNL     1      32.874 -10.541 -23.246  0.00  0.00    -0.209 NA
ATOM     30  C   UNL     1      32.499 -12.924 -22.727  0.00  0.00    -0.058 C 
ATOM     31  C   UNL     1      33.896 -12.331 -24.603  0.00  0.00    -0.058 C 
ATOM     32  C   UNL     1      32.652 -11.506 -22.166  0.00  0.00    +0.069 C 
ATOM     33  C   UNL     1      34.048 -10.914 -24.041  0.00  0.00    +0.069 C 
ATOM     34  C   UNL     1      33.527 -14.652 -24.060  0.00  0.00    -0.101 C 
ATOM     35  H   UNL     1      34.492 -13.292 -22.912  0.00  0.00    -0.080 HD
ENDBRANCH  23  29
ENDBRANCH   9  24
TORSDOF 3
ENDMDL
MODEL 7
REMARK VINA RESULT:      -9.0      2.446      8.869
REMARK  Name = 5288018
REMARK  3 active torsions:
REMARK  status: ('A' for Active; 'I' for Inactive)
REMARK    1  A    between atoms: C_9  and  N_24
REMARK    2  A    between atoms: C_10  and  C_17
REMARK    3  A    between atoms: N_23  and  N_29
REMARK                            x       y       z     vdW  Elec       q    Type
REMARK                         _______ _______ _______ _____ _____    ______ ____
ROOT
ATOM      1  O   UNL     1      33.958 -10.083 -24.275  0.00  0.00    -0.286 OA
ATOM      2  N   UNL     1      31.915 -12.569 -21.184  0.00  0.00    -0.278 N 
ATOM      3  N   UNL     1      31.557 -11.424 -20.537  0.00  0.00    -0.173 NA
ATOM      4  C   UNL     1      32.915  -8.724 -22.520  0.00  0.00    +0.054 C 
ATOM      5  C   UNL     1      32.763 -11.022 -22.433  0.00  0.00    +0.072 A 
ATOM      6  C   UNL     1      32.171  -9.069 -21.357  0.00  0.00    +0.024 C 
ATOM      7  C   UNL     1      32.089 -10.498 -21.321  0.00  0.00    +0.105 A 
ATOM      8  C   UNL     1      33.319  -9.977 -23.248  0.00  0.00    +0.199 C 
ATOM      9  C   UNL     1      33.166  -7.419 -22.835  0.00  0.00    +0.055 C 
ATOM     10  C   UNL     1      32.647 -12.373 -22.338  0.00  0.00    +0.073 A 
ATOM     11  C   UNL     1      31.676  -8.108 -20.506  0.00  0.00    +0.002 C 
ATOM     12  C   UNL     1      32.677  -6.431 -21.991  0.00  0.00    +0.015 C 
ATOM     13  C   UNL     1      31.939  -6.774 -20.835  0.00  0.00    +0.001 C 
ATOM     14  H   UNL     1      31.671 -13.464 -20.855  0.00  0.00    +0.189 HD
ENDROOT
BRANCH  10  17
ATOM     15  S   UNL     1      32.677 -13.536 -24.814  0.00  0.00    -0.075 S 
ATOM     16  N   UNL     1      34.236 -15.362 -23.855  0.00  0.00    -0.407 NA
ATOM     17  C   UNL     1      33.116 -13.423 -23.156  0.00  0.00    +0.141 C 
ATOM     18  C   UNL     1      33.946 -14.480 -22.833  0.00  0.00    +0.103 C 
ATOM     19  C   UNL     1      33.620 -14.963 -24.946  0.00  0.00    +0.135 C 
ATOM     20  C   UNL     1      34.544 -14.745 -21.506  0.00  0.00    +0.063 C 
ATOM     21  C   UNL     1      33.693 -15.659 -26.250  0.00  0.00    +0.074 C 
ENDBRANCH  10  17
BRANCH   9  24
ATOM     22  O   UNL     1      33.244  -4.840 -24.368  0.00  0.00    -0.251 OA
ATOM     23  N   UNL     1      34.770  -5.889 -25.752  0.00  0.00    -0.231 N 
ATOM     24  N   UNL     1      33.904  -7.060 -23.986  0.00  0.00    -0.267 N 
ATOM     25  C   UNL     1      33.901  -5.835 -24.662  0.00  0.00    +0.318 C 
ATOM     26  H   UNL     1      35.275  -6.712 -25.948  0.00  0.00    +0.171 HD
ATOM     27  H   UNL     1      34.491  -7.757 -24.358  0.00  0.00    +0.156 HD
BRANCH  23  29
ATOM     28  N   UNL     1      35.349  -3.510 -29.115  0.00  0.00    +0.387 N 
ATOM     29  N   UNL     1      34.913  -4.775 -26.557  0.00  0.00    -0.209 NA
ATOM     30  C   UNL     1      34.021  -3.522 -28.488  0.00  0.00    -0.058 C 
ATOM     31  C   UNL     1      36.402  -3.543 -28.092  0.00  0.00    -0.058 C 
ATOM     32  C   UNL     1      33.860  -4.744 -27.577  0.00  0.00    +0.069 C 
ATOM     33  C   UNL     1      36.240  -4.764 -27.181  0.00  0.00    +0.069 C 
ATOM     34  C   UNL     1      35.503  -2.344 -29.982  0.00  0.00    -0.101 C 
ATOM     35  H   UNL     1      35.439  -4.346 -29.694  0.00  0.00    -0.080 HD
ENDBRANCH  23  29
ENDBRANCH   9  24
TORSDOF 3
ENDMDL
MODEL 8
REMARK VINA RESULT:      -8.2      4.151      8.987
REMARK  Name = 5288018
REMARK  3 active torsions:
REMARK  status: ('A' for Active; 'I' for Inactive)
REMARK    1  A    between atoms: C_9  and  N_24
REMARK    2  A    between atoms: C_10  and  C_17
REMARK    3  A    between atoms: N_23  and  N_29
REMARK                            x       y       z     vdW  Elec       q    Type
REMARK                         _______ _______ _______ _____ _____    ______ ____
ROOT
ATOM      1  O   UNL     1      33.910  -6.540 -24.768  0.00  0.00    -0.286 OA
ATOM      2  N   UNL     1      30.527  -5.327 -22.124  0.00  0.00    -0.278 N 
ATOM      3  N   UNL     1      30.465  -4.140 -22.791  0.00  0.00    -0.173 NA
ATOM      4  C   UNL     1      33.065  -4.299 -25.297  0.00  0.00    +0.054 C 
ATOM      5  C   UNL     1      32.104  -5.513 -23.590  0.00  0.00    +0.072 A 
ATOM      6  C   UNL     1      32.022  -3.512 -24.735  0.00  0.00    +0.024 C 
ATOM      7  C   UNL     1      31.439  -4.282 -23.678  0.00  0.00    +0.105 A 
ATOM      8  C   UNL     1      33.148  -5.615 -24.572  0.00  0.00    +0.199 C 
ATOM      9  C   UNL     1      33.818  -3.833 -26.337  0.00  0.00    +0.055 C 
ATOM     10  C   UNL     1      31.505  -6.190 -22.575  0.00  0.00    +0.073 A 
ATOM     11  C   UNL     1      31.728  -2.256 -25.213  0.00  0.00    +0.002 C 
ATOM     12  C   UNL     1      33.540  -2.568 -26.837  0.00  0.00    +0.015 C 
ATOM     13  C   UNL     1      32.504  -1.786 -26.278  0.00  0.00    +0.001 C 
ATOM     14  H   UNL     1      29.921  -5.551 -21.381  0.00  0.00    +0.189 HD
ENDROOT
BRANCH  10  17
ATOM     15  S   UNL     1      31.372  -8.904 -22.895  0.00  0.00    -0.075 S 
ATOM     16  N   UNL     1      32.368  -9.157 -20.523  0.00  0.00    -0.407 NA
ATOM     17  C   UNL     1      31.737  -7.469 -22.024  0.00  0.00    +0.141 C 
ATOM     18  C   UNL     1      32.257  -7.807 -20.788  0.00  0.00    +0.103 C 
ATOM     19  C   UNL     1      31.931  -9.831 -21.564  0.00  0.00    +0.135 C 
ATOM     20  C   UNL     1      32.698  -6.862 -19.739  0.00  0.00    +0.063 C 
ATOM     21  C   UNL     1      31.895 -11.307 -21.651  0.00  0.00    +0.074 C 
ENDBRANCH  10  17
BRANCH   9  24
ATOM     22  O   UNL     1      36.444  -2.982 -27.513  0.00  0.00    -0.251 OA
ATOM     23  N   UNL     1      36.822  -5.231 -27.902  0.00  0.00    -0.231 N 
ATOM     24  N   UNL     1      34.858  -4.602 -26.906  0.00  0.00    -0.267 N 
ATOM     25  C   UNL     1      36.068  -4.150 -27.442  0.00  0.00    +0.318 C 
ATOM     26  H   UNL     1      36.475  -6.149 -27.823  0.00  0.00    +0.171 HD
ATOM     27  H   UNL     1      34.713  -5.576 -26.929  0.00  0.00    +0.156 HD
BRANCH  23  29
ATOM     28  N   UNL     1      40.819  -5.689 -28.958  0.00  0.00    +0.387 N 
ATOM     29  N   UNL     1      38.059  -4.997 -28.472  0.00  0.00    -0.209 NA
ATOM     30  C   UNL     1      39.798  -5.853 -30.000  0.00  0.00    -0.058 C 
ATOM     31  C   UNL     1      40.456  -4.593 -28.050  0.00  0.00    -0.058 C 
ATOM     32  C   UNL     1      38.417  -6.092 -29.378  0.00  0.00    +0.069 C 
ATOM     33  C   UNL     1      39.077  -4.832 -27.430  0.00  0.00    +0.069 C 
ATOM     34  C   UNL     1      42.134  -5.458 -29.552  0.00  0.00    -0.101 C 
ATOM     35  H   UNL     1      40.865  -6.552 -28.416  0.00  0.00    -0.080 HD
ENDBRANCH  23  29
ENDBRANCH   9  24
TORSDOF 3
ENDMDL
