MODEL 1
REMARK VINA RESULT:     -11.1      0.000      0.000
REMARK  Name = 445841
REMARK  2 active torsions:
REMARK  status: ('A' for Active; 'I' for Inactive)
REMARK    1  A    between atoms: N_2  and  C_22
REMARK    2  A    between atoms: C_6  and  C_27
REMARK                            x       y       z     vdW  Elec       q    Type
REMARK                         _______ _______ _______ _____ _____    ______ ____
ROOT
ATOM      1  O   UNL     1      33.804 -20.703 -21.025  0.00  0.00    -0.252 OA
ATOM      2  N   UNL     1      35.633 -19.631 -22.019  0.00  0.00    -0.268 N 
ATOM      3  N   UNL     1      34.737 -22.758 -17.486  0.00  0.00    -0.241 N 
ATOM      4  N   UNL     1      35.932 -20.817 -20.059  0.00  0.00    -0.252 N 
ATOM      5  N   UNL     1      34.502 -22.082 -18.623  0.00  0.00    -0.166 NA
ATOM      6  C   UNL     1      36.036 -22.711 -17.074  0.00  0.00    +0.026 C 
ATOM      7  C   UNL     1      36.698 -21.952 -18.008  0.00  0.00    +0.046 C 
ATOM      8  C   UNL     1      35.701 -21.601 -18.923  0.00  0.00    +0.154 C 
ATOM      9  C   UNL     1      34.997 -20.418 -21.026  0.00  0.00    +0.309 C 
ATOM     10  H   UNL     1      36.599 -19.484 -21.891  0.00  0.00    +0.156 HD
ATOM     11  H   UNL     1      34.035 -23.243 -16.994  0.00  0.00    +0.174 HD
ATOM     12  H   UNL     1      36.857 -20.509 -20.194  0.00  0.00    +0.158 HD
ENDROOT
BRANCH   2  22
ATOM     13  O   UNL     1      33.769 -14.867 -24.987  0.00  0.00    -0.270 OA
ATOM     14  N   UNL     1      34.863 -15.401 -22.969  0.00  0.00    -0.274 N 
ATOM     15  C   UNL     1      35.342 -16.599 -22.300  0.00  0.00    +0.100 C 
ATOM     16  C   UNL     1      34.669 -16.492 -20.940  0.00  0.00    +0.026 C 
ATOM     17  C   UNL     1      34.735 -14.980 -20.672  0.00  0.00    +0.024 C 
ATOM     18  C   UNL     1      34.507 -14.342 -22.046  0.00  0.00    +0.094 C 
ATOM     19  C   UNL     1      34.940 -17.666 -23.253  0.00  0.00    +0.014 C 
ATOM     20  C   UNL     1      34.395 -17.094 -24.410  0.00  0.00    +0.052 C 
ATOM     21  C   UNL     1      34.310 -15.638 -24.216  0.00  0.00    +0.249 C 
ATOM     22  C   UNL     1      35.077 -19.037 -23.150  0.00  0.00    +0.049 C 
ATOM     23  C   UNL     1      33.961 -17.851 -25.481  0.00  0.00    +0.004 C 
ATOM     24  C   UNL     1      34.649 -19.824 -24.225  0.00  0.00    +0.014 C 
ATOM     25  C   UNL     1      34.098 -19.235 -25.380  0.00  0.00    +0.001 C 
ENDBRANCH   2  22
BRANCH   6  27
ATOM     26  N   UNL     1      36.268 -22.588 -14.618  0.00  0.00    +0.388 N 
ATOM     27  C   UNL     1      36.509 -23.405 -15.817  0.00  0.00    -0.023 C 
ATOM     28  C   UNL     1      35.796 -24.738 -15.556  0.00  0.00    -0.018 C 
ATOM     29  C   UNL     1      35.217 -24.605 -14.155  0.00  0.00    -0.025 C 
ATOM     30  C   UNL     1      36.067 -23.525 -13.518  0.00  0.00    -0.081 C 
ATOM     31  H   UNL     1      35.437 -22.009 -14.744  0.00  0.00    -0.084 HD
ATOM     32  H   UNL     1      37.051 -21.960 -14.432  0.00  0.00    -0.084 HD
ENDBRANCH   6  27
TORSDOF 2
ENDMDL
MODEL 2
REMARK VINA RESULT:     -10.6      2.794     10.024
REMARK  Name = 445841
REMARK  2 active torsions:
REMARK  status: ('A' for Active; 'I' for Inactive)
REMARK    1  A    between atoms: N_2  and  C_22
REMARK    2  A    between atoms: C_6  and  C_27
REMARK                            x       y       z     vdW  Elec       q    Type
REMARK                         _______ _______ _______ _____ _____    ______ ____
ROOT
ATOM      1  O   UNL     1      32.316 -22.002 -18.376  0.00  0.00    -0.252 OA
ATOM      2  N   UNL     1      34.173 -22.879 -17.250  0.00  0.00    -0.268 N 
ATOM      3  N   UNL     1      33.270 -19.897 -21.879  0.00  0.00    -0.241 N 
ATOM      4  N   UNL     1      34.480 -21.687 -19.205  0.00  0.00    -0.252 N 
ATOM      5  N   UNL     1      33.030 -20.583 -20.749  0.00  0.00    -0.166 NA
ATOM      6  C   UNL     1      34.592 -19.819 -22.206  0.00  0.00    +0.026 C 
ATOM      7  C   UNL     1      35.263 -20.501 -21.221  0.00  0.00    +0.046 C 
ATOM      8  C   UNL     1      34.248 -20.940 -20.366  0.00  0.00    +0.154 C 
ATOM      9  C   UNL     1      33.528 -22.168 -18.293  0.00  0.00    +0.309 C 
ATOM     10  H   UNL     1      35.155 -22.931 -17.314  0.00  0.00    +0.156 HD
ATOM     11  H   UNL     1      32.558 -19.489 -22.422  0.00  0.00    +0.174 HD
ATOM     12  H   UNL     1      35.421 -21.900 -19.006  0.00  0.00    +0.158 HD
ENDROOT
BRANCH   2  22
ATOM     13  O   UNL     1      34.561 -25.126 -11.793  0.00  0.00    -0.270 OA
ATOM     14  N   UNL     1      35.883 -23.920 -13.329  0.00  0.00    -0.274 N 
ATOM     15  C   UNL     1      35.722 -23.348 -14.655  0.00  0.00    +0.100 C 
ATOM     16  C   UNL     1      36.888 -23.968 -15.410  0.00  0.00    +0.026 C 
ATOM     17  C   UNL     1      37.991 -23.975 -14.340  0.00  0.00    +0.024 C 
ATOM     18  C   UNL     1      37.252 -24.295 -13.037  0.00  0.00    +0.094 C 
ATOM     19  C   UNL     1      34.325 -23.731 -14.988  0.00  0.00    +0.014 C 
ATOM     20  C   UNL     1      33.723 -24.355 -13.888  0.00  0.00    +0.052 C 
ATOM     21  C   UNL     1      34.734 -24.511 -12.829  0.00  0.00    +0.249 C 
ATOM     22  C   UNL     1      33.605 -23.514 -16.148  0.00  0.00    +0.049 C 
ATOM     23  C   UNL     1      32.413 -24.790 -13.904  0.00  0.00    +0.004 C 
ATOM     24  C   UNL     1      32.274 -23.942 -16.185  0.00  0.00    +0.014 C 
ATOM     25  C   UNL     1      31.683 -24.573 -15.073  0.00  0.00    +0.001 C 
ENDBRANCH   2  22
BRANCH   6  27
ATOM     26  N   UNL     1      33.995 -18.903 -24.422  0.00  0.00    +0.388 N 
ATOM     27  C   UNL     1      35.075 -19.093 -23.441  0.00  0.00    -0.023 C 
ATOM     28  C   UNL     1      35.614 -17.687 -23.146  0.00  0.00    -0.018 C 
ATOM     29  C   UNL     1      34.809 -16.763 -24.046  0.00  0.00    -0.025 C 
ATOM     30  C   UNL     1      34.312 -17.677 -25.146  0.00  0.00    -0.081 C 
ATOM     31  H   UNL     1      33.097 -18.810 -23.946  0.00  0.00    -0.084 HD
ATOM     32  H   UNL     1      33.922 -19.701 -25.055  0.00  0.00    -0.084 HD
ENDBRANCH   6  27
TORSDOF 2
ENDMDL
MODEL 3
REMARK VINA RESULT:     -10.0      3.288      9.869
REMARK  Name = 445841
REMARK  2 active torsions:
REMARK  status: ('A' for Active; 'I' for Inactive)
REMARK    1  A    between atoms: N_2  and  C_22
REMARK    2  A    between atoms: C_6  and  C_27
REMARK                            x       y       z     vdW  Elec       q    Type
REMARK                         _______ _______ _______ _____ _____    ______ ____
ROOT
ATOM      1  O   UNL     1      36.129 -21.652 -17.857  0.00  0.00    -0.252 OA
ATOM      2  N   UNL     1      34.088 -22.785 -17.669  0.00  0.00    -0.268 N 
ATOM      3  N   UNL     1      36.542 -19.438 -21.399  0.00  0.00    -0.241 N 
ATOM      4  N   UNL     1      34.515 -21.504 -19.544  0.00  0.00    -0.252 N 
ATOM      5  N   UNL     1      36.349 -20.165 -20.285  0.00  0.00    -0.166 NA
ATOM      6  C   UNL     1      35.491 -19.469 -22.267  0.00  0.00    +0.026 C 
ATOM      7  C   UNL     1      34.544 -20.274 -21.681  0.00  0.00    +0.046 C 
ATOM      8  C   UNL     1      35.135 -20.663 -20.476  0.00  0.00    +0.154 C 
ATOM      9  C   UNL     1      35.030 -21.944 -18.315  0.00  0.00    +0.309 C 
ATOM     10  H   UNL     1      33.245 -22.932 -18.156  0.00  0.00    +0.156 HD
ATOM     11  H   UNL     1      37.366 -18.928 -21.572  0.00  0.00    +0.174 HD
ATOM     12  H   UNL     1      33.613 -21.823 -19.778  0.00  0.00    +0.158 HD
ENDROOT
BRANCH   2  22
ATOM     13  O   UNL     1      31.664 -25.545 -13.034  0.00  0.00    -0.270 OA
ATOM     14  N   UNL     1      31.027 -24.672 -15.129  0.00  0.00    -0.274 N 
ATOM     15  C   UNL     1      31.678 -24.036 -16.262  0.00  0.00    +0.100 C 
ATOM     16  C   UNL     1      30.869 -22.757 -16.414  0.00  0.00    +0.026 C 
ATOM     17  C   UNL     1      29.446 -23.242 -16.091  0.00  0.00    +0.024 C 
ATOM     18  C   UNL     1      29.643 -24.272 -14.975  0.00  0.00    +0.094 C 
ATOM     19  C   UNL     1      33.093 -23.977 -15.811  0.00  0.00    +0.014 C 
ATOM     20  C   UNL     1      33.233 -24.638 -14.584  0.00  0.00    +0.052 C 
ATOM     21  C   UNL     1      31.899 -25.056 -14.124  0.00  0.00    +0.249 C 
ATOM     22  C   UNL     1      34.196 -23.431 -16.439  0.00  0.00    +0.049 C 
ATOM     23  C   UNL     1      34.448 -24.766 -13.941  0.00  0.00    +0.004 C 
ATOM     24  C   UNL     1      35.439 -23.552 -15.810  0.00  0.00    +0.014 C 
ATOM     25  C   UNL     1      35.564 -24.215 -14.573  0.00  0.00    +0.001 C 
ENDBRANCH   2  22
BRANCH   6  27
ATOM     26  N   UNL     1      34.270 -18.935 -24.348  0.00  0.00    +0.388 N 
ATOM     27  C   UNL     1      35.505 -18.716 -23.578  0.00  0.00    -0.023 C 
ATOM     28  C   UNL     1      35.615 -17.196 -23.402  0.00  0.00    -0.018 C 
ATOM     29  C   UNL     1      34.420 -16.627 -24.152  0.00  0.00    -0.025 C 
ATOM     30  C   UNL     1      34.057 -17.723 -25.132  0.00  0.00    -0.081 C 
ATOM     31  H   UNL     1      33.483 -19.090 -23.717  0.00  0.00    -0.084 HD
ATOM     32  H   UNL     1      34.346 -19.757 -24.947  0.00  0.00    -0.084 HD
ENDBRANCH   6  27
TORSDOF 2
ENDMDL
MODEL 4
REMARK VINA RESULT:      -9.6      2.692      4.781
REMARK  Name = 445841
REMARK  2 active torsions:
REMARK  status: ('A' for Active; 'I' for Inactive)
REMARK    1  A    between atoms: N_2  and  C_22
REMARK    2  A    between atoms: C_6  and  C_27
REMARK                            x       y       z     vdW  Elec       q    Type
REMARK                         _______ _______ _______ _____ _____    ______ ____
ROOT
ATOM      1  O   UNL     1      35.721 -15.726 -23.082  0.00  0.00    -0.252 OA
ATOM      2  N   UNL     1      33.734 -15.898 -24.310  0.00  0.00    -0.268 N 
ATOM      3  N   UNL     1      36.630 -19.133 -20.806  0.00  0.00    -0.241 N 
ATOM      4  N   UNL     1      34.419 -17.667 -22.992  0.00  0.00    -0.252 N 
ATOM      5  N   UNL     1      36.284 -18.073 -21.557  0.00  0.00    -0.166 NA
ATOM      6  C   UNL     1      35.751 -20.173 -20.881  0.00  0.00    +0.026 C 
ATOM      7  C   UNL     1      34.759 -19.764 -21.740  0.00  0.00    +0.046 C 
ATOM      8  C   UNL     1      35.149 -18.475 -22.113  0.00  0.00    +0.154 C 
ATOM      9  C   UNL     1      34.733 -16.368 -23.421  0.00  0.00    +0.309 C 
ATOM     10  H   UNL     1      32.996 -16.524 -24.491  0.00  0.00    +0.156 HD
ATOM     11  H   UNL     1      37.444 -19.158 -20.254  0.00  0.00    +0.174 HD
ATOM     12  H   UNL     1      33.588 -18.056 -23.352  0.00  0.00    +0.158 HD
ENDROOT
BRANCH   2  22
ATOM     13  O   UNL     1      32.980 -10.032 -24.244  0.00  0.00    -0.270 OA
ATOM     14  N   UNL     1      33.179 -11.826 -22.729  0.00  0.00    -0.274 N 
ATOM     15  C   UNL     1      33.410 -13.259 -22.797  0.00  0.00    +0.100 C 
ATOM     16  C   UNL     1      32.233 -13.807 -22.003  0.00  0.00    +0.026 C 
ATOM     17  C   UNL     1      32.096 -12.766 -20.881  0.00  0.00    +0.024 C 
ATOM     18  C   UNL     1      32.415 -11.431 -21.562  0.00  0.00    +0.094 C 
ATOM     19  C   UNL     1      33.496 -13.488 -24.263  0.00  0.00    +0.014 C 
ATOM     20  C   UNL     1      33.442 -12.264 -24.943  0.00  0.00    +0.052 C 
ATOM     21  C   UNL     1      33.201 -11.195 -23.960  0.00  0.00    +0.249 C 
ATOM     22  C   UNL     1      33.657 -14.669 -24.963  0.00  0.00    +0.049 C 
ATOM     23  C   UNL     1      33.530 -12.172 -26.318  0.00  0.00    +0.004 C 
ATOM     24  C   UNL     1      33.755 -14.599 -26.356  0.00  0.00    +0.014 C 
ATOM     25  C   UNL     1      33.693 -13.362 -27.027  0.00  0.00    +0.001 C 
ENDBRANCH   2  22
BRANCH   6  27
ATOM     26  N   UNL     1      36.631 -21.229 -18.829  0.00  0.00    +0.388 N 
ATOM     27  C   UNL     1      35.956 -21.460 -20.116  0.00  0.00    -0.023 C 
ATOM     28  C   UNL     1      34.644 -22.175 -19.769  0.00  0.00    -0.018 C 
ATOM     29  C   UNL     1      34.682 -22.354 -18.259  0.00  0.00    -0.025 C 
ATOM     30  C   UNL     1      36.158 -22.273 -17.926  0.00  0.00    -0.081 C 
ATOM     31  H   UNL     1      36.388 -20.309 -18.462  0.00  0.00    -0.084 HD
ATOM     32  H   UNL     1      37.646 -21.257 -18.930  0.00  0.00    -0.084 HD
ENDBRANCH   6  27
TORSDOF 2
ENDMDL
MODEL 5
REMARK VINA RESULT:      -9.5      2.632      9.638
REMARK  Name = 445841
REMARK  2 active torsions:
REMARK  status: ('A' for Active; 'I' for Inactive)
REMARK    1  A    between atoms: N_2  and  C_22
REMARK    2  A    between atoms: C_6  and  C_27
REMARK                            x       y       z     vdW  Elec       q    Type
REMARK                         _______ _______ _______ _____ _____    ______ ____
ROOT
ATOM      1  O   UNL     1      36.843 -20.293 -19.468  0.00  0.00    -0.252 OA
ATOM      2  N   UNL     1      35.217 -21.886 -18.921  0.00  0.00    -0.268 N 
ATOM      3  N   UNL     1      36.114 -18.267 -23.072  0.00  0.00    -0.241 N 
ATOM      4  N   UNL     1      35.002 -20.657 -20.865  0.00  0.00    -0.252 N 
ATOM      5  N   UNL     1      36.291 -18.950 -21.927  0.00  0.00    -0.166 NA
ATOM      6  C   UNL     1      34.984 -18.614 -23.752  0.00  0.00    +0.026 C 
ATOM      7  C   UNL     1      34.380 -19.593 -23.001  0.00  0.00    +0.046 C 
ATOM      8  C   UNL     1      35.231 -19.747 -21.903  0.00  0.00    +0.154 C 
ATOM      9  C   UNL     1      35.798 -20.878 -19.730  0.00  0.00    +0.309 C 
ATOM     10  H   UNL     1      34.374 -22.270 -19.257  0.00  0.00    +0.156 HD
ATOM     11  H   UNL     1      36.742 -17.579 -23.389  0.00  0.00    +0.174 HD
ATOM     12  H   UNL     1      34.187 -21.205 -20.939  0.00  0.00    +0.158 HD
ENDROOT
BRANCH   2  22
ATOM     13  O   UNL     1      34.327 -24.834 -13.871  0.00  0.00    -0.270 OA
ATOM     14  N   UNL     1      33.164 -24.274 -15.843  0.00  0.00    -0.274 N 
ATOM     15  C   UNL     1      33.447 -23.577 -17.086  0.00  0.00    +0.100 C 
ATOM     16  C   UNL     1      32.336 -22.537 -17.126  0.00  0.00    +0.026 C 
ATOM     17  C   UNL     1      31.147 -23.322 -16.549  0.00  0.00    +0.024 C 
ATOM     18  C   UNL     1      31.768 -24.203 -15.460  0.00  0.00    +0.094 C 
ATOM     19  C   UNL     1      34.858 -23.157 -16.890  0.00  0.00    +0.014 C 
ATOM     20  C   UNL     1      35.353 -23.686 -15.691  0.00  0.00    +0.052 C 
ATOM     21  C   UNL     1      34.254 -24.375 -14.996  0.00  0.00    +0.249 C 
ATOM     22  C   UNL     1      35.678 -22.408 -17.713  0.00  0.00    +0.049 C 
ATOM     23  C   UNL     1      36.651 -23.481 -15.267  0.00  0.00    +0.004 C 
ATOM     24  C   UNL     1      36.999 -22.192 -17.307  0.00  0.00    +0.014 C 
ATOM     25  C   UNL     1      37.481 -22.725 -16.095  0.00  0.00    +0.001 C 
ENDBRANCH   2  22
BRANCH   6  27
ATOM     26  N   UNL     1      33.167 -18.131 -25.355  0.00  0.00    +0.388 N 
ATOM     27  C   UNL     1      34.599 -17.964 -25.061  0.00  0.00    -0.023 C 
ATOM     28  C   UNL     1      34.848 -16.450 -25.082  0.00  0.00    -0.018 C 
ATOM     29  C   UNL     1      33.505 -15.837 -25.447  0.00  0.00    -0.025 C 
ATOM     30  C   UNL     1      32.772 -16.967 -26.140  0.00  0.00    -0.081 C 
ATOM     31  H   UNL     1      32.630 -18.171 -24.488  0.00  0.00    -0.084 HD
ATOM     32  H   UNL     1      32.990 -18.999 -25.862  0.00  0.00    -0.084 HD
ENDBRANCH   6  27
TORSDOF 2
ENDMDL
MODEL 6
REMARK VINA RESULT:      -9.5      2.809     10.263
REMARK  Name = 445841
REMARK  2 active torsions:
REMARK  status: ('A' for Active; 'I' for Inactive)
REMARK    1  A    between atoms: N_2  and  C_22
REMARK    2  A    between atoms: C_6  and  C_27
REMARK                            x       y       z     vdW  Elec       q    Type
REMARK                         _______ _______ _______ _____ _____    ______ ____
ROOT
ATOM      1  O   UNL     1      33.092 -22.380 -17.789  0.00  0.00    -0.252 OA
ATOM      2  N   UNL     1      35.070 -22.952 -16.674  0.00  0.00    -0.268 N 
ATOM      3  N   UNL     1      33.691 -20.310 -21.391  0.00  0.00    -0.241 N 
ATOM      4  N   UNL     1      35.179 -21.810 -18.679  0.00  0.00    -0.252 N 
ATOM      5  N   UNL     1      33.565 -20.975 -20.230  0.00  0.00    -0.166 NA
ATOM      6  C   UNL     1      34.983 -20.068 -21.751  0.00  0.00    +0.026 C 
ATOM      7  C   UNL     1      35.758 -20.612 -20.756  0.00  0.00    +0.046 C 
ATOM      8  C   UNL     1      34.827 -21.149 -19.862  0.00  0.00    +0.154 C 
ATOM      9  C   UNL     1      34.317 -22.377 -17.729  0.00  0.00    +0.309 C 
ATOM     10  H   UNL     1      36.049 -22.873 -16.758  0.00  0.00    +0.156 HD
ATOM     11  H   UNL     1      32.920 -20.024 -21.933  0.00  0.00    +0.174 HD
ATOM     12  H   UNL     1      36.143 -21.886 -18.494  0.00  0.00    +0.158 HD
ENDROOT
BRANCH   2  22
ATOM     13  O   UNL     1      36.052 -25.695 -11.528  0.00  0.00    -0.270 OA
ATOM     14  N   UNL     1      37.248 -24.518 -13.183  0.00  0.00    -0.274 N 
ATOM     15  C   UNL     1      36.948 -23.817 -14.420  0.00  0.00    +0.100 C 
ATOM     16  C   UNL     1      37.888 -24.498 -15.404  0.00  0.00    +0.026 C 
ATOM     17  C   UNL     1      39.141 -24.722 -14.542  0.00  0.00    +0.024 C 
ATOM     18  C   UNL     1      38.588 -25.069 -13.156  0.00  0.00    +0.094 C 
ATOM     19  C   UNL     1      35.479 -24.009 -14.534  0.00  0.00    +0.014 C 
ATOM     20  C   UNL     1      34.989 -24.654 -13.391  0.00  0.00    +0.052 C 
ATOM     21  C   UNL     1      36.131 -25.015 -12.535  0.00  0.00    +0.249 C 
ATOM     22  C   UNL     1      34.613 -23.612 -15.536  0.00  0.00    +0.049 C 
ATOM     23  C   UNL     1      33.650 -24.936 -13.211  0.00  0.00    +0.004 C 
ATOM     24  C   UNL     1      33.250 -23.882 -15.373  0.00  0.00    +0.014 C 
ATOM     25  C   UNL     1      32.773 -24.536 -14.220  0.00  0.00    +0.001 C 
ENDBRANCH   2  22
BRANCH   6  27
ATOM     26  N   UNL     1      34.171 -19.142 -23.893  0.00  0.00    +0.388 N 
ATOM     27  C   UNL     1      35.342 -19.335 -23.024  0.00  0.00    -0.023 C 
ATOM     28  C   UNL     1      35.905 -17.929 -22.775  0.00  0.00    -0.018 C 
ATOM     29  C   UNL     1      35.014 -17.002 -23.588  0.00  0.00    -0.025 C 
ATOM     30  C   UNL     1      34.413 -17.912 -24.639  0.00  0.00    -0.081 C 
ATOM     31  H   UNL     1      33.324 -19.054 -23.331  0.00  0.00    -0.084 HD
ATOM     32  H   UNL     1      34.038 -19.937 -24.520  0.00  0.00    -0.084 HD
ENDBRANCH   6  27
TORSDOF 2
ENDMDL
MODEL 7
REMARK VINA RESULT:      -9.4      5.460     11.585
REMARK  Name = 445841
REMARK  2 active torsions:
REMARK  status: ('A' for Active; 'I' for Inactive)
REMARK    1  A    between atoms: N_2  and  C_22
REMARK    2  A    between atoms: C_6  and  C_27
REMARK                            x       y       z     vdW  Elec       q    Type
REMARK                         _______ _______ _______ _____ _____    ______ ____
ROOT
ATOM      1  O   UNL     1      32.404 -12.969 -21.468  0.00  0.00    -0.252 OA
ATOM      2  N   UNL     1      34.369 -13.563 -22.595  0.00  0.00    -0.268 N 
ATOM      3  N   UNL     1      30.930  -9.171 -22.478  0.00  0.00    -0.241 N 
ATOM      4  N   UNL     1      33.391 -11.512 -23.010  0.00  0.00    -0.252 N 
ATOM      5  N   UNL     1      31.452 -10.378 -22.198  0.00  0.00    -0.166 NA
ATOM      6  C   UNL     1      31.641  -8.464 -23.402  0.00  0.00    +0.026 C 
ATOM      7  C   UNL     1      32.703  -9.262 -23.750  0.00  0.00    +0.046 C 
ATOM      8  C   UNL     1      32.524 -10.413 -22.977  0.00  0.00    +0.154 C 
ATOM      9  C   UNL     1      33.290 -12.702 -22.274  0.00  0.00    +0.309 C 
ATOM     10  H   UNL     1      35.007 -13.216 -23.261  0.00  0.00    +0.156 HD
ATOM     11  H   UNL     1      30.108  -8.830 -22.056  0.00  0.00    +0.174 HD
ATOM     12  H   UNL     1      34.160 -11.441 -23.621  0.00  0.00    +0.158 HD
ENDROOT
BRANCH   2  22
ATOM     13  O   UNL     1      35.140 -19.377 -23.358  0.00  0.00    -0.270 OA
ATOM     14  N   UNL     1      34.781 -17.437 -24.647  0.00  0.00    -0.274 N 
ATOM     15  C   UNL     1      34.641 -16.010 -24.410  0.00  0.00    +0.100 C 
ATOM     16  C   UNL     1      33.317 -15.704 -25.096  0.00  0.00    +0.026 C 
ATOM     17  C   UNL     1      33.384 -16.614 -26.333  0.00  0.00    +0.024 C 
ATOM     18  C   UNL     1      34.075 -17.886 -25.830  0.00  0.00    +0.094 C 
ATOM     19  C   UNL     1      34.754 -15.931 -22.931  0.00  0.00    +0.014 C 
ATOM     20  C   UNL     1      35.056 -17.193 -22.405  0.00  0.00    +0.052 C 
ATOM     21  C   UNL     1      35.038 -18.173 -23.503  0.00  0.00    +0.249 C 
ATOM     22  C   UNL     1      34.649 -14.834 -22.097  0.00  0.00    +0.049 C 
ATOM     23  C   UNL     1      35.247 -17.411 -21.055  0.00  0.00    +0.004 C 
ATOM     24  C   UNL     1      34.845 -15.029 -20.725  0.00  0.00    +0.014 C 
ATOM     25  C   UNL     1      35.142 -16.306 -20.210  0.00  0.00    +0.001 C 
ENDBRANCH   2  22
BRANCH   6  27
ATOM     26  N   UNL     1      30.749  -6.257 -22.737  0.00  0.00    +0.388 N 
ATOM     27  C   UNL     1      31.222  -7.085 -23.858  0.00  0.00    -0.023 C 
ATOM     28  C   UNL     1      32.362  -6.288 -24.505  0.00  0.00    -0.018 C 
ATOM     29  C   UNL     1      32.434  -4.992 -23.710  0.00  0.00    -0.025 C 
ATOM     30  C   UNL     1      31.057  -4.876 -23.090  0.00  0.00    -0.081 C 
ATOM     31  H   UNL     1      31.233  -6.518 -21.877  0.00  0.00    -0.084 HD
ATOM     32  H   UNL     1      29.750  -6.386 -22.575  0.00  0.00    -0.084 HD
ENDBRANCH   6  27
TORSDOF 2
ENDMDL
MODEL 8
REMARK VINA RESULT:      -9.3      2.770      9.925
REMARK  Name = 445841
REMARK  2 active torsions:
REMARK  status: ('A' for Active; 'I' for Inactive)
REMARK    1  A    between atoms: N_2  and  C_22
REMARK    2  A    between atoms: C_6  and  C_27
REMARK                            x       y       z     vdW  Elec       q    Type
REMARK                         _______ _______ _______ _____ _____    ______ ____
ROOT
ATOM      1  O   UNL     1      37.243 -20.910 -17.646  0.00  0.00    -0.252 OA
ATOM      2  N   UNL     1      35.740 -22.682 -17.356  0.00  0.00    -0.268 N 
ATOM      3  N   UNL     1      36.840 -18.902 -21.310  0.00  0.00    -0.241 N 
ATOM      4  N   UNL     1      35.683 -21.444 -19.305  0.00  0.00    -0.252 N 
ATOM      5  N   UNL     1      36.919 -19.585 -20.155  0.00  0.00    -0.166 NA
ATOM      6  C   UNL     1      35.870 -19.356 -22.153  0.00  0.00    +0.026 C 
ATOM      7  C   UNL     1      35.272 -20.410 -21.506  0.00  0.00    +0.046 C 
ATOM      8  C   UNL     1      35.962 -20.493 -20.294  0.00  0.00    +0.154 C 
ATOM      9  C   UNL     1      36.320 -21.600 -18.065  0.00  0.00    +0.309 C 
ATOM     10  H   UNL     1      35.005 -23.148 -17.817  0.00  0.00    +0.156 HD
ATOM     11  H   UNL     1      37.428 -18.143 -21.526  0.00  0.00    +0.174 HD
ATOM     12  H   UNL     1      34.954 -22.076 -19.503  0.00  0.00    +0.158 HD
ENDROOT
BRANCH   2  22
ATOM     13  O   UNL     1      34.226 -25.110 -12.180  0.00  0.00    -0.270 OA
ATOM     14  N   UNL     1      33.239 -24.535 -14.241  0.00  0.00    -0.274 N 
ATOM     15  C   UNL     1      33.671 -23.975 -15.511  0.00  0.00    +0.100 C 
ATOM     16  C   UNL     1      32.723 -22.796 -15.675  0.00  0.00    +0.026 C 
ATOM     17  C   UNL     1      31.410 -23.365 -15.111  0.00  0.00    +0.024 C 
ATOM     18  C   UNL     1      31.853 -24.244 -13.937  0.00  0.00    +0.094 C 
ATOM     19  C   UNL     1      35.119 -23.743 -15.269  0.00  0.00    +0.014 C 
ATOM     20  C   UNL     1      35.482 -24.248 -14.014  0.00  0.00    +0.052 C 
ATOM     21  C   UNL     1      34.267 -24.727 -13.334  0.00  0.00    +0.249 C 
ATOM     22  C   UNL     1      36.070 -23.175 -16.095  0.00  0.00    +0.049 C 
ATOM     23  C   UNL     1      36.777 -24.197 -13.537  0.00  0.00    +0.004 C 
ATOM     24  C   UNL     1      37.390 -23.117 -15.635  0.00  0.00    +0.014 C 
ATOM     25  C   UNL     1      37.740 -23.624 -14.369  0.00  0.00    +0.001 C 
ENDBRANCH   2  22
BRANCH   6  27
ATOM     26  N   UNL     1      34.271 -19.041 -24.010  0.00  0.00    +0.388 N 
ATOM     27  C   UNL     1      35.615 -18.724 -23.503  0.00  0.00    -0.023 C 
ATOM     28  C   UNL     1      35.695 -17.192 -23.480  0.00  0.00    -0.018 C 
ATOM     29  C   UNL     1      34.361 -16.722 -24.041  0.00  0.00    -0.025 C 
ATOM     30  C   UNL     1      33.870 -17.910 -24.841  0.00  0.00    -0.081 C 
ATOM     31  H   UNL     1      33.618 -19.157 -23.235  0.00  0.00    -0.084 HD
ATOM     32  H   UNL     1      34.270 -19.912 -24.542  0.00  0.00    -0.084 HD
ENDBRANCH   6  27
TORSDOF 2
ENDMDL
MODEL 9
REMARK VINA RESULT:      -9.1      3.752      9.826
REMARK  Name = 445841
REMARK  2 active torsions:
REMARK  status: ('A' for Active; 'I' for Inactive)
REMARK    1  A    between atoms: N_2  and  C_22
REMARK    2  A    between atoms: C_6  and  C_27
REMARK                            x       y       z     vdW  Elec       q    Type
REMARK                         _______ _______ _______ _____ _____    ______ ____
ROOT
ATOM      1  O   UNL     1      33.288 -23.540 -18.184  0.00  0.00    -0.252 OA
ATOM      2  N   UNL     1      31.286 -22.537 -17.500  0.00  0.00    -0.268 N 
ATOM      3  N   UNL     1      35.452 -21.301 -20.999  0.00  0.00    -0.241 N 
ATOM      4  N   UNL     1      32.629 -21.467 -19.044  0.00  0.00    -0.252 N 
ATOM      5  N   UNL     1      34.713 -21.970 -20.097  0.00  0.00    -0.166 NA
ATOM      6  C   UNL     1      34.910 -20.110 -21.383  0.00  0.00    +0.026 C 
ATOM      7  C   UNL     1      33.733 -19.992 -20.684  0.00  0.00    +0.046 C 
ATOM      8  C   UNL     1      33.677 -21.161 -19.920  0.00  0.00    +0.154 C 
ATOM      9  C   UNL     1      32.491 -22.609 -18.242  0.00  0.00    +0.309 C 
ATOM     10  H   UNL     1      30.742 -21.729 -17.648  0.00  0.00    +0.156 HD
ATOM     11  H   UNL     1      36.307 -21.639 -21.350  0.00  0.00    +0.174 HD
ATOM     12  H   UNL     1      31.905 -20.801 -18.984  0.00  0.00    +0.158 HD
ENDROOT
BRANCH   2  22
ATOM     13  O   UNL     1      31.723 -25.739 -12.547  0.00  0.00    -0.270 OA
ATOM     14  N   UNL     1      32.917 -24.072 -13.709  0.00  0.00    -0.274 N 
ATOM     15  C   UNL     1      32.741 -23.278 -14.914  0.00  0.00    +0.100 C 
ATOM     16  C   UNL     1      34.032 -23.558 -15.668  0.00  0.00    +0.026 C 
ATOM     17  C   UNL     1      35.060 -23.614 -14.526  0.00  0.00    +0.024 C 
ATOM     18  C   UNL     1      34.310 -24.292 -13.375  0.00  0.00    +0.094 C 
ATOM     19  C   UNL     1      31.445 -23.789 -15.433  0.00  0.00    +0.014 C 
ATOM     20  C   UNL     1      30.891 -24.700 -14.524  0.00  0.00    +0.052 C 
ATOM     21  C   UNL     1      31.853 -24.912 -13.431  0.00  0.00    +0.249 C 
ATOM     22  C   UNL     1      30.766 -23.455 -16.589  0.00  0.00    +0.049 C 
ATOM     23  C   UNL     1      29.671 -25.312 -14.735  0.00  0.00    +0.004 C 
ATOM     24  C   UNL     1      29.526 -24.058 -16.821  0.00  0.00    +0.014 C 
ATOM     25  C   UNL     1      28.983 -24.977 -15.901  0.00  0.00    +0.001 C 
ENDBRANCH   2  22
BRANCH   6  27
ATOM     26  N   UNL     1      34.710 -18.913 -23.535  0.00  0.00    +0.388 N 
ATOM     27  C   UNL     1      35.583 -19.204 -22.387  0.00  0.00    -0.023 C 
ATOM     28  C   UNL     1      35.968 -17.836 -21.807  0.00  0.00    -0.018 C 
ATOM     29  C   UNL     1      35.303 -16.821 -22.725  0.00  0.00    -0.025 C 
ATOM     30  C   UNL     1      35.089 -17.588 -24.013  0.00  0.00    -0.081 C 
ATOM     31  H   UNL     1      33.732 -18.917 -23.244  0.00  0.00    -0.084 HD
ATOM     32  H   UNL     1      34.812 -19.616 -24.267  0.00  0.00    -0.084 HD
ENDBRANCH   6  27
TORSDOF 2
ENDMDL
