MODEL 1
REMARK VINA RESULT:     -11.5      0.000      0.000
REMARK  Name = 46937054
REMARK  4 active torsions:
REMARK  status: ('A' for Active; 'I' for Inactive)
REMARK    1  A    between atoms: C_5  and  C_18
REMARK    2  A    between atoms: C_11  and  O_19
REMARK    3  A    between atoms: O_19  and  C_20
REMARK    4  A    between atoms: C_20  and  C_22
REMARK                            x       y       z     vdW  Elec       q    Type
REMARK                         _______ _______ _______ _____ _____    ______ ____
ROOT
ATOM      1 CL   UNL     1      30.211 -23.529 -16.222  0.00  0.00    -0.047 Cl
ATOM      2  O   UNL     1      35.801 -22.932 -17.347  0.00  0.00    -0.263 OA
ATOM      3  N   UNL     1      34.157 -23.503 -15.793  0.00  0.00    -0.240 N 
ATOM      4  N   UNL     1      32.272 -23.109 -17.810  0.00  0.00    -0.351 NA
ATOM      5  C   UNL     1      34.941 -23.719 -14.576  0.00  0.00    +0.161 C 
ATOM      6  C   UNL     1      33.858 -23.944 -13.560  0.00  0.00    +0.057 C 
ATOM      7  C   UNL     1      32.807 -23.608 -15.536  0.00  0.00    +0.091 C 
ATOM      8  C   UNL     1      32.646 -23.893 -14.135  0.00  0.00    -0.005 C 
ATOM      9  C   UNL     1      34.641 -23.127 -17.024  0.00  0.00    +0.320 C 
ATOM     10  C   UNL     1      31.914 -23.417 -16.517  0.00  0.00    +0.206 C 
ATOM     11  C   UNL     1      33.538 -22.968 -18.043  0.00  0.00    +0.335 C 
ENDROOT
BRANCH   5  18
ATOM     12  O   UNL     1      35.337 -25.898 -15.450  0.00  0.00    -0.273 OA
ATOM     13  N   UNL     1      36.891 -25.062 -13.959  0.00  0.00    -0.278 N 
ATOM     14  C   UNL     1      37.415 -24.029 -13.070  0.00  0.00    +0.094 C 
ATOM     15  C   UNL     1      37.762 -26.228 -13.975  0.00  0.00    +0.094 C 
ATOM     16  C   UNL     1      38.531 -24.721 -12.300  0.00  0.00    +0.023 C 
ATOM     17  C   UNL     1      39.038 -25.760 -13.293  0.00  0.00    +0.023 C 
ATOM     18  C   UNL     1      35.733 -24.995 -14.712  0.00  0.00    +0.244 C 
ENDBRANCH   5  18
BRANCH  11  19
ATOM     19  O   UNL     1      34.001 -22.662 -19.264  0.00  0.00    -0.444 OA
BRANCH  19  20
ATOM     20  C   UNL     1      33.443 -21.475 -19.815  0.00  0.00    +0.235 C 
BRANCH  20  22
ATOM     21  F   UNL     1      37.556 -18.424 -22.151  0.00  0.00    -0.204 F 
ATOM     22  C   UNL     1      34.539 -20.662 -20.438  0.00  0.00    +0.021 C 
ATOM     23  C   UNL     1      34.231 -19.679 -21.378  0.00  0.00    +0.002 C 
ATOM     24  C   UNL     1      35.867 -20.889 -20.077  0.00  0.00    +0.002 C 
ATOM     25  C   UNL     1      35.250 -18.923 -21.957  0.00  0.00    +0.029 C 
ATOM     26  C   UNL     1      36.887 -20.132 -20.655  0.00  0.00    +0.029 C 
ATOM     27  C   UNL     1      36.578 -19.149 -21.596  0.00  0.00    +0.140 C 
ENDBRANCH  20  22
ENDBRANCH  19  20
ENDBRANCH  11  19
TORSDOF 4
ENDMDL
MODEL 2
REMARK VINA RESULT:     -10.8      2.584      4.922
REMARK  Name = 46937054
REMARK  4 active torsions:
REMARK  status: ('A' for Active; 'I' for Inactive)
REMARK    1  A    between atoms: C_5  and  C_18
REMARK    2  A    between atoms: C_11  and  O_19
REMARK    3  A    between atoms: O_19  and  C_20
REMARK    4  A    between atoms: C_20  and  C_22
REMARK                            x       y       z     vdW  Elec       q    Type
REMARK                         _______ _______ _______ _____ _____    ______ ____
ROOT
ATOM      1 CL   UNL     1      37.529 -23.190 -14.586  0.00  0.00    -0.047 Cl
ATOM      2  O   UNL     1      32.842 -23.464 -17.875  0.00  0.00    -0.263 OA
ATOM      3  N   UNL     1      33.781 -23.762 -15.761  0.00  0.00    -0.240 N 
ATOM      4  N   UNL     1      36.173 -22.783 -16.808  0.00  0.00    -0.351 NA
ATOM      5  C   UNL     1      32.670 -24.343 -15.005  0.00  0.00    +0.161 C 
ATOM      6  C   UNL     1      33.333 -24.658 -13.695  0.00  0.00    +0.057 C 
ATOM      7  C   UNL     1      34.928 -23.719 -14.997  0.00  0.00    +0.091 C 
ATOM      8  C   UNL     1      34.619 -24.277 -13.707  0.00  0.00    -0.005 C 
ATOM      9  C   UNL     1      33.771 -23.401 -17.087  0.00  0.00    +0.320 C 
ATOM     10  C   UNL     1      36.069 -23.244 -15.515  0.00  0.00    +0.206 C 
ATOM     11  C   UNL     1      35.108 -22.861 -17.539  0.00  0.00    +0.335 C 
ENDROOT
BRANCH   5  18
ATOM     12  O   UNL     1      31.881 -22.302 -14.065  0.00  0.00    -0.273 OA
ATOM     13  N   UNL     1      30.397 -23.509 -15.362  0.00  0.00    -0.278 N 
ATOM     14  C   UNL     1      30.031 -24.647 -16.200  0.00  0.00    +0.094 C 
ATOM     15  C   UNL     1      29.282 -22.586 -15.219  0.00  0.00    +0.094 C 
ATOM     16  C   UNL     1      28.521 -24.535 -16.354  0.00  0.00    +0.023 C 
ATOM     17  C   UNL     1      28.280 -23.032 -16.272  0.00  0.00    +0.023 C 
ATOM     18  C   UNL     1      31.624 -23.285 -14.763  0.00  0.00    +0.244 C 
ENDBRANCH   5  18
BRANCH  11  19
ATOM     19  O   UNL     1      35.095 -22.448 -18.815  0.00  0.00    -0.444 OA
BRANCH  19  20
ATOM     20  C   UNL     1      36.288 -21.792 -19.224  0.00  0.00    +0.235 C 
BRANCH  20  22
ATOM     21  F   UNL     1      34.990 -17.754 -22.924  0.00  0.00    -0.204 F 
ATOM     22  C   UNL     1      35.942 -20.715 -20.210  0.00  0.00    +0.021 C 
ATOM     23  C   UNL     1      36.917 -19.807 -20.622  0.00  0.00    +0.002 C 
ATOM     24  C   UNL     1      34.646 -20.623 -20.715  0.00  0.00    +0.002 C 
ATOM     25  C   UNL     1      36.596 -18.806 -21.539  0.00  0.00    +0.029 C 
ATOM     26  C   UNL     1      34.323 -19.622 -21.632  0.00  0.00    +0.029 C 
ATOM     27  C   UNL     1      35.299 -18.714 -22.044  0.00  0.00    +0.140 C 
ENDBRANCH  20  22
ENDBRANCH  19  20
ENDBRANCH  11  19
TORSDOF 4
ENDMDL
MODEL 3
REMARK VINA RESULT:     -10.6      6.873     11.740
REMARK  Name = 46937054
REMARK  4 active torsions:
REMARK  status: ('A' for Active; 'I' for Inactive)
REMARK    1  A    between atoms: C_5  and  C_18
REMARK    2  A    between atoms: C_11  and  O_19
REMARK    3  A    between atoms: O_19  and  C_20
REMARK    4  A    between atoms: C_20  and  C_22
REMARK                            x       y       z     vdW  Elec       q    Type
REMARK                         _______ _______ _______ _____ _____    ______ ____
ROOT
ATOM      1 CL   UNL     1      33.644 -17.718 -25.987  0.00  0.00    -0.047 Cl
ATOM      2  O   UNL     1      35.316 -14.784 -21.353  0.00  0.00    -0.263 OA
ATOM      3  N   UNL     1      34.207 -14.755 -23.406  0.00  0.00    -0.240 N 
ATOM      4  N   UNL     1      34.678 -17.498 -23.573  0.00  0.00    -0.351 NA
ATOM      5  C   UNL     1      33.889 -13.335 -23.567  0.00  0.00    +0.161 C 
ATOM      6  C   UNL     1      33.307 -13.316 -24.952  0.00  0.00    +0.057 C 
ATOM      7  C   UNL     1      33.844 -15.473 -24.525  0.00  0.00    +0.091 C 
ATOM      8  C   UNL     1      33.275 -14.552 -25.474  0.00  0.00    -0.005 C 
ATOM      9  C   UNL     1      34.883 -15.329 -22.356  0.00  0.00    +0.320 C 
ATOM     10  C   UNL     1      34.076 -16.791 -24.589  0.00  0.00    +0.206 C 
ATOM     11  C   UNL     1      35.058 -16.818 -22.539  0.00  0.00    +0.335 C 
ENDROOT
BRANCH   5  18
ATOM     12  O   UNL     1      32.249 -13.814 -21.908  0.00  0.00    -0.273 OA
ATOM     13  N   UNL     1      32.491 -11.606 -22.545  0.00  0.00    -0.278 N 
ATOM     14  C   UNL     1      33.110 -10.539 -23.325  0.00  0.00    +0.094 C 
ATOM     15  C   UNL     1      31.462 -11.079 -21.662  0.00  0.00    +0.094 C 
ATOM     16  C   UNL     1      32.215  -9.330 -23.090  0.00  0.00    +0.023 C 
ATOM     17  C   UNL     1      31.674  -9.573 -21.687  0.00  0.00    +0.023 C 
ATOM     18  C   UNL     1      32.803 -12.953 -22.594  0.00  0.00    +0.244 C 
ENDBRANCH   5  18
BRANCH  11  19
ATOM     19  O   UNL     1      35.661 -17.402 -21.492  0.00  0.00    -0.444 OA
BRANCH  19  20
ATOM     20  C   UNL     1      36.308 -18.629 -21.806  0.00  0.00    +0.235 C 
BRANCH  20  22
ATOM     21  F   UNL     1      33.901 -22.779 -18.862  0.00  0.00    -0.204 F 
ATOM     22  C   UNL     1      35.666 -19.735 -21.021  0.00  0.00    +0.021 C 
ATOM     23  C   UNL     1      34.283 -19.910 -21.064  0.00  0.00    +0.002 C 
ATOM     24  C   UNL     1      36.453 -20.588 -20.248  0.00  0.00    +0.002 C 
ATOM     25  C   UNL     1      33.686 -20.938 -20.335  0.00  0.00    +0.029 C 
ATOM     26  C   UNL     1      35.857 -21.617 -19.518  0.00  0.00    +0.029 C 
ATOM     27  C   UNL     1      34.473 -21.792 -19.562  0.00  0.00    +0.140 C 
ENDBRANCH  20  22
ENDBRANCH  19  20
ENDBRANCH  11  19
TORSDOF 4
ENDMDL
MODEL 4
REMARK VINA RESULT:     -10.0     10.906     14.415
REMARK  Name = 46937054
REMARK  4 active torsions:
REMARK  status: ('A' for Active; 'I' for Inactive)
REMARK    1  A    between atoms: C_5  and  C_18
REMARK    2  A    between atoms: C_11  and  O_19
REMARK    3  A    between atoms: O_19  and  C_20
REMARK    4  A    between atoms: C_20  and  C_22
REMARK                            x       y       z     vdW  Elec       q    Type
REMARK                         _______ _______ _______ _____ _____    ______ ____
ROOT
ATOM      1 CL   UNL     1      30.806 -10.520 -20.534  0.00  0.00    -0.047 Cl
ATOM      2  O   UNL     1      34.767 -11.299 -24.606  0.00  0.00    -0.263 OA
ATOM      3  N   UNL     1      33.429 -12.259 -22.952  0.00  0.00    -0.240 N 
ATOM      4  N   UNL     1      32.297  -9.741 -22.563  0.00  0.00    -0.351 NA
ATOM      5  C   UNL     1      33.900 -13.646 -22.938  0.00  0.00    +0.161 C 
ATOM      6  C   UNL     1      33.132 -14.208 -21.777  0.00  0.00    +0.057 C 
ATOM      7  C   UNL     1      32.500 -12.043 -21.957  0.00  0.00    +0.091 C 
ATOM      8  C   UNL     1      32.326 -13.279 -21.242  0.00  0.00    -0.005 C 
ATOM      9  C   UNL     1      33.900 -11.242 -23.748  0.00  0.00    +0.320 C 
ATOM     10  C   UNL     1      31.964 -10.826 -21.784  0.00  0.00    +0.206 C 
ATOM     11  C   UNL     1      33.200  -9.933 -23.470  0.00  0.00    +0.335 C 
ENDROOT
BRANCH   5  18
ATOM     12  O   UNL     1      32.646 -13.789 -24.957  0.00  0.00    -0.273 OA
ATOM     13  N   UNL     1      33.952 -15.610 -24.395  0.00  0.00    -0.278 N 
ATOM     14  C   UNL     1      34.892 -16.318 -23.532  0.00  0.00    +0.094 C 
ATOM     15  C   UNL     1      33.599 -16.416 -25.554  0.00  0.00    +0.094 C 
ATOM     16  C   UNL     1      34.900 -17.743 -24.068  0.00  0.00    +0.023 C 
ATOM     17  C   UNL     1      34.609 -17.552 -25.551  0.00  0.00    +0.023 C 
ATOM     18  C   UNL     1      33.437 -14.343 -24.192  0.00  0.00    +0.244 C 
ENDBRANCH   5  18
BRANCH  11  19
ATOM     19  O   UNL     1      33.606  -8.946 -24.282  0.00  0.00    -0.444 OA
BRANCH  19  20
ATOM     20  C   UNL     1      34.285  -7.888 -23.615  0.00  0.00    +0.235 C 
BRANCH  20  22
ATOM     21  F   UNL     1      32.315  -2.964 -25.500  0.00  0.00    -0.204 F 
ATOM     22  C   UNL     1      33.759  -6.576 -24.117  0.00  0.00    +0.021 C 
ATOM     23  C   UNL     1      32.679  -5.966 -23.480  0.00  0.00    +0.002 C 
ATOM     24  C   UNL     1      34.351  -5.965 -25.223  0.00  0.00    +0.002 C 
ATOM     25  C   UNL     1      32.190  -4.746 -23.947  0.00  0.00    +0.029 C 
ATOM     26  C   UNL     1      33.863  -4.744 -25.690  0.00  0.00    +0.029 C 
ATOM     27  C   UNL     1      32.783  -4.135 -25.052  0.00  0.00    +0.140 C 
ENDBRANCH  20  22
ENDBRANCH  19  20
ENDBRANCH  11  19
TORSDOF 4
ENDMDL
MODEL 5
REMARK VINA RESULT:     -10.0     10.920     14.430
REMARK  Name = 46937054
REMARK  4 active torsions:
REMARK  status: ('A' for Active; 'I' for Inactive)
REMARK    1  A    between atoms: C_5  and  C_18
REMARK    2  A    between atoms: C_11  and  O_19
REMARK    3  A    between atoms: O_19  and  C_20
REMARK    4  A    between atoms: C_20  and  C_22
REMARK                            x       y       z     vdW  Elec       q    Type
REMARK                         _______ _______ _______ _____ _____    ______ ____
ROOT
ATOM      1 CL   UNL     1      30.748 -10.592 -20.482  0.00  0.00    -0.047 Cl
ATOM      2  O   UNL     1      34.722 -11.202 -24.570  0.00  0.00    -0.263 OA
ATOM      3  N   UNL     1      33.408 -12.224 -22.935  0.00  0.00    -0.240 N 
ATOM      4  N   UNL     1      32.219  -9.740 -22.496  0.00  0.00    -0.351 NA
ATOM      5  C   UNL     1      33.910 -13.600 -22.948  0.00  0.00    +0.161 C 
ATOM      6  C   UNL     1      33.156 -14.202 -21.797  0.00  0.00    +0.057 C 
ATOM      7  C   UNL     1      32.475 -12.048 -21.936  0.00  0.00    +0.091 C 
ATOM      8  C   UNL     1      32.329 -13.301 -21.244  0.00  0.00    -0.005 C 
ATOM      9  C   UNL     1      33.855 -11.181 -23.711  0.00  0.00    +0.320 C 
ATOM     10  C   UNL     1      31.912 -10.848 -21.739  0.00  0.00    +0.206 C 
ATOM     11  C   UNL     1      33.125  -9.894 -23.408  0.00  0.00    +0.335 C 
ENDROOT
BRANCH   5  18
ATOM     12  O   UNL     1      32.711 -13.705 -25.003  0.00  0.00    -0.273 OA
ATOM     13  N   UNL     1      33.942 -15.566 -24.403  0.00  0.00    -0.278 N 
ATOM     14  C   UNL     1      34.833 -16.303 -23.513  0.00  0.00    +0.094 C 
ATOM     15  C   UNL     1      33.597 -16.361 -25.572  0.00  0.00    +0.094 C 
ATOM     16  C   UNL     1      34.811 -17.728 -24.048  0.00  0.00    +0.023 C 
ATOM     17  C   UNL     1      34.570 -17.529 -25.539  0.00  0.00    +0.023 C 
ATOM     18  C   UNL     1      33.462 -14.283 -24.215  0.00  0.00    +0.244 C 
ENDBRANCH   5  18
BRANCH  11  19
ATOM     19  O   UNL     1      33.508  -8.882 -24.201  0.00  0.00    -0.444 OA
BRANCH  19  20
ATOM     20  C   UNL     1      34.172  -7.827 -23.515  0.00  0.00    +0.235 C 
BRANCH  20  22
ATOM     21  F   UNL     1      31.514  -2.983 -24.588  0.00  0.00    -0.204 F 
ATOM     22  C   UNL     1      33.463  -6.536 -23.801  0.00  0.00    +0.021 C 
ATOM     23  C   UNL     1      33.814  -5.781 -24.920  0.00  0.00    +0.002 C 
ATOM     24  C   UNL     1      32.455  -6.090 -22.948  0.00  0.00    +0.002 C 
ATOM     25  C   UNL     1      33.156  -4.581 -25.187  0.00  0.00    +0.029 C 
ATOM     26  C   UNL     1      31.795  -4.889 -23.214  0.00  0.00    +0.029 C 
ATOM     27  C   UNL     1      32.146  -4.135 -24.334  0.00  0.00    +0.140 C 
ENDBRANCH  20  22
ENDBRANCH  19  20
ENDBRANCH  11  19
TORSDOF 4
ENDMDL
MODEL 6
REMARK VINA RESULT:      -9.8     11.049     15.526
REMARK  Name = 46937054
REMARK  4 active torsions:
REMARK  status: ('A' for Active; 'I' for Inactive)
REMARK    1  A    between atoms: C_5  and  C_18
REMARK    2  A    between atoms: C_11  and  O_19
REMARK    3  A    between atoms: O_19  and  C_20
REMARK    4  A    between atoms: C_20  and  C_22
REMARK                            x       y       z     vdW  Elec       q    Type
REMARK                         _______ _______ _______ _____ _____    ______ ____
ROOT
ATOM      1 CL   UNL     1      31.707 -10.398 -18.599  0.00  0.00    -0.047 Cl
ATOM      2  O   UNL     1      32.580 -10.259 -24.264  0.00  0.00    -0.263 OA
ATOM      3  N   UNL     1      32.272  -9.053 -22.291  0.00  0.00    -0.240 N 
ATOM      4  N   UNL     1      32.243 -11.491 -20.936  0.00  0.00    -0.351 NA
ATOM      5  C   UNL     1      32.204  -7.674 -22.777  0.00  0.00    +0.161 C 
ATOM      6  C   UNL     1      31.864  -6.931 -21.516  0.00  0.00    +0.057 C 
ATOM      7  C   UNL     1      32.031  -9.112 -20.935  0.00  0.00    +0.091 C 
ATOM      8  C   UNL     1      31.787  -7.771 -20.473  0.00  0.00    -0.005 C 
ATOM      9  C   UNL     1      32.434 -10.185 -23.055  0.00  0.00    +0.320 C 
ATOM     10  C   UNL     1      32.022 -10.291 -20.299  0.00  0.00    +0.206 C 
ATOM     11  C   UNL     1      32.429 -11.441 -22.217  0.00  0.00    +0.335 C 
ENDROOT
BRANCH   5  18
ATOM     12  O   UNL     1      34.582  -7.653 -22.657  0.00  0.00    -0.273 OA
ATOM     13  N   UNL     1      33.597  -6.353 -24.293  0.00  0.00    -0.278 N 
ATOM     14  C   UNL     1      32.443  -5.825 -25.014  0.00  0.00    +0.094 C 
ATOM     15  C   UNL     1      34.839  -5.831 -24.843  0.00  0.00    +0.094 C 
ATOM     16  C   UNL     1      33.014  -4.711 -25.880  0.00  0.00    +0.023 C 
ATOM     17  C   UNL     1      34.433  -5.188 -26.160  0.00  0.00    +0.023 C 
ATOM     18  C   UNL     1      33.574  -7.235 -23.228  0.00  0.00    +0.244 C 
ENDBRANCH   5  18
BRANCH  11  19
ATOM     19  O   UNL     1      32.647 -12.548 -22.942  0.00  0.00    -0.444 OA
BRANCH  19  20
ATOM     20  C   UNL     1      33.850 -13.231 -22.609  0.00  0.00    +0.235 C 
BRANCH  20  22
ATOM     21  F   UNL     1      34.346 -17.780 -25.888  0.00  0.00    -0.204 F 
ATOM     22  C   UNL     1      33.982 -14.444 -23.483  0.00  0.00    +0.021 C 
ATOM     23  C   UNL     1      33.307 -14.502 -24.702  0.00  0.00    +0.002 C 
ATOM     24  C   UNL     1      34.780 -15.512 -23.077  0.00  0.00    +0.002 C 
ATOM     25  C   UNL     1      33.429 -15.629 -25.515  0.00  0.00    +0.029 C 
ATOM     26  C   UNL     1      34.904 -16.640 -23.889  0.00  0.00    +0.029 C 
ATOM     27  C   UNL     1      34.228 -16.698 -25.109  0.00  0.00    +0.140 C 
ENDBRANCH  20  22
ENDBRANCH  19  20
ENDBRANCH  11  19
TORSDOF 4
ENDMDL
MODEL 7
REMARK VINA RESULT:      -9.7      1.632      2.428
REMARK  Name = 46937054
REMARK  4 active torsions:
REMARK  status: ('A' for Active; 'I' for Inactive)
REMARK    1  A    between atoms: C_5  and  C_18
REMARK    2  A    between atoms: C_11  and  O_19
REMARK    3  A    between atoms: O_19  and  C_20
REMARK    4  A    between atoms: C_20  and  C_22
REMARK                            x       y       z     vdW  Elec       q    Type
REMARK                         _______ _______ _______ _____ _____    ______ ____
ROOT
ATOM      1 CL   UNL     1      31.731 -23.972 -13.500  0.00  0.00    -0.047 Cl
ATOM      2  O   UNL     1      36.897 -23.808 -15.980  0.00  0.00    -0.263 OA
ATOM      3  N   UNL     1      35.654 -24.229 -14.051  0.00  0.00    -0.240 N 
ATOM      4  N   UNL     1      33.360 -23.732 -15.557  0.00  0.00    -0.351 NA
ATOM      5  C   UNL     1      36.697 -24.482 -13.057  0.00  0.00    +0.161 C 
ATOM      6  C   UNL     1      35.885 -24.608 -11.800  0.00  0.00    +0.057 C 
ATOM      7  C   UNL     1      34.404 -24.231 -13.468  0.00  0.00    +0.091 C 
ATOM      8  C   UNL     1      34.576 -24.478 -12.061  0.00  0.00    -0.005 C 
ATOM      9  C   UNL     1      35.842 -23.911 -15.376  0.00  0.00    +0.320 C 
ATOM     10  C   UNL     1      33.312 -23.991 -14.207  0.00  0.00    +0.206 C 
ATOM     11  C   UNL     1      34.535 -23.689 -16.099  0.00  0.00    +0.335 C 
ENDROOT
BRANCH   5  18
ATOM     12  O   UNL     1      36.745 -26.862 -13.089  0.00  0.00    -0.273 OA
ATOM     13  N   UNL     1      38.618 -25.759 -13.873  0.00  0.00    -0.278 N 
ATOM     14  C   UNL     1      39.377 -24.555 -14.194  0.00  0.00    +0.094 C 
ATOM     15  C   UNL     1      39.378 -26.957 -14.194  0.00  0.00    +0.094 C 
ATOM     16  C   UNL     1      40.785 -25.059 -14.479  0.00  0.00    +0.023 C 
ATOM     17  C   UNL     1      40.541 -26.456 -15.036  0.00  0.00    +0.023 C 
ATOM     18  C   UNL     1      37.343 -25.814 -13.338  0.00  0.00    +0.244 C 
ENDBRANCH   5  18
BRANCH  11  19
ATOM     19  O   UNL     1      34.702 -23.439 -17.406  0.00  0.00    -0.444 OA
BRANCH  19  20
ATOM     20  C   UNL     1      33.524 -22.991 -18.065  0.00  0.00    +0.235 C 
BRANCH  20  22
ATOM     21  F   UNL     1      34.952 -19.307 -22.075  0.00  0.00    -0.204 F 
ATOM     22  C   UNL     1      33.905 -22.009 -19.134  0.00  0.00    +0.021 C 
ATOM     23  C   UNL     1      32.914 -21.340 -19.851  0.00  0.00    +0.002 C 
ATOM     24  C   UNL     1      35.250 -21.766 -19.410  0.00  0.00    +0.002 C 
ATOM     25  C   UNL     1      33.267 -20.427 -20.845  0.00  0.00    +0.029 C 
ATOM     26  C   UNL     1      35.604 -20.853 -20.404  0.00  0.00    +0.029 C 
ATOM     27  C   UNL     1      34.612 -20.183 -21.122  0.00  0.00    +0.140 C 
ENDBRANCH  20  22
ENDBRANCH  19  20
ENDBRANCH  11  19
TORSDOF 4
ENDMDL
MODEL 8
REMARK VINA RESULT:      -9.7     10.072     14.466
REMARK  Name = 46937054
REMARK  4 active torsions:
REMARK  status: ('A' for Active; 'I' for Inactive)
REMARK    1  A    between atoms: C_5  and  C_18
REMARK    2  A    between atoms: C_11  and  O_19
REMARK    3  A    between atoms: O_19  and  C_20
REMARK    4  A    between atoms: C_20  and  C_22
REMARK                            x       y       z     vdW  Elec       q    Type
REMARK                         _______ _______ _______ _____ _____    ______ ____
ROOT
ATOM      1 CL   UNL     1      32.047 -13.526 -20.468  0.00  0.00    -0.047 Cl
ATOM      2  O   UNL     1      33.701 -11.530 -25.582  0.00  0.00    -0.263 OA
ATOM      3  N   UNL     1      32.781 -11.060 -23.490  0.00  0.00    -0.240 N 
ATOM      4  N   UNL     1      33.208 -13.734 -22.824  0.00  0.00    -0.351 NA
ATOM      5  C   UNL     1      32.415  -9.648 -23.622  0.00  0.00    +0.161 C 
ATOM      6  C   UNL     1      31.699  -9.404 -22.324  0.00  0.00    +0.057 C 
ATOM      7  C   UNL     1      32.361 -11.568 -22.280  0.00  0.00    +0.091 C 
ATOM      8  C   UNL     1      31.695 -10.511 -21.566  0.00  0.00    -0.005 C 
ATOM      9  C   UNL     1      33.357 -11.851 -24.455  0.00  0.00    +0.320 C 
ATOM     10  C   UNL     1      32.575 -12.855 -21.974  0.00  0.00    +0.206 C 
ATOM     11  C   UNL     1      33.566 -13.268 -23.978  0.00  0.00    +0.335 C 
ENDROOT
BRANCH   5  18
ATOM     12  O   UNL     1      34.750  -9.297 -23.309  0.00  0.00    -0.273 OA
ATOM     13  N   UNL     1      33.498  -7.491 -24.022  0.00  0.00    -0.278 N 
ATOM     14  C   UNL     1      32.247  -6.853 -24.422  0.00  0.00    +0.094 C 
ATOM     15  C   UNL     1      34.606  -6.550 -24.081  0.00  0.00    +0.094 C 
ATOM     16  C   UNL     1      32.577  -5.368 -24.469  0.00  0.00    +0.023 C 
ATOM     17  C   UNL     1      34.053  -5.357 -24.846  0.00  0.00    +0.023 C 
ATOM     18  C   UNL     1      33.667  -8.808 -23.635  0.00  0.00    +0.244 C 
ENDBRANCH   5  18
BRANCH  11  19
ATOM     19  O   UNL     1      34.185 -14.035 -24.888  0.00  0.00    -0.444 OA
BRANCH  19  20
ATOM     20  C   UNL     1      33.345 -15.013 -25.490  0.00  0.00    +0.235 C 
BRANCH  20  22
ATOM     21  F   UNL     1      35.080 -20.136 -23.932  0.00  0.00    -0.204 F 
ATOM     22  C   UNL     1      33.807 -16.378 -25.075  0.00  0.00    +0.021 C 
ATOM     23  C   UNL     1      34.760 -16.515 -24.066  0.00  0.00    +0.002 C 
ATOM     24  C   UNL     1      33.284 -17.511 -25.698  0.00  0.00    +0.002 C 
ATOM     25  C   UNL     1      35.191 -17.784 -23.680  0.00  0.00    +0.029 C 
ATOM     26  C   UNL     1      33.714 -18.781 -25.312  0.00  0.00    +0.029 C 
ATOM     27  C   UNL     1      34.668 -18.918 -24.302  0.00  0.00    +0.140 C 
ENDBRANCH  20  22
ENDBRANCH  19  20
ENDBRANCH  11  19
TORSDOF 4
ENDMDL
MODEL 9
REMARK VINA RESULT:      -9.6     10.918     15.384
REMARK  Name = 46937054
REMARK  4 active torsions:
REMARK  status: ('A' for Active; 'I' for Inactive)
REMARK    1  A    between atoms: C_5  and  C_18
REMARK    2  A    between atoms: C_11  and  O_19
REMARK    3  A    between atoms: O_19  and  C_20
REMARK    4  A    between atoms: C_20  and  C_22
REMARK                            x       y       z     vdW  Elec       q    Type
REMARK                         _______ _______ _______ _____ _____    ______ ____
ROOT
ATOM      1 CL   UNL     1      31.852 -10.468 -18.374  0.00  0.00    -0.047 Cl
ATOM      2  O   UNL     1      32.417 -10.281 -24.076  0.00  0.00    -0.263 OA
ATOM      3  N   UNL     1      32.244  -9.092 -22.077  0.00  0.00    -0.240 N 
ATOM      4  N   UNL     1      32.235 -11.544 -20.749  0.00  0.00    -0.351 NA
ATOM      5  C   UNL     1      32.181  -7.705 -22.543  0.00  0.00    +0.161 C 
ATOM      6  C   UNL     1      31.927  -6.971 -21.258  0.00  0.00    +0.057 C 
ATOM      7  C   UNL     1      32.076  -9.161 -20.710  0.00  0.00    +0.091 C 
ATOM      8  C   UNL     1      31.888  -7.821 -20.221  0.00  0.00    -0.005 C 
ATOM      9  C   UNL     1      32.338 -10.217 -22.860  0.00  0.00    +0.320 C 
ATOM     10  C   UNL     1      32.076 -10.348 -20.087  0.00  0.00    +0.206 C 
ATOM     11  C   UNL     1      32.351 -11.483 -22.037  0.00  0.00    +0.335 C 
ENDROOT
BRANCH   5  18
ATOM     12  O   UNL     1      34.562  -7.729 -22.547  0.00  0.00    -0.273 OA
ATOM     13  N   UNL     1      33.518  -6.408 -24.129  0.00  0.00    -0.278 N 
ATOM     14  C   UNL     1      32.338  -5.857 -24.788  0.00  0.00    +0.094 C 
ATOM     15  C   UNL     1      34.740  -5.908 -24.741  0.00  0.00    +0.094 C 
ATOM     16  C   UNL     1      32.884  -4.752 -25.682  0.00  0.00    +0.023 C 
ATOM     17  C   UNL     1      34.278  -5.255 -26.035  0.00  0.00    +0.023 C 
ATOM     18  C   UNL     1      33.533  -7.292 -23.065  0.00  0.00    +0.244 C 
ENDBRANCH   5  18
BRANCH  11  19
ATOM     19  O   UNL     1      32.504 -12.586 -22.785  0.00  0.00    -0.444 OA
BRANCH  19  20
ATOM     20  C   UNL     1      33.844 -12.824 -23.199  0.00  0.00    +0.235 C 
BRANCH  20  22
ATOM     21  F   UNL     1      35.525 -17.813 -21.207  0.00  0.00    -0.204 F 
ATOM     22  C   UNL     1      34.292 -14.154 -22.668  0.00  0.00    +0.021 C 
ATOM     23  C   UNL     1      34.385 -14.360 -21.292  0.00  0.00    +0.002 C 
ATOM     24  C   UNL     1      34.616 -15.183 -23.551  0.00  0.00    +0.002 C 
ATOM     25  C   UNL     1      34.802 -15.596 -20.798  0.00  0.00    +0.029 C 
ATOM     26  C   UNL     1      35.033 -16.420 -23.057  0.00  0.00    +0.029 C 
ATOM     27  C   UNL     1      35.125 -16.626 -21.681  0.00  0.00    +0.140 C 
ENDBRANCH  20  22
ENDBRANCH  19  20
ENDBRANCH  11  19
TORSDOF 4
ENDMDL
