MODEL 1
REMARK VINA RESULT:     -13.0      0.000      0.000
REMARK  Name = 71351
REMARK  4 active torsions:
REMARK  status: ('A' for Active; 'I' for Inactive)
REMARK    1  A    between atoms: N_1  and  C_18
REMARK    2  A    between atoms: C_2  and  C_11
REMARK    3  A    between atoms: C_18  and  C_19
REMARK    4  A    between atoms: C_19  and  C_23
REMARK                            x       y       z     vdW  Elec       q    Type
REMARK                         _______ _______ _______ _____ _____    ______ ____
ROOT
ATOM      1  N   UNL     1      35.486 -19.360 -20.960  0.00  0.00    +0.387 N 
ATOM      2  C   UNL     1      35.205 -18.069 -23.579  0.00  0.00    +0.039 C 
ATOM      3  C   UNL     1      35.735 -17.323 -22.344  0.00  0.00    -0.017 C 
ATOM      4  C   UNL     1      34.316 -19.243 -23.138  0.00  0.00    -0.017 C 
ATOM      5  C   UNL     1      36.404 -18.285 -21.359  0.00  0.00    -0.077 C 
ATOM      6  C   UNL     1      35.038 -20.135 -22.124  0.00  0.00    -0.077 C 
ATOM      7  H   UNL     1      34.665 -18.930 -20.533  0.00  0.00    -0.080 HD
ENDROOT
BRANCH   2  11
ATOM      8  F   UNL     1      32.909 -11.951 -25.166  0.00  0.00    -0.204 F 
ATOM      9  O   UNL     1      33.519 -16.563 -26.385  0.00  0.00    -0.354 OA
ATOM     10  N   UNL     1      34.099 -17.642 -25.729  0.00  0.00    -0.081 NA
ATOM     11  C   UNL     1      34.514 -17.153 -24.563  0.00  0.00    +0.100 A 
ATOM     12  C   UNL     1      34.236 -15.786 -24.410  0.00  0.00    +0.054 A 
ATOM     13  C   UNL     1      33.603 -15.457 -25.596  0.00  0.00    +0.179 A 
ATOM     14  C   UNL     1      34.430 -14.790 -23.442  0.00  0.00    +0.007 C 
ATOM     15  C   UNL     1      33.133 -14.184 -25.908  0.00  0.00    +0.070 C 
ATOM     16  C   UNL     1      33.970 -13.495 -23.723  0.00  0.00    +0.030 C 
ATOM     17  C   UNL     1      33.334 -13.201 -24.934  0.00  0.00    +0.143 C 
ENDBRANCH   2  11
BRANCH   1  18
ATOM     18  C   UNL     1      36.122 -20.236 -19.975  0.00  0.00    -0.076 C 
BRANCH  18  19
ATOM     19  C   UNL     1      35.665 -21.672 -20.189  0.00  0.00    -0.007 C 
BRANCH  19  23
ATOM     20  O   UNL     1      36.498 -22.764 -17.779  0.00  0.00    -0.274 OA
ATOM     21  N   UNL     1      34.344 -23.099 -16.936  0.00  0.00    -0.211 N 
ATOM     22  N   UNL     1      32.477 -22.413 -18.233  0.00  0.00    -0.395 NA
ATOM     23  C   UNL     1      34.683 -22.083 -19.132  0.00  0.00    +0.123 C 
ATOM     24  C   UNL     1      33.342 -21.987 -19.209  0.00  0.00    +0.097 C 
ATOM     25  C   UNL     1      35.274 -22.680 -17.891  0.00  0.00    +0.241 C 
ATOM     26  C   UNL     1      32.970 -22.944 -17.155  0.00  0.00    +0.188 C 
ATOM     27  C   UNL     1      32.634 -21.370 -20.388  0.00  0.00    +0.062 C 
ATOM     28  C   UNL     1      32.041 -23.422 -16.070  0.00  0.00    +0.023 C 
ATOM     29  C   UNL     1      34.812 -23.673 -15.759  0.00  0.00    +0.074 C 
ATOM     30  C   UNL     1      32.568 -23.965 -14.963  0.00  0.00    +0.001 C 
ATOM     31  C   UNL     1      33.987 -24.096 -14.797  0.00  0.00    +0.016 C 
ATOM     32  C   UNL     1      30.566 -23.269 -16.279  0.00  0.00    +0.035 C 
ENDBRANCH  19  23
ENDBRANCH  18  19
ENDBRANCH   1  18
TORSDOF 4
ENDMDL
MODEL 2
REMARK VINA RESULT:     -12.9      4.292     10.364
REMARK  Name = 71351
REMARK  4 active torsions:
REMARK  status: ('A' for Active; 'I' for Inactive)
REMARK    1  A    between atoms: N_1  and  C_18
REMARK    2  A    between atoms: C_2  and  C_11
REMARK    3  A    between atoms: C_18  and  C_19
REMARK    4  A    between atoms: C_19  and  C_23
REMARK                            x       y       z     vdW  Elec       q    Type
REMARK                         _______ _______ _______ _____ _____    ______ ____
ROOT
ATOM      1  N   UNL     1      34.386 -15.706 -23.254  0.00  0.00    +0.387 N 
ATOM      2  C   UNL     1      35.939 -17.772 -21.867  0.00  0.00    +0.039 C 
ATOM      3  C   UNL     1      35.317 -18.000 -23.254  0.00  0.00    -0.017 C 
ATOM      4  C   UNL     1      35.154 -16.686 -21.114  0.00  0.00    -0.017 C 
ATOM      5  C   UNL     1      35.172 -16.682 -24.020  0.00  0.00    -0.077 C 
ATOM      6  C   UNL     1      35.016 -15.416 -21.959  0.00  0.00    -0.077 C 
ATOM      7  H   UNL     1      33.468 -16.114 -23.073  0.00  0.00    -0.080 HD
ENDROOT
BRANCH   2  11
ATOM      8  F   UNL     1      33.082 -23.166 -19.044  0.00  0.00    -0.204 F 
ATOM      9  O   UNL     1      37.058 -20.622 -19.966  0.00  0.00    -0.354 OA
ATOM     10  N   UNL     1      37.278 -19.434 -20.652  0.00  0.00    -0.081 NA
ATOM     11  C   UNL     1      36.074 -19.050 -21.071  0.00  0.00    +0.100 A 
ATOM     12  C   UNL     1      35.053 -19.936 -20.693  0.00  0.00    +0.054 A 
ATOM     13  C   UNL     1      35.729 -20.919 -19.993  0.00  0.00    +0.179 A 
ATOM     14  C   UNL     1      33.662 -20.040 -20.844  0.00  0.00    +0.007 C 
ATOM     15  C   UNL     1      35.122 -22.029 -19.414  0.00  0.00    +0.070 C 
ATOM     16  C   UNL     1      33.017 -21.147 -20.275  0.00  0.00    +0.030 C 
ATOM     17  C   UNL     1      33.735 -22.122 -19.574  0.00  0.00    +0.143 C 
ENDBRANCH   2  11
BRANCH   1  18
ATOM     18  C   UNL     1      34.208 -14.475 -24.024  0.00  0.00    -0.076 C 
BRANCH  18  19
ATOM     19  C   UNL     1      32.793 -13.947 -23.837  0.00  0.00    -0.007 C 
BRANCH  19  23
ATOM     20  O   UNL     1      31.800 -13.348 -21.317  0.00  0.00    -0.274 OA
ATOM     21  N   UNL     1      32.206 -11.051 -21.462  0.00  0.00    -0.211 N 
ATOM     22  N   UNL     1      33.245 -10.184 -23.414  0.00  0.00    -0.395 NA
ATOM     23  C   UNL     1      32.812 -12.547 -23.297  0.00  0.00    +0.123 C 
ATOM     24  C   UNL     1      33.283 -11.455 -23.930  0.00  0.00    +0.097 C 
ATOM     25  C   UNL     1      32.222 -12.368 -21.932  0.00  0.00    +0.241 C 
ATOM     26  C   UNL     1      32.726 -10.007 -22.237  0.00  0.00    +0.188 C 
ATOM     27  C   UNL     1      33.935 -11.516 -25.287  0.00  0.00    +0.062 C 
ATOM     28  C   UNL     1      32.671  -8.621 -21.650  0.00  0.00    +0.023 C 
ATOM     29  C   UNL     1      31.666 -10.799 -20.206  0.00  0.00    +0.074 C 
ATOM     30  C   UNL     1      32.134  -8.457 -20.432  0.00  0.00    +0.001 C 
ATOM     31  C   UNL     1      31.618  -9.569 -19.688  0.00  0.00    +0.016 C 
ATOM     32  C   UNL     1      33.219  -7.485 -22.458  0.00  0.00    +0.035 C 
ENDBRANCH  19  23
ENDBRANCH  18  19
ENDBRANCH   1  18
TORSDOF 4
ENDMDL
MODEL 3
REMARK VINA RESULT:     -12.8      3.416     10.380
REMARK  Name = 71351
REMARK  4 active torsions:
REMARK  status: ('A' for Active; 'I' for Inactive)
REMARK    1  A    between atoms: N_1  and  C_18
REMARK    2  A    between atoms: C_2  and  C_11
REMARK    3  A    between atoms: C_18  and  C_19
REMARK    4  A    between atoms: C_19  and  C_23
REMARK                            x       y       z     vdW  Elec       q    Type
REMARK                         _______ _______ _______ _____ _____    ______ ____
ROOT
ATOM      1  N   UNL     1      34.512 -20.369 -20.677  0.00  0.00    +0.387 N 
ATOM      2  C   UNL     1      34.265 -22.578 -18.762  0.00  0.00    +0.039 C 
ATOM      3  C   UNL     1      33.089 -21.649 -19.107  0.00  0.00    -0.017 C 
ATOM      4  C   UNL     1      35.596 -21.852 -19.017  0.00  0.00    -0.017 C 
ATOM      5  C   UNL     1      33.232 -21.073 -20.518  0.00  0.00    -0.077 C 
ATOM      6  C   UNL     1      35.647 -21.269 -20.432  0.00  0.00    -0.077 C 
ATOM      7  H   UNL     1      34.548 -19.622 -19.984  0.00  0.00    -0.080 HD
ENDROOT
BRANCH   2  11
ATOM      8  F   UNL     1      30.499 -24.402 -13.497  0.00  0.00    -0.204 F 
ATOM      9  O   UNL     1      34.853 -23.982 -15.496  0.00  0.00    -0.354 OA
ATOM     10  N   UNL     1      35.281 -23.512 -16.732  0.00  0.00    -0.081 NA
ATOM     11  C   UNL     1      34.169 -23.146 -17.364  0.00  0.00    +0.100 A 
ATOM     12  C   UNL     1      33.009 -23.352 -16.602  0.00  0.00    +0.054 A 
ATOM     13  C   UNL     1      33.497 -23.886 -15.422  0.00  0.00    +0.179 A 
ATOM     14  C   UNL     1      31.627 -23.163 -16.744  0.00  0.00    +0.007 C 
ATOM     15  C   UNL     1      32.703 -24.258 -14.341  0.00  0.00    +0.070 C 
ATOM     16  C   UNL     1      30.795 -23.528 -15.675  0.00  0.00    +0.030 C 
ATOM     17  C   UNL     1      31.326 -24.066 -14.497  0.00  0.00    +0.143 C 
ENDBRANCH   2  11
BRANCH   1  18
ATOM     18  C   UNL     1      34.608 -19.776 -22.011  0.00  0.00    -0.076 C 
BRANCH  18  19
ATOM     19  C   UNL     1      35.651 -18.668 -22.011  0.00  0.00    -0.007 C 
BRANCH  19  23
ATOM     20  O   UNL     1      34.860 -18.410 -24.658  0.00  0.00    -0.274 OA
ATOM     21  N   UNL     1      34.214 -16.172 -24.475  0.00  0.00    -0.211 N 
ATOM     22  N   UNL     1      34.375 -15.092 -22.366  0.00  0.00    -0.395 NA
ATOM     23  C   UNL     1      35.071 -17.388 -22.537  0.00  0.00    +0.123 C 
ATOM     24  C   UNL     1      34.873 -16.256 -21.835  0.00  0.00    +0.097 C 
ATOM     25  C   UNL     1      34.710 -17.386 -23.991  0.00  0.00    +0.241 C 
ATOM     26  C   UNL     1      34.068 -15.067 -23.627  0.00  0.00    +0.188 C 
ATOM     27  C   UNL     1      35.160 -16.149 -20.360  0.00  0.00    +0.062 C 
ATOM     28  C   UNL     1      33.523 -13.801 -24.234  0.00  0.00    +0.023 C 
ATOM     29  C   UNL     1      33.864 -16.084 -25.817  0.00  0.00    +0.074 C 
ATOM     30  C   UNL     1      33.207 -13.794 -25.537  0.00  0.00    +0.001 C 
ATOM     31  C   UNL     1      33.380 -14.960 -26.354  0.00  0.00    +0.016 C 
ATOM     32  C   UNL     1      33.357 -12.603 -23.350  0.00  0.00    +0.035 C 
ENDBRANCH  19  23
ENDBRANCH  18  19
ENDBRANCH   1  18
TORSDOF 4
ENDMDL
MODEL 4
REMARK VINA RESULT:     -12.6      3.574     10.365
REMARK  Name = 71351
REMARK  4 active torsions:
REMARK  status: ('A' for Active; 'I' for Inactive)
REMARK    1  A    between atoms: N_1  and  C_18
REMARK    2  A    between atoms: C_2  and  C_11
REMARK    3  A    between atoms: C_18  and  C_19
REMARK    4  A    between atoms: C_19  and  C_23
REMARK                            x       y       z     vdW  Elec       q    Type
REMARK                         _______ _______ _______ _____ _____    ______ ____
ROOT
ATOM      1  N   UNL     1      34.445 -20.609 -20.486  0.00  0.00    +0.387 N 
ATOM      2  C   UNL     1      34.264 -22.749 -18.489  0.00  0.00    +0.039 C 
ATOM      3  C   UNL     1      33.081 -21.823 -18.816  0.00  0.00    -0.017 C 
ATOM      4  C   UNL     1      35.588 -22.043 -18.824  0.00  0.00    -0.017 C 
ATOM      5  C   UNL     1      33.169 -21.296 -20.251  0.00  0.00    -0.077 C 
ATOM      6  C   UNL     1      35.583 -21.509 -20.258  0.00  0.00    -0.077 C 
ATOM      7  H   UNL     1      34.515 -19.838 -19.821  0.00  0.00    -0.080 HD
ENDROOT
BRANCH   2  11
ATOM      8  F   UNL     1      30.695 -24.534 -13.075  0.00  0.00    -0.204 F 
ATOM      9  O   UNL     1      34.983 -24.008 -15.189  0.00  0.00    -0.354 OA
ATOM     10  N   UNL     1      35.364 -23.565 -16.451  0.00  0.00    -0.081 NA
ATOM     11  C   UNL     1      34.223 -23.269 -17.070  0.00  0.00    +0.100 A 
ATOM     12  C   UNL     1      33.090 -23.496 -16.273  0.00  0.00    +0.054 A 
ATOM     13  C   UNL     1      33.626 -23.965 -15.087  0.00  0.00    +0.179 A 
ATOM     14  C   UNL     1      31.698 -23.370 -16.390  0.00  0.00    +0.007 C 
ATOM     15  C   UNL     1      32.872 -24.330 -13.975  0.00  0.00    +0.070 C 
ATOM     16  C   UNL     1      30.907 -23.729 -15.289  0.00  0.00    +0.030 C 
ATOM     17  C   UNL     1      31.485 -24.201 -14.106  0.00  0.00    +0.143 C 
ENDBRANCH   2  11
BRANCH   1  18
ATOM     18  C   UNL     1      34.489 -20.062 -21.843  0.00  0.00    -0.076 C 
BRANCH  18  19
ATOM     19  C   UNL     1      35.550 -18.974 -21.928  0.00  0.00    -0.007 C 
BRANCH  19  23
ATOM     20  O   UNL     1      35.340 -16.420 -20.866  0.00  0.00    -0.274 OA
ATOM     21  N   UNL     1      34.483 -15.445 -22.810  0.00  0.00    -0.211 N 
ATOM     22  N   UNL     1      34.207 -16.787 -24.749  0.00  0.00    -0.395 NA
ATOM     23  C   UNL     1      35.065 -17.818 -22.752  0.00  0.00    +0.123 C 
ATOM     24  C   UNL     1      34.683 -17.864 -24.043  0.00  0.00    +0.097 C 
ATOM     25  C   UNL     1      34.980 -16.502 -22.041  0.00  0.00    +0.241 C 
ATOM     26  C   UNL     1      34.115 -15.641 -24.146  0.00  0.00    +0.188 C 
ATOM     27  C   UNL     1      34.761 -19.119 -24.873  0.00  0.00    +0.062 C 
ATOM     28  C   UNL     1      33.593 -14.445 -24.899  0.00  0.00    +0.023 C 
ATOM     29  C   UNL     1      34.365 -14.192 -22.220  0.00  0.00    +0.074 C 
ATOM     30  C   UNL     1      33.508 -13.269 -24.261  0.00  0.00    +0.001 C 
ATOM     31  C   UNL     1      33.902 -13.132 -22.889  0.00  0.00    +0.016 C 
ATOM     32  C   UNL     1      33.191 -14.627 -26.330  0.00  0.00    +0.035 C 
ENDBRANCH  19  23
ENDBRANCH  18  19
ENDBRANCH   1  18
TORSDOF 4
ENDMDL
MODEL 5
REMARK VINA RESULT:     -12.6      1.114      2.046
REMARK  Name = 71351
REMARK  4 active torsions:
REMARK  status: ('A' for Active; 'I' for Inactive)
REMARK    1  A    between atoms: N_1  and  C_18
REMARK    2  A    between atoms: C_2  and  C_11
REMARK    3  A    between atoms: C_18  and  C_19
REMARK    4  A    between atoms: C_19  and  C_23
REMARK                            x       y       z     vdW  Elec       q    Type
REMARK                         _______ _______ _______ _____ _____    ______ ____
ROOT
ATOM      1  N   UNL     1      35.747 -19.610 -20.664  0.00  0.00    +0.387 N 
ATOM      2  C   UNL     1      35.151 -18.680 -23.382  0.00  0.00    +0.039 C 
ATOM      3  C   UNL     1      36.211 -18.008 -22.493  0.00  0.00    -0.017 C 
ATOM      4  C   UNL     1      34.106 -19.387 -22.504  0.00  0.00    -0.017 C 
ATOM      5  C   UNL     1      36.800 -18.999 -21.486  0.00  0.00    -0.077 C 
ATOM      6  C   UNL     1      34.773 -20.328 -21.497  0.00  0.00    -0.077 C 
ATOM      7  H   UNL     1      35.253 -18.862 -20.177  0.00  0.00    -0.080 HD
ENDROOT
BRANCH   2  11
ATOM      8  F   UNL     1      33.144 -12.454 -24.944  0.00  0.00    -0.204 F 
ATOM      9  O   UNL     1      33.617 -17.068 -26.216  0.00  0.00    -0.354 OA
ATOM     10  N   UNL     1      34.133 -18.179 -25.559  0.00  0.00    -0.081 NA
ATOM     11  C   UNL     1      34.528 -17.723 -24.373  0.00  0.00    +0.100 A 
ATOM     12  C   UNL     1      34.298 -16.349 -24.207  0.00  0.00    +0.054 A 
ATOM     13  C   UNL     1      33.717 -15.978 -25.407  0.00  0.00    +0.179 A 
ATOM     14  C   UNL     1      34.498 -15.375 -23.217  0.00  0.00    +0.007 C 
ATOM     15  C   UNL     1      33.307 -14.684 -25.714  0.00  0.00    +0.070 C 
ATOM     16  C   UNL     1      34.098 -14.060 -23.492  0.00  0.00    +0.030 C 
ATOM     17  C   UNL     1      33.514 -13.723 -24.719  0.00  0.00    +0.143 C 
ENDBRANCH   2  11
BRANCH   1  18
ATOM     18  C   UNL     1      36.332 -20.510 -19.670  0.00  0.00    -0.076 C 
BRANCH  18  19
ATOM     19  C   UNL     1      35.730 -21.901 -19.813  0.00  0.00    -0.007 C 
BRANCH  19  23
ATOM     20  O   UNL     1      33.039 -22.491 -19.494  0.00  0.00    -0.274 OA
ATOM     21  N   UNL     1      33.203 -23.045 -17.230  0.00  0.00    -0.211 N 
ATOM     22  N   UNL     1      35.331 -22.982 -16.177  0.00  0.00    -0.395 NA
ATOM     23  C   UNL     1      35.181 -22.383 -18.502  0.00  0.00    +0.123 C 
ATOM     24  C   UNL     1      35.881 -22.577 -17.368  0.00  0.00    +0.097 C 
ATOM     25  C   UNL     1      33.706 -22.640 -18.470  0.00  0.00    +0.241 C 
ATOM     26  C   UNL     1      34.052 -23.198 -16.127  0.00  0.00    +0.188 C 
ATOM     27  C   UNL     1      37.374 -22.390 -17.288  0.00  0.00    +0.062 C 
ATOM     28  C   UNL     1      33.424 -23.641 -14.831  0.00  0.00    +0.023 C 
ATOM     29  C   UNL     1      31.840 -23.295 -17.114  0.00  0.00    +0.074 C 
ATOM     30  C   UNL     1      32.102 -23.863 -14.798  0.00  0.00    +0.001 C 
ATOM     31  C   UNL     1      31.285 -23.688 -15.964  0.00  0.00    +0.016 C 
ATOM     32  C   UNL     1      34.309 -23.812 -13.635  0.00  0.00    +0.035 C 
ENDBRANCH  19  23
ENDBRANCH  18  19
ENDBRANCH   1  18
TORSDOF 4
ENDMDL
MODEL 6
REMARK VINA RESULT:     -12.3      6.999     14.032
REMARK  Name = 71351
REMARK  4 active torsions:
REMARK  status: ('A' for Active; 'I' for Inactive)
REMARK    1  A    between atoms: N_1  and  C_18
REMARK    2  A    between atoms: C_2  and  C_11
REMARK    3  A    between atoms: C_18  and  C_19
REMARK    4  A    between atoms: C_19  and  C_23
REMARK                            x       y       z     vdW  Elec       q    Type
REMARK                         _______ _______ _______ _____ _____    ______ ____
ROOT
ATOM      1  N   UNL     1      32.457  -9.843 -22.295  0.00  0.00    +0.387 N 
ATOM      2  C   UNL     1      32.971 -12.610 -23.120  0.00  0.00    +0.039 C 
ATOM      3  C   UNL     1      32.323 -12.258 -21.771  0.00  0.00    -0.017 C 
ATOM      4  C   UNL     1      33.824 -11.430 -23.614  0.00  0.00    -0.017 C 
ATOM      5  C   UNL     1      31.572 -10.926 -21.847  0.00  0.00    -0.077 C 
ATOM      6  C   UNL     1      33.017 -10.129 -23.622  0.00  0.00    -0.077 C 
ATOM      7  H   UNL     1      33.232  -9.776 -21.634  0.00  0.00    -0.080 HD
ENDROOT
BRANCH   2  11
ATOM      8  F   UNL     1      34.654 -18.451 -25.999  0.00  0.00    -0.204 F 
ATOM      9  O   UNL     1      35.071 -15.418 -22.289  0.00  0.00    -0.354 OA
ATOM     10  N   UNL     1      34.512 -14.174 -22.021  0.00  0.00    -0.081 NA
ATOM     11  C   UNL     1      33.744 -13.909 -23.075  0.00  0.00    +0.100 A 
ATOM     12  C   UNL     1      33.766 -14.926 -24.042  0.00  0.00    +0.054 A 
ATOM     13  C   UNL     1      34.625 -15.864 -23.495  0.00  0.00    +0.179 A 
ATOM     14  C   UNL     1      33.183 -15.182 -25.291  0.00  0.00    +0.007 C 
ATOM     15  C   UNL     1      34.962 -17.068 -24.105  0.00  0.00    +0.070 C 
ATOM     16  C   UNL     1      33.501 -16.386 -25.936  0.00  0.00    +0.030 C 
ATOM     17  C   UNL     1      34.374 -17.310 -25.352  0.00  0.00    +0.143 C 
ENDBRANCH   2  11
BRANCH   1  18
ATOM     18  C   UNL     1      31.739  -8.568 -22.306  0.00  0.00    -0.076 C 
BRANCH  18  19
ATOM     19  C   UNL     1      32.685  -7.438 -21.925  0.00  0.00    -0.007 C 
BRANCH  19  23
ATOM     20  O   UNL     1      34.572  -7.300 -23.954  0.00  0.00    -0.274 OA
ATOM     21  N   UNL     1      33.733  -5.334 -24.899  0.00  0.00    -0.211 N 
ATOM     22  N   UNL     1      31.793  -4.338 -23.960  0.00  0.00    -0.395 NA
ATOM     23  C   UNL     1      32.655  -6.346 -22.954  0.00  0.00    +0.123 C 
ATOM     24  C   UNL     1      31.760  -5.341 -23.023  0.00  0.00    +0.097 C 
ATOM     25  C   UNL     1      33.750  -6.384 -23.976  0.00  0.00    +0.241 C 
ATOM     26  C   UNL     1      32.742  -4.347 -24.846  0.00  0.00    +0.188 C 
ATOM     27  C   UNL     1      30.594  -5.219 -22.077  0.00  0.00    +0.062 C 
ATOM     28  C   UNL     1      32.800  -3.256 -25.883  0.00  0.00    +0.023 C 
ATOM     29  C   UNL     1      34.722  -5.292 -25.876  0.00  0.00    +0.074 C 
ATOM     30  C   UNL     1      33.785  -3.283 -26.793  0.00  0.00    +0.001 C 
ATOM     31  C   UNL     1      34.772  -4.324 -26.795  0.00  0.00    +0.016 C 
ATOM     32  C   UNL     1      31.752  -2.186 -25.849  0.00  0.00    +0.035 C 
ENDBRANCH  19  23
ENDBRANCH  18  19
ENDBRANCH   1  18
TORSDOF 4
ENDMDL
MODEL 7
REMARK VINA RESULT:     -12.2      3.582     10.415
REMARK  Name = 71351
REMARK  4 active torsions:
REMARK  status: ('A' for Active; 'I' for Inactive)
REMARK    1  A    between atoms: N_1  and  C_18
REMARK    2  A    between atoms: C_2  and  C_11
REMARK    3  A    between atoms: C_18  and  C_19
REMARK    4  A    between atoms: C_19  and  C_23
REMARK                            x       y       z     vdW  Elec       q    Type
REMARK                         _______ _______ _______ _____ _____    ______ ____
ROOT
ATOM      1  N   UNL     1      34.506 -20.278 -20.761  0.00  0.00    +0.387 N 
ATOM      2  C   UNL     1      34.383 -22.465 -18.810  0.00  0.00    +0.039 C 
ATOM      3  C   UNL     1      33.155 -21.615 -19.176  0.00  0.00    -0.017 C 
ATOM      4  C   UNL     1      35.669 -21.664 -19.072  0.00  0.00    -0.017 C 
ATOM      5  C   UNL     1      33.270 -21.056 -20.596  0.00  0.00    -0.077 C 
ATOM      6  C   UNL     1      35.692 -21.103 -20.496  0.00  0.00    -0.077 C 
ATOM      7  H   UNL     1      34.493 -19.518 -20.081  0.00  0.00    -0.080 HD
ENDROOT
BRANCH   2  11
ATOM      8  F   UNL     1      37.427 -23.818 -12.967  0.00  0.00    -0.204 F 
ATOM      9  O   UNL     1      33.436 -23.916 -15.650  0.00  0.00    -0.354 OA
ATOM     10  N   UNL     1      33.163 -23.503 -16.949  0.00  0.00    -0.081 NA
ATOM     11  C   UNL     1      34.315 -23.014 -17.403  0.00  0.00    +0.100 A 
ATOM     12  C   UNL     1      35.351 -23.082 -16.459  0.00  0.00    +0.054 A 
ATOM     13  C   UNL     1      34.742 -23.663 -15.361  0.00  0.00    +0.179 A 
ATOM     14  C   UNL     1      36.708 -22.736 -16.382  0.00  0.00    +0.007 C 
ATOM     15  C   UNL     1      35.388 -23.936 -14.159  0.00  0.00    +0.070 C 
ATOM     16  C   UNL     1      37.391 -22.996 -15.185  0.00  0.00    +0.030 C 
ATOM     17  C   UNL     1      36.740 -23.585 -14.095  0.00  0.00    +0.143 C 
ENDBRANCH   2  11
BRANCH   1  18
ATOM     18  C   UNL     1      34.572 -19.703 -22.105  0.00  0.00    -0.076 C 
BRANCH  18  19
ATOM     19  C   UNL     1      35.638 -18.618 -22.152  0.00  0.00    -0.007 C 
BRANCH  19  23
ATOM     20  O   UNL     1      34.822 -18.273 -24.780  0.00  0.00    -0.274 OA
ATOM     21  N   UNL     1      34.186 -16.039 -24.520  0.00  0.00    -0.211 N 
ATOM     22  N   UNL     1      34.373 -15.027 -22.380  0.00  0.00    -0.395 NA
ATOM     23  C   UNL     1      35.058 -17.319 -22.631  0.00  0.00    +0.123 C 
ATOM     24  C   UNL     1      34.871 -16.209 -21.891  0.00  0.00    +0.097 C 
ATOM     25  C   UNL     1      34.683 -17.270 -24.080  0.00  0.00    +0.241 C 
ATOM     26  C   UNL     1      34.054 -14.961 -23.637  0.00  0.00    +0.188 C 
ATOM     27  C   UNL     1      35.173 -16.150 -20.416  0.00  0.00    +0.062 C 
ATOM     28  C   UNL     1      33.507 -13.674 -24.198  0.00  0.00    +0.023 C 
ATOM     29  C   UNL     1      33.824 -15.907 -25.856  0.00  0.00    +0.074 C 
ATOM     30  C   UNL     1      33.180 -13.625 -25.497  0.00  0.00    +0.001 C 
ATOM     31  C   UNL     1      33.339 -14.766 -26.352  0.00  0.00    +0.016 C 
ATOM     32  C   UNL     1      33.356 -12.504 -23.275  0.00  0.00    +0.035 C 
ENDBRANCH  19  23
ENDBRANCH  18  19
ENDBRANCH   1  18
TORSDOF 4
ENDMDL
MODEL 8
REMARK VINA RESULT:     -12.2      7.123     14.088
REMARK  Name = 71351
REMARK  4 active torsions:
REMARK  status: ('A' for Active; 'I' for Inactive)
REMARK    1  A    between atoms: N_1  and  C_18
REMARK    2  A    between atoms: C_2  and  C_11
REMARK    3  A    between atoms: C_18  and  C_19
REMARK    4  A    between atoms: C_19  and  C_23
REMARK                            x       y       z     vdW  Elec       q    Type
REMARK                         _______ _______ _______ _____ _____    ______ ____
ROOT
ATOM      1  N   UNL     1      32.313  -9.875 -22.192  0.00  0.00    +0.387 N 
ATOM      2  C   UNL     1      32.886 -12.625 -23.039  0.00  0.00    +0.039 C 
ATOM      3  C   UNL     1      32.261 -12.295 -21.673  0.00  0.00    -0.017 C 
ATOM      4  C   UNL     1      33.693 -11.419 -23.549  0.00  0.00    -0.017 C 
ATOM      5  C   UNL     1      31.471 -10.984 -21.727  0.00  0.00    -0.077 C 
ATOM      6  C   UNL     1      32.849 -10.141 -23.533  0.00  0.00    -0.077 C 
ATOM      7  H   UNL     1      33.102  -9.787 -21.550  0.00  0.00    -0.080 HD
ENDROOT
BRANCH   2  11
ATOM      8  F   UNL     1      34.710 -18.378 -26.005  0.00  0.00    -0.204 F 
ATOM      9  O   UNL     1      35.073 -15.381 -22.262  0.00  0.00    -0.354 OA
ATOM     10  N   UNL     1      34.481 -14.157 -21.973  0.00  0.00    -0.081 NA
ATOM     11  C   UNL     1      33.696 -13.901 -23.017  0.00  0.00    +0.100 A 
ATOM     12  C   UNL     1      33.738 -14.905 -23.996  0.00  0.00    +0.054 A 
ATOM     13  C   UNL     1      34.628 -15.824 -23.469  0.00  0.00    +0.179 A 
ATOM     14  C   UNL     1      33.152 -15.162 -25.244  0.00  0.00    +0.007 C 
ATOM     15  C   UNL     1      34.995 -17.011 -24.097  0.00  0.00    +0.070 C 
ATOM     16  C   UNL     1      33.498 -16.348 -25.906  0.00  0.00    +0.030 C 
ATOM     17  C   UNL     1      34.403 -17.254 -25.342  0.00  0.00    +0.143 C 
ENDBRANCH   2  11
BRANCH   1  18
ATOM     18  C   UNL     1      31.560  -8.621 -22.182  0.00  0.00    -0.076 C 
BRANCH  18  19
ATOM     19  C   UNL     1      32.447  -7.488 -21.686  0.00  0.00    -0.007 C 
BRANCH  19  23
ATOM     20  O   UNL     1      30.697  -5.371 -22.076  0.00  0.00    -0.274 OA
ATOM     21  N   UNL     1      31.832  -4.486 -23.917  0.00  0.00    -0.211 N 
ATOM     22  N   UNL     1      33.837  -5.528 -24.647  0.00  0.00    -0.395 NA
ATOM     23  C   UNL     1      32.671  -6.472 -22.767  0.00  0.00    +0.123 C 
ATOM     24  C   UNL     1      33.691  -6.456 -23.646  0.00  0.00    +0.097 C 
ATOM     25  C   UNL     1      31.632  -5.398 -22.876  0.00  0.00    +0.241 C 
ATOM     26  C   UNL     1      32.941  -4.597 -24.765  0.00  0.00    +0.188 C 
ATOM     27  C   UNL     1      34.815  -7.459 -23.611  0.00  0.00    +0.062 C 
ATOM     28  C   UNL     1      33.077  -3.569 -25.858  0.00  0.00    +0.023 C 
ATOM     29  C   UNL     1      30.907  -3.463 -24.092  0.00  0.00    +0.074 C 
ATOM     30  C   UNL     1      32.144  -2.611 -25.963  0.00  0.00    +0.001 C 
ATOM     31  C   UNL     1      31.030  -2.552 -25.061  0.00  0.00    +0.016 C 
ATOM     32  C   UNL     1      34.253  -3.663 -26.780  0.00  0.00    +0.035 C 
ENDBRANCH  19  23
ENDBRANCH  18  19
ENDBRANCH   1  18
TORSDOF 4
ENDMDL
MODEL 9
REMARK VINA RESULT:     -12.2      2.465      4.587
REMARK  Name = 71351
REMARK  4 active torsions:
REMARK  status: ('A' for Active; 'I' for Inactive)
REMARK    1  A    between atoms: N_1  and  C_18
REMARK    2  A    between atoms: C_2  and  C_11
REMARK    3  A    between atoms: C_18  and  C_19
REMARK    4  A    between atoms: C_19  and  C_23
REMARK                            x       y       z     vdW  Elec       q    Type
REMARK                         _______ _______ _______ _____ _____    ______ ____
ROOT
ATOM      1  N   UNL     1      34.368 -22.221 -18.584  0.00  0.00    +0.387 N 
ATOM      2  C   UNL     1      34.886 -20.521 -20.918  0.00  0.00    +0.039 C 
ATOM      3  C   UNL     1      35.972 -20.852 -19.881  0.00  0.00    -0.017 C 
ATOM      4  C   UNL     1      33.496 -20.636 -20.273  0.00  0.00    -0.017 C 
ATOM      5  C   UNL     1      35.700 -22.197 -19.203  0.00  0.00    -0.077 C 
ATOM      6  C   UNL     1      33.315 -21.990 -19.581  0.00  0.00    -0.077 C 
ATOM      7  H   UNL     1      34.326 -21.465 -17.900  0.00  0.00    -0.080 HD
ENDROOT
BRANCH   2  11
ATOM      8  F   UNL     1      34.204 -16.569 -26.316  0.00  0.00    -0.204 F 
ATOM      9  O   UNL     1      35.768 -17.141 -21.804  0.00  0.00    -0.354 OA
ATOM     10  N   UNL     1      35.724 -18.213 -20.921  0.00  0.00    -0.081 NA
ATOM     11  C   UNL     1      35.109 -19.185 -21.590  0.00  0.00    +0.100 A 
ATOM     12  C   UNL     1      34.736 -18.808 -22.889  0.00  0.00    +0.054 A 
ATOM     13  C   UNL     1      35.177 -17.499 -22.977  0.00  0.00    +0.179 A 
ATOM     14  C   UNL     1      34.094 -19.387 -23.993  0.00  0.00    +0.007 C 
ATOM     15  C   UNL     1      35.028 -16.695 -24.103  0.00  0.00    +0.070 C 
ATOM     16  C   UNL     1      33.925 -18.605 -25.145  0.00  0.00    +0.030 C 
ATOM     17  C   UNL     1      34.383 -17.284 -25.196  0.00  0.00    +0.143 C 
ENDBRANCH   2  11
BRANCH   1  18
ATOM     18  C   UNL     1      34.148 -23.491 -17.892  0.00  0.00    -0.076 C 
BRANCH  18  19
ATOM     19  C   UNL     1      33.251 -23.273 -16.682  0.00  0.00    -0.007 C 
BRANCH  19  23
ATOM     20  O   UNL     1      36.016 -23.483 -16.588  0.00  0.00    -0.274 OA
ATOM     21  N   UNL     1      36.111 -24.102 -14.337  0.00  0.00    -0.211 N 
ATOM     22  N   UNL     1      34.095 -24.239 -13.090  0.00  0.00    -0.395 NA
ATOM     23  C   UNL     1      33.970 -23.626 -15.413  0.00  0.00    +0.123 C 
ATOM     24  C   UNL     1      33.401 -23.879 -14.219  0.00  0.00    +0.097 C 
ATOM     25  C   UNL     1      35.461 -23.727 -15.517  0.00  0.00    +0.241 C 
ATOM     26  C   UNL     1      35.387 -24.343 -13.164  0.00  0.00    +0.188 C 
ATOM     27  C   UNL     1      31.917 -23.771 -13.982  0.00  0.00    +0.062 C 
ATOM     28  C   UNL     1      36.170 -24.739 -11.939  0.00  0.00    +0.023 C 
ATOM     29  C   UNL     1      37.496 -24.227 -14.351  0.00  0.00    +0.074 C 
ATOM     30  C   UNL     1      37.504 -24.839 -12.032  0.00  0.00    +0.001 C 
ATOM     31  C   UNL     1      38.189 -24.577 -13.265  0.00  0.00    +0.016 C 
ATOM     32  C   UNL     1      35.421 -25.004 -10.670  0.00  0.00    +0.035 C 
ENDBRANCH  19  23
ENDBRANCH  18  19
ENDBRANCH   1  18
TORSDOF 4
ENDMDL
