MODEL 1
REMARK VINA RESULT:     -11.7      0.000      0.000
REMARK  Name = 16040289
REMARK  6 active torsions:
REMARK  status: ('A' for Active; 'I' for Inactive)
REMARK    1  A    between atoms: N_2  and  C_20
REMARK    2  A    between atoms: C_3  and  C_6
REMARK    3  A    between atoms: N_11  and  C_13
REMARK    4  A    between atoms: C_13  and  C_15
REMARK    5  A    between atoms: C_23  and  O_26
REMARK    6  A    between atoms: O_26  and  C_27
REMARK                            x       y       z     vdW  Elec       q    Type
REMARK                         _______ _______ _______ _____ _____    ______ ____
ROOT
ATOM      1  O   UNL     1      34.219 -23.858 -17.673  0.00  0.00    -0.270 OA
ATOM      2  N   UNL     1      32.836 -22.043 -18.240  0.00  0.00    -0.280 N 
ATOM      3  C   UNL     1      33.225 -23.162 -17.493  0.00  0.00    +0.252 C 
ATOM      4  H   UNL     1      32.004 -21.602 -17.953  0.00  0.00    +0.155 HD
ENDROOT
BRANCH   3   6
ATOM      5  N   UNL     1      31.958 -24.175 -14.108  0.00  0.00    -0.229 NA
ATOM      6  C   UNL     1      32.306 -23.542 -16.388  0.00  0.00    +0.085 C 
ATOM      7  C   UNL     1      32.770 -23.826 -15.131  0.00  0.00    +0.133 C 
ATOM      8  C   UNL     1      30.958 -23.605 -16.655  0.00  0.00    +0.009 C 
ATOM      9  C   UNL     1      30.089 -23.961 -15.628  0.00  0.00    +0.021 C 
ATOM     10  C   UNL     1      30.635 -24.234 -14.384  0.00  0.00    +0.100 C 
ATOM     11  N   UNL     1      34.162 -23.755 -14.873  0.00  0.00    -0.314 N 
ATOM     12  H   UNL     1      34.766 -23.501 -15.608  0.00  0.00    +0.149 HD
BRANCH  11  13
ATOM     13  C   UNL     1      34.723 -24.036 -13.592  0.00  0.00    +0.115 C 
BRANCH  13  15
ATOM     14  N   UNL     1      37.883 -26.910 -13.937  0.00  0.00    -0.242 NA
ATOM     15  C   UNL     1      35.833 -25.044 -13.712  0.00  0.00    +0.000 C 
ATOM     16  C   UNL     1      36.559 -25.402 -12.590  0.00  0.00    +0.018 C 
ATOM     17  C   UNL     1      36.116 -25.605 -14.946  0.00  0.00    +0.018 C 
ATOM     18  C   UNL     1      37.569 -26.335 -12.754  0.00  0.00    +0.099 C 
ATOM     19  C   UNL     1      37.147 -26.530 -15.005  0.00  0.00    +0.099 C 
ENDBRANCH  13  15
ENDBRANCH  11  13
ENDBRANCH   3   6
BRANCH   2  20
ATOM     20  C   UNL     1      33.482 -21.477 -19.338  0.00  0.00    +0.051 C 
ATOM     21  C   UNL     1      34.854 -21.659 -19.512  0.00  0.00    +0.018 C 
ATOM     22  C   UNL     1      32.755 -20.727 -20.264  0.00  0.00    +0.018 C 
ATOM     23  C   UNL     1      34.773 -20.343 -21.537  0.00  0.00    +0.145 C 
ATOM     24  C   UNL     1      35.499 -21.092 -20.612  0.00  0.00    +0.039 C 
ATOM     25  C   UNL     1      33.401 -20.161 -21.363  0.00  0.00    +0.039 C 
BRANCH  23  26
ATOM     26  O   UNL     1      35.402 -19.788 -22.608  0.00  0.00    -0.453 OA
BRANCH  26  27
ATOM     27  C   UNL     1      35.235 -18.431 -22.822  0.00  0.00    +0.145 C 
ATOM     28  C   UNL     1      34.820 -17.991 -24.067  0.00  0.00    +0.037 C 
ATOM     29  C   UNL     1      35.487 -17.549 -21.787  0.00  0.00    +0.037 C 
ATOM     30  C   UNL     1      34.652 -16.623 -24.283  0.00  0.00    +0.003 C 
ATOM     31  C   UNL     1      35.319 -16.181 -22.002  0.00  0.00    +0.003 C 
ATOM     32  C   UNL     1      34.902 -15.718 -23.250  0.00  0.00    +0.000 C 
ENDBRANCH  26  27
ENDBRANCH  23  26
ENDBRANCH   2  20
TORSDOF 6
ENDMDL
MODEL 2
REMARK VINA RESULT:     -11.1      0.752      1.360
REMARK  Name = 16040289
REMARK  6 active torsions:
REMARK  status: ('A' for Active; 'I' for Inactive)
REMARK    1  A    between atoms: N_2  and  C_20
REMARK    2  A    between atoms: C_3  and  C_6
REMARK    3  A    between atoms: N_11  and  C_13
REMARK    4  A    between atoms: C_13  and  C_15
REMARK    5  A    between atoms: C_23  and  O_26
REMARK    6  A    between atoms: O_26  and  C_27
REMARK                            x       y       z     vdW  Elec       q    Type
REMARK                         _______ _______ _______ _____ _____    ______ ____
ROOT
ATOM      1  O   UNL     1      34.231 -23.631 -17.392  0.00  0.00    -0.270 OA
ATOM      2  N   UNL     1      32.788 -22.045 -18.355  0.00  0.00    -0.280 N 
ATOM      3  C   UNL     1      33.149 -23.058 -17.458  0.00  0.00    +0.252 C 
ATOM      4  H   UNL     1      31.871 -21.697 -18.266  0.00  0.00    +0.155 HD
ENDROOT
BRANCH   3   6
ATOM      5  N   UNL     1      31.420 -24.291 -14.364  0.00  0.00    -0.229 NA
ATOM      6  C   UNL     1      32.082 -23.486 -16.516  0.00  0.00    +0.085 C 
ATOM      7  C   UNL     1      32.370 -23.896 -15.241  0.00  0.00    +0.133 C 
ATOM      8  C   UNL     1      30.778 -23.461 -16.954  0.00  0.00    +0.009 C 
ATOM      9  C   UNL     1      29.772 -23.860 -16.080  0.00  0.00    +0.021 C 
ATOM     10  C   UNL     1      30.143 -24.263 -14.807  0.00  0.00    +0.100 C 
ATOM     11  N   UNL     1      33.718 -23.914 -14.806  0.00  0.00    -0.314 N 
ATOM     12  H   UNL     1      34.421 -23.628 -15.434  0.00  0.00    +0.149 HD
BRANCH  11  13
ATOM     13  C   UNL     1      34.098 -24.328 -13.495  0.00  0.00    +0.115 C 
BRANCH  13  15
ATOM     14  N   UNL     1      38.138 -25.761 -13.489  0.00  0.00    -0.242 NA
ATOM     15  C   UNL     1      35.516 -24.830 -13.492  0.00  0.00    +0.000 C 
ATOM     16  C   UNL     1      36.165 -25.047 -12.289  0.00  0.00    +0.018 C 
ATOM     17  C   UNL     1      36.159 -25.072 -14.695  0.00  0.00    +0.018 C 
ATOM     18  C   UNL     1      37.469 -25.510 -12.341  0.00  0.00    +0.099 C 
ATOM     19  C   UNL     1      37.464 -25.535 -14.639  0.00  0.00    +0.099 C 
ENDBRANCH  13  15
ENDBRANCH  11  13
ENDBRANCH   3   6
BRANCH   2  20
ATOM     20  C   UNL     1      33.566 -21.467 -19.358  0.00  0.00    +0.051 C 
ATOM     21  C   UNL     1      32.969 -20.665 -20.330  0.00  0.00    +0.018 C 
ATOM     22  C   UNL     1      34.943 -21.693 -19.389  0.00  0.00    +0.018 C 
ATOM     23  C   UNL     1      35.124 -20.313 -21.365  0.00  0.00    +0.145 C 
ATOM     24  C   UNL     1      33.749 -20.088 -21.333  0.00  0.00    +0.039 C 
ATOM     25  C   UNL     1      35.722 -21.115 -20.392  0.00  0.00    +0.039 C 
BRANCH  23  26
ATOM     26  O   UNL     1      35.884 -19.752 -22.344  0.00  0.00    -0.453 OA
BRANCH  26  27
ATOM     27  C   UNL     1      35.242 -18.973 -23.291  0.00  0.00    +0.145 C 
ATOM     28  C   UNL     1      34.534 -19.594 -24.305  0.00  0.00    +0.037 C 
ATOM     29  C   UNL     1      35.324 -17.595 -23.200  0.00  0.00    +0.037 C 
ATOM     30  C   UNL     1      33.887 -18.809 -25.261  0.00  0.00    +0.003 C 
ATOM     31  C   UNL     1      34.677 -16.811 -24.155  0.00  0.00    +0.003 C 
ATOM     32  C   UNL     1      33.959 -17.418 -25.185  0.00  0.00    +0.000 C 
ENDBRANCH  26  27
ENDBRANCH  23  26
ENDBRANCH   2  20
TORSDOF 6
ENDMDL
MODEL 3
REMARK VINA RESULT:     -10.9      1.725      4.320
REMARK  Name = 16040289
REMARK  6 active torsions:
REMARK  status: ('A' for Active; 'I' for Inactive)
REMARK    1  A    between atoms: N_2  and  C_20
REMARK    2  A    between atoms: C_3  and  C_6
REMARK    3  A    between atoms: N_11  and  C_13
REMARK    4  A    between atoms: C_13  and  C_15
REMARK    5  A    between atoms: C_23  and  O_26
REMARK    6  A    between atoms: O_26  and  C_27
REMARK                            x       y       z     vdW  Elec       q    Type
REMARK                         _______ _______ _______ _____ _____    ______ ____
ROOT
ATOM      1  O   UNL     1      37.137 -21.704 -16.163  0.00  0.00    -0.270 OA
ATOM      2  N   UNL     1      35.499 -23.155 -17.021  0.00  0.00    -0.280 N 
ATOM      3  C   UNL     1      36.501 -22.752 -16.129  0.00  0.00    +0.252 C 
ATOM      4  H   UNL     1      35.091 -24.034 -16.843  0.00  0.00    +0.155 HD
ENDROOT
BRANCH   3   6
ATOM      5  N   UNL     1      36.147 -25.055 -13.187  0.00  0.00    -0.229 NA
ATOM      6  C   UNL     1      36.827 -23.725 -15.055  0.00  0.00    +0.085 C 
ATOM      7  C   UNL     1      35.877 -24.172 -14.174  0.00  0.00    +0.133 C 
ATOM      8  C   UNL     1      38.123 -24.177 -14.958  0.00  0.00    +0.009 C 
ATOM      9  C   UNL     1      38.440 -25.087 -13.955  0.00  0.00    +0.021 C 
ATOM     10  C   UNL     1      37.424 -25.491 -13.102  0.00  0.00    +0.100 C 
ATOM     11  N   UNL     1      34.547 -23.696 -14.289  0.00  0.00    -0.314 N 
ATOM     12  H   UNL     1      34.336 -23.053 -15.005  0.00  0.00    +0.149 HD
BRANCH  11  13
ATOM     13  C   UNL     1      33.503 -24.112 -13.412  0.00  0.00    +0.115 C 
BRANCH  13  15
ATOM     14  N   UNL     1      29.836 -24.608 -15.575  0.00  0.00    -0.242 NA
ATOM     15  C   UNL     1      32.216 -24.287 -14.171  0.00  0.00    +0.000 C 
ATOM     16  C   UNL     1      31.375 -25.341 -13.861  0.00  0.00    +0.018 C 
ATOM     17  C   UNL     1      31.886 -23.390 -15.173  0.00  0.00    +0.018 C 
ATOM     18  C   UNL     1      30.202 -25.457 -14.589  0.00  0.00    +0.099 C 
ATOM     19  C   UNL     1      30.689 -23.594 -15.842  0.00  0.00    +0.099 C 
ENDBRANCH  13  15
ENDBRANCH  11  13
ENDBRANCH   3   6
BRANCH   2  20
ATOM     20  C   UNL     1      35.007 -22.466 -18.130  0.00  0.00    +0.051 C 
ATOM     21  C   UNL     1      35.890 -21.863 -19.025  0.00  0.00    +0.018 C 
ATOM     22  C   UNL     1      33.630 -22.380 -18.341  0.00  0.00    +0.018 C 
ATOM     23  C   UNL     1      34.021 -21.088 -20.346  0.00  0.00    +0.145 C 
ATOM     24  C   UNL     1      35.396 -21.174 -20.134  0.00  0.00    +0.039 C 
ATOM     25  C   UNL     1      33.138 -21.690 -19.451  0.00  0.00    +0.039 C 
BRANCH  23  26
ATOM     26  O   UNL     1      33.540 -20.414 -21.426  0.00  0.00    -0.453 OA
BRANCH  26  27
ATOM     27  C   UNL     1      34.309 -19.382 -21.937  0.00  0.00    +0.145 C 
ATOM     28  C   UNL     1      34.504 -19.301 -23.304  0.00  0.00    +0.037 C 
ATOM     29  C   UNL     1      34.863 -18.460 -21.067  0.00  0.00    +0.037 C 
ATOM     30  C   UNL     1      35.280 -18.262 -23.819  0.00  0.00    +0.003 C 
ATOM     31  C   UNL     1      35.639 -17.421 -21.582  0.00  0.00    +0.003 C 
ATOM     32  C   UNL     1      35.847 -17.323 -22.958  0.00  0.00    +0.000 C 
ENDBRANCH  26  27
ENDBRANCH  23  26
ENDBRANCH   2  20
TORSDOF 6
ENDMDL
MODEL 4
REMARK VINA RESULT:     -10.5      3.573     10.545
REMARK  Name = 16040289
REMARK  6 active torsions:
REMARK  status: ('A' for Active; 'I' for Inactive)
REMARK    1  A    between atoms: N_2  and  C_20
REMARK    2  A    between atoms: C_3  and  C_6
REMARK    3  A    between atoms: N_11  and  C_13
REMARK    4  A    between atoms: C_13  and  C_15
REMARK    5  A    between atoms: C_23  and  O_26
REMARK    6  A    between atoms: O_26  and  C_27
REMARK                            x       y       z     vdW  Elec       q    Type
REMARK                         _______ _______ _______ _____ _____    ______ ____
ROOT
ATOM      1  O   UNL     1      35.620 -18.392 -20.996  0.00  0.00    -0.270 OA
ATOM      2  N   UNL     1      34.400 -20.318 -21.569  0.00  0.00    -0.280 N 
ATOM      3  C   UNL     1      34.971 -19.059 -21.794  0.00  0.00    +0.252 C 
ATOM      4  H   UNL     1      33.908 -20.710 -22.327  0.00  0.00    +0.155 HD
ENDROOT
BRANCH   3   6
ATOM      5  N   UNL     1      34.605 -16.581 -24.590  0.00  0.00    -0.229 NA
ATOM      6  C   UNL     1      34.727 -18.480 -23.142  0.00  0.00    +0.085 C 
ATOM      7  C   UNL     1      34.823 -17.134 -23.375  0.00  0.00    +0.133 C 
ATOM      8  C   UNL     1      34.399 -19.336 -24.168  0.00  0.00    +0.009 C 
ATOM      9  C   UNL     1      34.168 -18.805 -25.433  0.00  0.00    +0.021 C 
ATOM     10  C   UNL     1      34.283 -17.432 -25.589  0.00  0.00    +0.100 C 
ATOM     11  N   UNL     1      35.163 -16.267 -22.306  0.00  0.00    -0.314 N 
ATOM     12  H   UNL     1      35.325 -16.656 -21.416  0.00  0.00    +0.149 HD
BRANCH  11  13
ATOM     13  C   UNL     1      35.281 -14.855 -22.469  0.00  0.00    +0.115 C 
BRANCH  13  15
ATOM     14  N   UNL     1      31.634 -12.903 -21.347  0.00  0.00    -0.242 NA
ATOM     15  C   UNL     1      34.001 -14.171 -22.075  0.00  0.00    +0.000 C 
ATOM     16  C   UNL     1      33.399 -14.484 -20.869  0.00  0.00    +0.018 C 
ATOM     17  C   UNL     1      33.438 -13.232 -22.923  0.00  0.00    +0.018 C 
ATOM     18  C   UNL     1      32.222 -13.826 -20.553  0.00  0.00    +0.099 C 
ATOM     19  C   UNL     1      32.259 -12.629 -22.514  0.00  0.00    +0.099 C 
ENDBRANCH  13  15
ENDBRANCH  11  13
ENDBRANCH   3   6
BRANCH   2  20
ATOM     20  C   UNL     1      34.441 -21.084 -20.404  0.00  0.00    +0.051 C 
ATOM     21  C   UNL     1      35.669 -21.424 -19.836  0.00  0.00    +0.018 C 
ATOM     22  C   UNL     1      33.254 -21.511 -19.809  0.00  0.00    +0.018 C 
ATOM     23  C   UNL     1      34.523 -22.618 -18.075  0.00  0.00    +0.145 C 
ATOM     24  C   UNL     1      35.709 -22.190 -18.670  0.00  0.00    +0.039 C 
ATOM     25  C   UNL     1      33.295 -22.278 -18.643  0.00  0.00    +0.039 C 
BRANCH  23  26
ATOM     26  O   UNL     1      34.563 -23.367 -16.940  0.00  0.00    -0.453 OA
BRANCH  26  27
ATOM     27  C   UNL     1      33.423 -23.407 -16.154  0.00  0.00    +0.145 C 
ATOM     28  C   UNL     1      33.555 -23.420 -14.777  0.00  0.00    +0.037 C 
ATOM     29  C   UNL     1      32.183 -23.434 -16.766  0.00  0.00    +0.037 C 
ATOM     30  C   UNL     1      32.407 -23.462 -13.985  0.00  0.00    +0.003 C 
ATOM     31  C   UNL     1      31.035 -23.476 -15.975  0.00  0.00    +0.003 C 
ATOM     32  C   UNL     1      31.147 -23.490 -14.584  0.00  0.00    +0.000 C 
ENDBRANCH  26  27
ENDBRANCH  23  26
ENDBRANCH   2  20
TORSDOF 6
ENDMDL
MODEL 5
REMARK VINA RESULT:     -10.5      5.507     10.065
REMARK  Name = 16040289
REMARK  6 active torsions:
REMARK  status: ('A' for Active; 'I' for Inactive)
REMARK    1  A    between atoms: N_2  and  C_20
REMARK    2  A    between atoms: C_3  and  C_6
REMARK    3  A    between atoms: N_11  and  C_13
REMARK    4  A    between atoms: C_13  and  C_15
REMARK    5  A    between atoms: C_23  and  O_26
REMARK    6  A    between atoms: O_26  and  C_27
REMARK                            x       y       z     vdW  Elec       q    Type
REMARK                         _______ _______ _______ _____ _____    ______ ____
ROOT
ATOM      1  O   UNL     1      35.232 -15.223 -22.538  0.00  0.00    -0.270 OA
ATOM      2  N   UNL     1      33.355 -14.580 -23.799  0.00  0.00    -0.280 N 
ATOM      3  C   UNL     1      34.371 -15.450 -23.381  0.00  0.00    +0.252 C 
ATOM      4  H   UNL     1      32.748 -14.929 -24.491  0.00  0.00    +0.155 HD
ENDROOT
BRANCH   3   6
ATOM      5  N   UNL     1      35.112 -19.052 -24.132  0.00  0.00    -0.229 NA
ATOM      6  C   UNL     1      34.404 -16.769 -24.066  0.00  0.00    +0.085 C 
ATOM      7  C   UNL     1      35.066 -17.842 -23.530  0.00  0.00    +0.133 C 
ATOM      8  C   UNL     1      33.746 -16.895 -25.268  0.00  0.00    +0.009 C 
ATOM      9  C   UNL     1      33.771 -18.124 -25.917  0.00  0.00    +0.021 C 
ATOM     10  C   UNL     1      34.462 -19.162 -25.312  0.00  0.00    +0.100 C 
ATOM     11  N   UNL     1      35.737 -17.694 -22.291  0.00  0.00    -0.314 N 
ATOM     12  H   UNL     1      35.711 -16.819 -21.841  0.00  0.00    +0.149 HD
BRANCH  11  13
ATOM     13  C   UNL     1      36.448 -18.763 -21.669  0.00  0.00    +0.115 C 
BRANCH  13  15
ATOM     14  N   UNL     1      33.721 -21.525 -19.852  0.00  0.00    -0.242 NA
ATOM     15  C   UNL     1      35.490 -19.731 -21.031  0.00  0.00    +0.000 C 
ATOM     16  C   UNL     1      34.128 -19.562 -21.203  0.00  0.00    +0.018 C 
ATOM     17  C   UNL     1      35.982 -20.784 -20.278  0.00  0.00    +0.018 C 
ATOM     18  C   UNL     1      33.289 -20.481 -20.595  0.00  0.00    +0.099 C 
ATOM     19  C   UNL     1      35.059 -21.650 -19.713  0.00  0.00    +0.099 C 
ENDBRANCH  13  15
ENDBRANCH  11  13
ENDBRANCH   3   6
BRANCH   2  20
ATOM     20  C   UNL     1      33.099 -13.283 -23.357  0.00  0.00    +0.051 C 
ATOM     21  C   UNL     1      33.658 -12.194 -24.026  0.00  0.00    +0.018 C 
ATOM     22  C   UNL     1      32.283 -13.075 -22.244  0.00  0.00    +0.018 C 
ATOM     23  C   UNL     1      32.585 -10.688 -22.470  0.00  0.00    +0.145 C 
ATOM     24  C   UNL     1      33.400 -10.896 -23.582  0.00  0.00    +0.039 C 
ATOM     25  C   UNL     1      32.026 -11.776 -21.801  0.00  0.00    +0.039 C 
BRANCH  23  26
ATOM     26  O   UNL     1      32.335  -9.422 -22.037  0.00  0.00    -0.453 OA
BRANCH  26  27
ATOM     27  C   UNL     1      32.785  -8.373 -22.820  0.00  0.00    +0.145 C 
ATOM     28  C   UNL     1      34.136  -8.076 -22.837  0.00  0.00    +0.037 C 
ATOM     29  C   UNL     1      31.872  -7.647 -23.564  0.00  0.00    +0.037 C 
ATOM     30  C   UNL     1      34.589  -7.018 -23.625  0.00  0.00    +0.003 C 
ATOM     31  C   UNL     1      32.325  -6.589 -24.352  0.00  0.00    +0.003 C 
ATOM     32  C   UNL     1      33.683  -6.275 -24.382  0.00  0.00    +0.000 C 
ENDBRANCH  26  27
ENDBRANCH  23  26
ENDBRANCH   2  20
TORSDOF 6
ENDMDL
MODEL 6
REMARK VINA RESULT:      -9.9      3.449     10.436
REMARK  Name = 16040289
REMARK  6 active torsions:
REMARK  status: ('A' for Active; 'I' for Inactive)
REMARK    1  A    between atoms: N_2  and  C_20
REMARK    2  A    between atoms: C_3  and  C_6
REMARK    3  A    between atoms: N_11  and  C_13
REMARK    4  A    between atoms: C_13  and  C_15
REMARK    5  A    between atoms: C_23  and  O_26
REMARK    6  A    between atoms: O_26  and  C_27
REMARK                            x       y       z     vdW  Elec       q    Type
REMARK                         _______ _______ _______ _____ _____    ______ ____
ROOT
ATOM      1  O   UNL     1      35.712 -18.717 -20.808  0.00  0.00    -0.270 OA
ATOM      2  N   UNL     1      34.225 -20.465 -21.316  0.00  0.00    -0.280 N 
ATOM      3  C   UNL     1      34.953 -19.297 -21.576  0.00  0.00    +0.252 C 
ATOM      4  H   UNL     1      33.661 -20.795 -22.053  0.00  0.00    +0.155 HD
ENDROOT
BRANCH   3   6
ATOM      5  N   UNL     1      34.709 -16.795 -24.363  0.00  0.00    -0.229 NA
ATOM      6  C   UNL     1      34.747 -18.705 -22.924  0.00  0.00    +0.085 C 
ATOM      7  C   UNL     1      34.892 -17.361 -23.149  0.00  0.00    +0.133 C 
ATOM      8  C   UNL     1      34.403 -19.544 -23.958  0.00  0.00    +0.009 C 
ATOM      9  C   UNL     1      34.207 -18.999 -25.223  0.00  0.00    +0.021 C 
ATOM     10  C   UNL     1      34.371 -17.631 -25.371  0.00  0.00    +0.100 C 
ATOM     11  N   UNL     1      35.248 -16.512 -22.072  0.00  0.00    -0.314 N 
ATOM     12  H   UNL     1      35.385 -16.910 -21.182  0.00  0.00    +0.149 HD
BRANCH  11  13
ATOM     13  C   UNL     1      35.417 -15.104 -22.226  0.00  0.00    +0.115 C 
BRANCH  13  15
ATOM     14  N   UNL     1      31.732 -13.060 -21.444  0.00  0.00    -0.242 NA
ATOM     15  C   UNL     1      34.124 -14.386 -21.952  0.00  0.00    +0.000 C 
ATOM     16  C   UNL     1      33.570 -13.574 -22.927  0.00  0.00    +0.018 C 
ATOM     17  C   UNL     1      33.500 -14.544 -20.726  0.00  0.00    +0.018 C 
ATOM     18  C   UNL     1      32.379 -12.936 -22.626  0.00  0.00    +0.099 C 
ATOM     19  C   UNL     1      32.310 -13.862 -20.524  0.00  0.00    +0.099 C 
ENDBRANCH  13  15
ENDBRANCH  11  13
ENDBRANCH   3   6
BRANCH   2  20
ATOM     20  C   UNL     1      34.200 -21.218 -20.142  0.00  0.00    +0.051 C 
ATOM     21  C   UNL     1      35.394 -21.639 -19.557  0.00  0.00    +0.018 C 
ATOM     22  C   UNL     1      32.979 -21.552 -19.554  0.00  0.00    +0.018 C 
ATOM     23  C   UNL     1      34.148 -22.726 -17.795  0.00  0.00    +0.145 C 
ATOM     24  C   UNL     1      35.368 -22.392 -18.383  0.00  0.00    +0.039 C 
ATOM     25  C   UNL     1      32.954 -22.306 -18.380  0.00  0.00    +0.039 C 
BRANCH  23  26
ATOM     26  O   UNL     1      34.122 -23.463 -16.651  0.00  0.00    -0.453 OA
BRANCH  26  27
ATOM     27  C   UNL     1      35.329 -23.715 -16.021  0.00  0.00    +0.145 C 
ATOM     28  C   UNL     1      36.250 -22.690 -15.893  0.00  0.00    +0.037 C 
ATOM     29  C   UNL     1      35.583 -24.985 -15.536  0.00  0.00    +0.037 C 
ATOM     30  C   UNL     1      37.466 -22.945 -15.259  0.00  0.00    +0.003 C 
ATOM     31  C   UNL     1      36.800 -25.240 -14.901  0.00  0.00    +0.003 C 
ATOM     32  C   UNL     1      37.740 -24.220 -14.763  0.00  0.00    +0.000 C 
ENDBRANCH  26  27
ENDBRANCH  23  26
ENDBRANCH   2  20
TORSDOF 6
ENDMDL
MODEL 7
REMARK VINA RESULT:      -9.9      5.030      9.614
REMARK  Name = 16040289
REMARK  6 active torsions:
REMARK  status: ('A' for Active; 'I' for Inactive)
REMARK    1  A    between atoms: N_2  and  C_20
REMARK    2  A    between atoms: C_3  and  C_6
REMARK    3  A    between atoms: N_11  and  C_13
REMARK    4  A    between atoms: C_13  and  C_15
REMARK    5  A    between atoms: C_23  and  O_26
REMARK    6  A    between atoms: O_26  and  C_27
REMARK                            x       y       z     vdW  Elec       q    Type
REMARK                         _______ _______ _______ _____ _____    ______ ____
ROOT
ATOM      1  O   UNL     1      35.352 -15.771 -22.816  0.00  0.00    -0.270 OA
ATOM      2  N   UNL     1      33.688 -15.212 -24.380  0.00  0.00    -0.280 N 
ATOM      3  C   UNL     1      34.575 -16.069 -23.717  0.00  0.00    +0.252 C 
ATOM      4  H   UNL     1      33.135 -15.624 -25.083  0.00  0.00    +0.155 HD
ENDROOT
BRANCH   3   6
ATOM      5  N   UNL     1      35.095 -19.785 -23.832  0.00  0.00    -0.229 NA
ATOM      6  C   UNL     1      34.575 -17.478 -24.191  0.00  0.00    +0.085 C 
ATOM      7  C   UNL     1      35.082 -18.495 -23.425  0.00  0.00    +0.133 C 
ATOM      8  C   UNL     1      34.049 -17.747 -25.433  0.00  0.00    +0.009 C 
ATOM      9  C   UNL     1      34.045 -19.062 -25.887  0.00  0.00    +0.021 C 
ATOM     10  C   UNL     1      34.575 -20.035 -25.055  0.00  0.00    +0.100 C 
ATOM     11  N   UNL     1      35.619 -18.200 -22.148  0.00  0.00    -0.314 N 
ATOM     12  H   UNL     1      35.615 -17.266 -21.838  0.00  0.00    +0.149 HD
BRANCH  11  13
ATOM     13  C   UNL     1      36.165 -19.203 -21.292  0.00  0.00    +0.115 C 
BRANCH  13  15
ATOM     14  N   UNL     1      33.061 -21.766 -19.820  0.00  0.00    -0.242 NA
ATOM     15  C   UNL     1      35.076 -20.103 -20.776  0.00  0.00    +0.000 C 
ATOM     16  C   UNL     1      35.407 -21.227 -20.040  0.00  0.00    +0.018 C 
ATOM     17  C   UNL     1      33.752 -19.798 -21.042  0.00  0.00    +0.018 C 
ATOM     18  C   UNL     1      34.368 -22.023 -19.587  0.00  0.00    +0.099 C 
ATOM     19  C   UNL     1      32.786 -20.657 -20.543  0.00  0.00    +0.099 C 
ENDBRANCH  13  15
ENDBRANCH  11  13
ENDBRANCH   3   6
BRANCH   2  20
ATOM     20  C   UNL     1      33.492 -13.848 -24.168  0.00  0.00    +0.051 C 
ATOM     21  C   UNL     1      32.987 -13.396 -22.949  0.00  0.00    +0.018 C 
ATOM     22  C   UNL     1      33.799 -12.934 -25.177  0.00  0.00    +0.018 C 
ATOM     23  C   UNL     1      33.098 -11.118 -23.746  0.00  0.00    +0.145 C 
ATOM     24  C   UNL     1      32.790 -12.031 -22.738  0.00  0.00    +0.039 C 
ATOM     25  C   UNL     1      33.602 -11.569 -24.965  0.00  0.00    +0.039 C 
BRANCH  23  26
ATOM     26  O   UNL     1      32.904  -9.787 -23.541  0.00  0.00    -0.453 OA
BRANCH  26  27
ATOM     27  C   UNL     1      32.625  -9.368 -22.251  0.00  0.00    +0.145 C 
ATOM     28  C   UNL     1      33.218  -8.211 -21.775  0.00  0.00    +0.037 C 
ATOM     29  C   UNL     1      31.762 -10.115 -21.471  0.00  0.00    +0.037 C 
ATOM     30  C   UNL     1      32.938  -7.790 -20.475  0.00  0.00    +0.003 C 
ATOM     31  C   UNL     1      31.481  -9.694 -20.171  0.00  0.00    +0.003 C 
ATOM     32  C   UNL     1      32.069  -8.531 -19.674  0.00  0.00    +0.000 C 
ENDBRANCH  26  27
ENDBRANCH  23  26
ENDBRANCH   2  20
TORSDOF 6
ENDMDL
MODEL 8
REMARK VINA RESULT:      -9.6      9.669     16.081
REMARK  Name = 16040289
REMARK  6 active torsions:
REMARK  status: ('A' for Active; 'I' for Inactive)
REMARK    1  A    between atoms: N_2  and  C_20
REMARK    2  A    between atoms: C_3  and  C_6
REMARK    3  A    between atoms: N_11  and  C_13
REMARK    4  A    between atoms: C_13  and  C_15
REMARK    5  A    between atoms: C_23  and  O_26
REMARK    6  A    between atoms: O_26  and  C_27
REMARK                            x       y       z     vdW  Elec       q    Type
REMARK                         _______ _______ _______ _____ _____    ______ ____
ROOT
ATOM      1  O   UNL     1      34.363  -9.005 -23.786  0.00  0.00    -0.270 OA
ATOM      2  N   UNL     1      32.701 -10.455 -22.975  0.00  0.00    -0.280 N 
ATOM      3  C   UNL     1      33.393  -9.242 -23.074  0.00  0.00    +0.252 C 
ATOM      4  H   UNL     1      31.941 -10.468 -22.349  0.00  0.00    +0.155 HD
ENDROOT
BRANCH   3   6
ATOM      5  N   UNL     1      32.071  -5.923 -21.923  0.00  0.00    -0.229 NA
ATOM      6  C   UNL     1      32.898  -8.151 -22.195  0.00  0.00    +0.085 C 
ATOM      7  C   UNL     1      32.524  -6.933 -22.699  0.00  0.00    +0.133 C 
ATOM      8  C   UNL     1      32.819  -8.390 -20.842  0.00  0.00    +0.009 C 
ATOM      9  C   UNL     1      32.357  -7.375 -20.010  0.00  0.00    +0.021 C 
ATOM     10  C   UNL     1      31.999  -6.171 -20.595  0.00  0.00    +0.100 C 
ATOM     11  N   UNL     1      32.611  -6.705 -24.095  0.00  0.00    -0.314 N 
ATOM     12  H   UNL     1      32.938  -7.432 -24.673  0.00  0.00    +0.149 HD
BRANCH  11  13
ATOM     13  C   UNL     1      32.242  -5.465 -24.696  0.00  0.00    +0.115 C 
BRANCH  13  15
ATOM     14  N   UNL     1      35.342  -4.083 -27.312  0.00  0.00    -0.242 NA
ATOM     15  C   UNL     1      33.331  -4.980 -25.614  0.00  0.00    +0.000 C 
ATOM     16  C   UNL     1      34.580  -5.573 -25.568  0.00  0.00    +0.018 C 
ATOM     17  C   UNL     1      33.071  -3.945 -26.496  0.00  0.00    +0.018 C 
ATOM     18  C   UNL     1      35.547  -5.090 -26.434  0.00  0.00    +0.099 C 
ATOM     19  C   UNL     1      34.106  -3.536 -27.321  0.00  0.00    +0.099 C 
ENDBRANCH  13  15
ENDBRANCH  11  13
ENDBRANCH   3   6
BRANCH   2  20
ATOM     20  C   UNL     1      32.954 -11.648 -23.653  0.00  0.00    +0.051 C 
ATOM     21  C   UNL     1      32.804 -12.869 -22.996  0.00  0.00    +0.018 C 
ATOM     22  C   UNL     1      33.359 -11.618 -24.988  0.00  0.00    +0.018 C 
ATOM     23  C   UNL     1      33.463 -14.032 -25.010  0.00  0.00    +0.145 C 
ATOM     24  C   UNL     1      33.058 -14.062 -23.676  0.00  0.00    +0.039 C 
ATOM     25  C   UNL     1      33.613 -12.810 -25.666  0.00  0.00    +0.039 C 
BRANCH  23  26
ATOM     26  O   UNL     1      33.712 -15.195 -25.671  0.00  0.00    -0.453 OA
BRANCH  26  27
ATOM     27  C   UNL     1      34.146 -16.278 -24.928  0.00  0.00    +0.145 C 
ATOM     28  C   UNL     1      33.758 -17.553 -25.304  0.00  0.00    +0.037 C 
ATOM     29  C   UNL     1      34.956 -16.061 -23.827  0.00  0.00    +0.037 C 
ATOM     30  C   UNL     1      34.194 -18.645 -24.554  0.00  0.00    +0.003 C 
ATOM     31  C   UNL     1      35.392 -17.153 -23.077  0.00  0.00    +0.003 C 
ATOM     32  C   UNL     1      35.011 -18.445 -23.441  0.00  0.00    +0.000 C 
ENDBRANCH  26  27
ENDBRANCH  23  26
ENDBRANCH   2  20
TORSDOF 6
ENDMDL
MODEL 9
REMARK VINA RESULT:      -9.5      9.823     15.710
REMARK  Name = 16040289
REMARK  6 active torsions:
REMARK  status: ('A' for Active; 'I' for Inactive)
REMARK    1  A    between atoms: N_2  and  C_20
REMARK    2  A    between atoms: C_3  and  C_6
REMARK    3  A    between atoms: N_11  and  C_13
REMARK    4  A    between atoms: C_13  and  C_15
REMARK    5  A    between atoms: C_23  and  O_26
REMARK    6  A    between atoms: O_26  and  C_27
REMARK                            x       y       z     vdW  Elec       q    Type
REMARK                         _______ _______ _______ _____ _____    ______ ____
ROOT
ATOM      1  O   UNL     1      30.790 -10.117 -22.497  0.00  0.00    -0.270 OA
ATOM      2  N   UNL     1      33.103 -10.354 -22.839  0.00  0.00    -0.280 N 
ATOM      3  C   UNL     1      31.945  -9.731 -22.357  0.00  0.00    +0.252 C 
ATOM      4  H   UNL     1      33.954  -9.902 -22.634  0.00  0.00    +0.155 HD
ENDROOT
BRANCH   3   6
ATOM      5  N   UNL     1      32.176  -6.064 -21.593  0.00  0.00    -0.229 NA
ATOM      6  C   UNL     1      32.164  -8.455 -21.628  0.00  0.00    +0.085 C 
ATOM      7  C   UNL     1      31.983  -7.239 -22.232  0.00  0.00    +0.133 C 
ATOM      8  C   UNL     1      32.559  -8.517 -20.311  0.00  0.00    +0.009 C 
ATOM      9  C   UNL     1      32.768  -7.329 -19.619  0.00  0.00    +0.021 C 
ATOM     10  C   UNL     1      32.564  -6.139 -20.300  0.00  0.00    +0.100 C 
ATOM     11  N   UNL     1      31.574  -7.193 -23.589  0.00  0.00    -0.314 N 
ATOM     12  H   UNL     1      31.429  -8.042 -24.067  0.00  0.00    +0.149 HD
BRANCH  11  13
ATOM     13  C   UNL     1      31.365  -5.968 -24.288  0.00  0.00    +0.115 C 
BRANCH  13  15
ATOM     14  N   UNL     1      34.964  -4.735 -26.260  0.00  0.00    -0.242 NA
ATOM     15  C   UNL     1      32.628  -5.535 -24.981  0.00  0.00    +0.000 C 
ATOM     16  C   UNL     1      32.604  -4.443 -25.831  0.00  0.00    +0.018 C 
ATOM     17  C   UNL     1      33.803  -6.233 -24.761  0.00  0.00    +0.018 C 
ATOM     18  C   UNL     1      33.793  -4.085 -26.444  0.00  0.00    +0.099 C 
ATOM     19  C   UNL     1      34.939  -5.794 -25.421  0.00  0.00    +0.099 C 
ENDBRANCH  13  15
ENDBRANCH  11  13
ENDBRANCH   3   6
BRANCH   2  20
ATOM     20  C   UNL     1      33.201 -11.536 -23.572  0.00  0.00    +0.051 C 
ATOM     21  C   UNL     1      33.624 -11.500 -24.901  0.00  0.00    +0.018 C 
ATOM     22  C   UNL     1      32.876 -12.755 -22.976  0.00  0.00    +0.018 C 
ATOM     23  C   UNL     1      33.396 -13.902 -25.039  0.00  0.00    +0.145 C 
ATOM     24  C   UNL     1      33.722 -12.684 -25.634  0.00  0.00    +0.039 C 
ATOM     25  C   UNL     1      32.974 -13.938 -23.710  0.00  0.00    +0.039 C 
BRANCH  23  26
ATOM     26  O   UNL     1      33.490 -15.056 -25.755  0.00  0.00    -0.453 OA
BRANCH  26  27
ATOM     27  C   UNL     1      33.950 -16.185 -25.099  0.00  0.00    +0.145 C 
ATOM     28  C   UNL     1      34.757 -16.035 -23.984  0.00  0.00    +0.037 C 
ATOM     29  C   UNL     1      33.593 -17.434 -25.575  0.00  0.00    +0.037 C 
ATOM     30  C   UNL     1      35.221 -17.173 -23.324  0.00  0.00    +0.003 C 
ATOM     31  C   UNL     1      34.058 -18.571 -24.915  0.00  0.00    +0.003 C 
ATOM     32  C   UNL     1      34.872 -18.440 -23.790  0.00  0.00    +0.000 C 
ENDBRANCH  26  27
ENDBRANCH  23  26
ENDBRANCH   2  20
TORSDOF 6
ENDMDL
