MODEL 1
REMARK VINA RESULT:     -11.8      0.000      0.000
REMARK  Name = 448890
REMARK  6 active torsions:
REMARK  status: ('A' for Active; 'I' for Inactive)
REMARK    1  A    between atoms: C_1  and  C_2
REMARK    2  A    between atoms: C_1  and  C_17
REMARK    3  A    between atoms: C_2  and  C_3
REMARK    4  A    between atoms: C_3  and  N_4
REMARK    5  A    between atoms: C_8  and  C_11
REMARK    6  A    between atoms: C_17  and  N_21
REMARK                            x       y       z     vdW  Elec       q    Type
REMARK                         _______ _______ _______ _____ _____    ______ ____
ROOT
ATOM      1  C   UNL     1      33.107 -13.980 -21.390  0.00  0.00    +0.022 C 
ENDROOT
BRANCH   1   2
ATOM      2  C   UNL     1      31.998 -13.083 -21.951  0.00  0.00    -0.021 C 
BRANCH   2   3
ATOM      3  C   UNL     1      31.779 -11.859 -21.063  0.00  0.00    -0.077 C 
BRANCH   3   4
ATOM      4  N   UNL     1      31.825 -10.638 -21.865  0.00  0.00    +0.390 N 
ATOM      5  C   UNL     1      32.136  -9.471 -21.032  0.00  0.00    -0.072 C 
ATOM      6  C   UNL     1      32.799 -10.769 -22.959  0.00  0.00    -0.051 C 
ATOM      7  C   UNL     1      32.014  -8.187 -21.867  0.00  0.00    +0.003 C 
ATOM      8  C   UNL     1      32.728  -8.277 -23.197  0.00  0.00    -0.031 C 
ATOM      9  C   UNL     1      33.085  -9.481 -23.684  0.00  0.00    -0.053 C 
ATOM     10  H   UNL     1      30.901 -10.495 -22.272  0.00  0.00    -0.079 HD
BRANCH   8  11
ATOM     11  C   UNL     1      33.009  -7.020 -23.931  0.00  0.00    -0.004 C 
ATOM     12  C   UNL     1      31.984  -6.104 -24.170  0.00  0.00    -0.000 C 
ATOM     13  C   UNL     1      34.302  -6.748 -24.385  0.00  0.00    -0.000 C 
ATOM     14  C   UNL     1      32.248  -4.921 -24.860  0.00  0.00    -0.000 C 
ATOM     15  C   UNL     1      34.567  -5.565 -25.075  0.00  0.00    -0.000 C 
ATOM     16  C   UNL     1      33.540  -4.651 -25.313  0.00  0.00    -0.000 C 
ENDBRANCH   8  11
ENDBRANCH   3   4
ENDBRANCH   2   3
ENDBRANCH   1   2
BRANCH   1  17
ATOM     17  C   UNL     1      34.339 -14.021 -22.288  0.00  0.00    +0.110 C 
BRANCH  17  21
ATOM     18  F   UNL     1      35.117 -19.751 -24.356  0.00  0.00    -0.204 F 
ATOM     19  O   UNL     1      33.344 -13.744 -24.907  0.00  0.00    -0.246 OA
ATOM     20  O   UNL     1      34.106 -18.118 -26.005  0.00  0.00    -0.267 OA
ATOM     21  N   UNL     1      34.280 -15.106 -23.264  0.00  0.00    -0.281 N 
ATOM     22  N   UNL     1      33.739 -15.929 -25.415  0.00  0.00    -0.274 N 
ATOM     23  C   UNL     1      34.753 -16.404 -22.895  0.00  0.00    +0.071 A 
ATOM     24  C   UNL     1      33.762 -14.845 -24.540  0.00  0.00    +0.330 A 
ATOM     25  C   UNL     1      34.704 -17.456 -23.817  0.00  0.00    +0.099 A 
ATOM     26  C   UNL     1      35.273 -16.671 -21.617  0.00  0.00    +0.018 C 
ATOM     27  C   UNL     1      34.166 -17.223 -25.169  0.00  0.00    +0.265 A 
ATOM     28  C   UNL     1      35.159 -18.738 -23.479  0.00  0.00    +0.146 C 
ATOM     29  C   UNL     1      35.728 -17.948 -21.277  0.00  0.00    +0.004 C 
ATOM     30  C   UNL     1      35.672 -18.981 -22.207  0.00  0.00    +0.030 C 
ATOM     31  H   UNL     1      33.376 -15.756 -26.314  0.00  0.00    +0.173 HD
ENDBRANCH  17  21
ENDBRANCH   1  17
TORSDOF 6
ENDMDL
MODEL 2
REMARK VINA RESULT:     -11.7      8.667     12.609
REMARK  Name = 448890
REMARK  6 active torsions:
REMARK  status: ('A' for Active; 'I' for Inactive)
REMARK    1  A    between atoms: C_1  and  C_2
REMARK    2  A    between atoms: C_1  and  C_17
REMARK    3  A    between atoms: C_2  and  C_3
REMARK    4  A    between atoms: C_3  and  N_4
REMARK    5  A    between atoms: C_8  and  C_11
REMARK    6  A    between atoms: C_17  and  N_21
REMARK                            x       y       z     vdW  Elec       q    Type
REMARK                         _______ _______ _______ _____ _____    ______ ____
ROOT
ATOM      1  C   UNL     1      33.652 -23.708 -16.241  0.00  0.00    +0.022 C 
ENDROOT
BRANCH   1   2
ATOM      2  C   UNL     1      33.627 -23.078 -17.638  0.00  0.00    -0.021 C 
BRANCH   2   3
ATOM      3  C   UNL     1      35.042 -22.777 -18.131  0.00  0.00    -0.077 C 
BRANCH   3   4
ATOM      4  N   UNL     1      35.036 -21.599 -18.996  0.00  0.00    +0.390 N 
ATOM      5  C   UNL     1      36.183 -21.608 -19.909  0.00  0.00    -0.072 C 
ATOM      6  C   UNL     1      33.776 -21.510 -19.748  0.00  0.00    -0.051 C 
ATOM      7  C   UNL     1      36.243 -20.284 -20.685  0.00  0.00    +0.003 C 
ATOM      8  C   UNL     1      34.911 -19.887 -21.280  0.00  0.00    -0.031 C 
ATOM      9  C   UNL     1      33.780 -20.468 -20.833  0.00  0.00    -0.053 C 
ATOM     10  H   UNL     1      35.115 -20.773 -18.401  0.00  0.00    -0.079 HD
BRANCH   8  11
ATOM     11  C   UNL     1      34.895 -18.855 -22.343  0.00  0.00    -0.004 C 
ATOM     12  C   UNL     1      35.358 -17.565 -22.076  0.00  0.00    -0.000 C 
ATOM     13  C   UNL     1      34.416 -19.169 -23.618  0.00  0.00    -0.000 C 
ATOM     14  C   UNL     1      35.342 -16.594 -23.077  0.00  0.00    -0.000 C 
ATOM     15  C   UNL     1      34.401 -18.198 -24.619  0.00  0.00    -0.000 C 
ATOM     16  C   UNL     1      34.864 -16.910 -24.349  0.00  0.00    -0.000 C 
ENDBRANCH   8  11
ENDBRANCH   3   4
ENDBRANCH   2   3
ENDBRANCH   1   2
BRANCH   1  17
ATOM     17  C   UNL     1      34.533 -22.934 -15.265  0.00  0.00    +0.110 C 
BRANCH  17  21
ATOM     18  F   UNL     1      39.108 -26.150 -12.727  0.00  0.00    -0.204 F 
ATOM     19  O   UNL     1      33.210 -23.990 -13.015  0.00  0.00    -0.246 OA
ATOM     20  O   UNL     1      36.897 -26.231 -11.497  0.00  0.00    -0.267 OA
ATOM     21  N   UNL     1      35.162 -23.804 -14.274  0.00  0.00    -0.281 N 
ATOM     22  N   UNL     1      35.069 -25.092 -12.292  0.00  0.00    -0.274 N 
ATOM     23  C   UNL     1      36.538 -24.159 -14.431  0.00  0.00    +0.071 A 
ATOM     24  C   UNL     1      34.399 -24.268 -13.194  0.00  0.00    +0.330 A 
ATOM     25  C   UNL     1      37.159 -24.991 -13.491  0.00  0.00    +0.099 A 
ATOM     26  C   UNL     1      37.308 -23.696 -15.511  0.00  0.00    +0.018 C 
ATOM     27  C   UNL     1      36.390 -25.500 -12.342  0.00  0.00    +0.265 A 
ATOM     28  C   UNL     1      38.506 -25.354 -13.622  0.00  0.00    +0.146 C 
ATOM     29  C   UNL     1      38.652 -24.057 -15.644  0.00  0.00    +0.004 C 
ATOM     30  C   UNL     1      39.251 -24.885 -14.700  0.00  0.00    +0.030 C 
ATOM     31  H   UNL     1      34.540 -25.423 -11.530  0.00  0.00    +0.173 HD
ENDBRANCH  17  21
ENDBRANCH   1  17
TORSDOF 6
ENDMDL
MODEL 3
REMARK VINA RESULT:     -11.7      8.230     11.932
REMARK  Name = 448890
REMARK  6 active torsions:
REMARK  status: ('A' for Active; 'I' for Inactive)
REMARK    1  A    between atoms: C_1  and  C_2
REMARK    2  A    between atoms: C_1  and  C_17
REMARK    3  A    between atoms: C_2  and  C_3
REMARK    4  A    between atoms: C_3  and  N_4
REMARK    5  A    between atoms: C_8  and  C_11
REMARK    6  A    between atoms: C_17  and  N_21
REMARK                            x       y       z     vdW  Elec       q    Type
REMARK                         _______ _______ _______ _____ _____    ______ ____
ROOT
ATOM      1  C   UNL     1      36.864 -22.293 -15.738  0.00  0.00    +0.022 C 
ENDROOT
BRANCH   1   2
ATOM      2  C   UNL     1      37.235 -21.508 -17.001  0.00  0.00    -0.021 C 
BRANCH   2   3
ATOM      3  C   UNL     1      36.529 -22.079 -18.230  0.00  0.00    -0.077 C 
BRANCH   3   4
ATOM      4  N   UNL     1      36.159 -21.002 -19.147  0.00  0.00    +0.390 N 
ATOM      5  C   UNL     1      37.246 -20.710 -20.085  0.00  0.00    -0.072 C 
ATOM      6  C   UNL     1      34.923 -21.336 -19.871  0.00  0.00    -0.051 C 
ATOM      7  C   UNL     1      36.895 -19.470 -20.921  0.00  0.00    +0.003 C 
ATOM      8  C   UNL     1      35.500 -19.524 -21.501  0.00  0.00    -0.031 C 
ATOM      9  C   UNL     1      34.602 -20.396 -21.003  0.00  0.00    -0.053 C 
ATOM     10  H   UNL     1      35.989 -20.162 -18.592  0.00  0.00    -0.079 HD
BRANCH   8  11
ATOM     11  C   UNL     1      35.162 -18.600 -22.610  0.00  0.00    -0.004 C 
ATOM     12  C   UNL     1      34.557 -19.087 -23.770  0.00  0.00    -0.000 C 
ATOM     13  C   UNL     1      35.446 -17.237 -22.496  0.00  0.00    -0.000 C 
ATOM     14  C   UNL     1      34.239 -18.217 -24.812  0.00  0.00    -0.000 C 
ATOM     15  C   UNL     1      35.128 -16.366 -23.539  0.00  0.00    -0.000 C 
ATOM     16  C   UNL     1      34.524 -16.856 -24.697  0.00  0.00    -0.000 C 
ENDBRANCH   8  11
ENDBRANCH   3   4
ENDBRANCH   2   3
ENDBRANCH   1   2
BRANCH   1  17
ATOM     17  C   UNL     1      36.277 -23.666 -16.052  0.00  0.00    +0.110 C 
BRANCH  17  21
ATOM     18  F   UNL     1      30.300 -24.023 -14.690  0.00  0.00    -0.204 F 
ATOM     19  O   UNL     1      36.422 -24.778 -13.470  0.00  0.00    -0.246 OA
ATOM     20  O   UNL     1      31.884 -24.852 -12.898  0.00  0.00    -0.267 OA
ATOM     21  N   UNL     1      35.114 -23.977 -15.225  0.00  0.00    -0.281 N 
ATOM     22  N   UNL     1      34.157 -24.797 -13.223  0.00  0.00    -0.274 N 
ATOM     23  C   UNL     1      33.805 -23.709 -15.732  0.00  0.00    +0.071 A 
ATOM     24  C   UNL     1      35.314 -24.529 -13.952  0.00  0.00    +0.330 A 
ATOM     25  C   UNL     1      32.678 -24.000 -14.954  0.00  0.00    +0.099 A 
ATOM     26  C   UNL     1      33.599 -23.155 -17.008  0.00  0.00    +0.018 C 
ATOM     27  C   UNL     1      32.846 -24.582 -13.610  0.00  0.00    +0.265 A 
ATOM     28  C   UNL     1      31.384 -23.748 -15.429  0.00  0.00    +0.146 C 
ATOM     29  C   UNL     1      32.310 -22.902 -17.483  0.00  0.00    +0.004 C 
ATOM     30  C   UNL     1      31.203 -23.198 -16.695  0.00  0.00    +0.030 C 
ATOM     31  H   UNL     1      34.287 -25.186 -12.328  0.00  0.00    +0.173 HD
ENDBRANCH  17  21
ENDBRANCH   1  17
TORSDOF 6
ENDMDL
MODEL 4
REMARK VINA RESULT:     -11.6      3.423      9.988
REMARK  Name = 448890
REMARK  6 active torsions:
REMARK  status: ('A' for Active; 'I' for Inactive)
REMARK    1  A    between atoms: C_1  and  C_2
REMARK    2  A    between atoms: C_1  and  C_17
REMARK    3  A    between atoms: C_2  and  C_3
REMARK    4  A    between atoms: C_3  and  N_4
REMARK    5  A    between atoms: C_8  and  C_11
REMARK    6  A    between atoms: C_17  and  N_21
REMARK                            x       y       z     vdW  Elec       q    Type
REMARK                         _______ _______ _______ _____ _____    ______ ____
ROOT
ATOM      1  C   UNL     1      33.141 -14.629 -25.179  0.00  0.00    +0.022 C 
ENDROOT
BRANCH   1   2
ATOM      2  C   UNL     1      33.543 -16.099 -25.335  0.00  0.00    -0.021 C 
BRANCH   2   3
ATOM      3  C   UNL     1      35.041 -16.287 -25.104  0.00  0.00    -0.077 C 
BRANCH   3   4
ATOM      4  N   UNL     1      35.274 -17.361 -24.139  0.00  0.00    +0.390 N 
ATOM      5  C   UNL     1      35.275 -16.846 -22.766  0.00  0.00    -0.072 C 
ATOM      6  C   UNL     1      34.272 -18.426 -24.294  0.00  0.00    -0.051 C 
ATOM      7  C   UNL     1      35.685 -17.961 -21.792  0.00  0.00    +0.003 C 
ATOM      8  C   UNL     1      34.939 -19.255 -22.027  0.00  0.00    -0.031 C 
ATOM      9  C   UNL     1      34.289 -19.450 -23.191  0.00  0.00    -0.053 C 
ATOM     10  H   UNL     1      36.195 -17.756 -24.327  0.00  0.00    -0.079 HD
BRANCH   8  11
ATOM     11  C   UNL     1      34.954 -20.280 -20.956  0.00  0.00    -0.004 C 
ATOM     12  C   UNL     1      36.168 -20.728 -20.432  0.00  0.00    -0.000 C 
ATOM     13  C   UNL     1      33.753 -20.801 -20.468  0.00  0.00    -0.000 C 
ATOM     14  C   UNL     1      36.181 -21.693 -19.424  0.00  0.00    -0.000 C 
ATOM     15  C   UNL     1      33.767 -21.765 -19.460  0.00  0.00    -0.000 C 
ATOM     16  C   UNL     1      34.981 -22.212 -18.938  0.00  0.00    -0.000 C 
ENDBRANCH   8  11
ENDBRANCH   3   4
ENDBRANCH   2   3
ENDBRANCH   1   2
BRANCH   1  17
ATOM     17  C   UNL     1      34.001 -13.891 -24.157  0.00  0.00    +0.110 C 
BRANCH  17  21
ATOM     18  F   UNL     1      31.402  -9.071 -21.378  0.00  0.00    -0.204 F 
ATOM     19  O   UNL     1      34.580 -11.868 -26.027  0.00  0.00    -0.246 OA
ATOM     20  O   UNL     1      32.517  -8.586 -23.598  0.00  0.00    -0.267 OA
ATOM     21  N   UNL     1      33.606 -12.493 -24.004  0.00  0.00    -0.281 N 
ATOM     22  N   UNL     1      33.542 -10.262 -24.788  0.00  0.00    -0.274 N 
ATOM     23  C   UNL     1      32.877 -12.097 -22.840  0.00  0.00    +0.071 A 
ATOM     24  C   UNL     1      33.953 -11.575 -25.005  0.00  0.00    +0.330 A 
ATOM     25  C   UNL     1      32.490 -10.761 -22.676  0.00  0.00    +0.099 A 
ATOM     26  C   UNL     1      32.526 -13.013 -21.833  0.00  0.00    +0.018 C 
ATOM     27  C   UNL     1      32.836  -9.766 -23.705  0.00  0.00    +0.265 A 
ATOM     28  C   UNL     1      31.776 -10.348 -21.543  0.00  0.00    +0.146 C 
ATOM     29  C   UNL     1      31.813 -12.603 -20.704  0.00  0.00    +0.004 C 
ATOM     30  C   UNL     1      31.438 -11.272 -20.558  0.00  0.00    +0.030 C 
ATOM     31  H   UNL     1      33.782  -9.610 -25.486  0.00  0.00    +0.173 HD
ENDBRANCH  17  21
ENDBRANCH   1  17
TORSDOF 6
ENDMDL
MODEL 5
REMARK VINA RESULT:     -11.5      5.235     11.891
REMARK  Name = 448890
REMARK  6 active torsions:
REMARK  status: ('A' for Active; 'I' for Inactive)
REMARK    1  A    between atoms: C_1  and  C_2
REMARK    2  A    between atoms: C_1  and  C_17
REMARK    3  A    between atoms: C_2  and  C_3
REMARK    4  A    between atoms: C_3  and  N_4
REMARK    5  A    between atoms: C_8  and  C_11
REMARK    6  A    between atoms: C_17  and  N_21
REMARK                            x       y       z     vdW  Elec       q    Type
REMARK                         _______ _______ _______ _____ _____    ______ ____
ROOT
ATOM      1  C   UNL     1      34.542 -19.438 -22.836  0.00  0.00    +0.022 C 
ENDROOT
BRANCH   1   2
ATOM      2  C   UNL     1      34.669 -19.458 -21.309  0.00  0.00    -0.021 C 
BRANCH   2   3
ATOM      3  C   UNL     1      35.386 -20.721 -20.833  0.00  0.00    -0.077 C 
BRANCH   3   4
ATOM      4  N   UNL     1      34.811 -21.185 -19.572  0.00  0.00    +0.390 N 
ATOM      5  C   UNL     1      33.561 -21.917 -19.799  0.00  0.00    -0.072 C 
ATOM      6  C   UNL     1      35.774 -22.018 -18.836  0.00  0.00    -0.051 C 
ATOM      7  C   UNL     1      32.897 -22.245 -18.454  0.00  0.00    +0.003 C 
ATOM      8  C   UNL     1      33.858 -22.846 -17.452  0.00  0.00    -0.031 C 
ATOM      9  C   UNL     1      35.186 -22.732 -17.649  0.00  0.00    -0.053 C 
ATOM     10  H   UNL     1      34.596 -20.365 -19.005  0.00  0.00    -0.079 HD
BRANCH   8  11
ATOM     11  C   UNL     1      33.298 -23.544 -16.271  0.00  0.00    -0.004 C 
ATOM     12  C   UNL     1      34.148 -24.035 -15.278  0.00  0.00    -0.000 C 
ATOM     13  C   UNL     1      31.916 -23.710 -16.145  0.00  0.00    -0.000 C 
ATOM     14  C   UNL     1      33.620 -24.691 -14.166  0.00  0.00    -0.000 C 
ATOM     15  C   UNL     1      31.389 -24.367 -15.032  0.00  0.00    -0.000 C 
ATOM     16  C   UNL     1      32.241 -24.857 -14.043  0.00  0.00    -0.000 C 
ENDBRANCH   8  11
ENDBRANCH   3   4
ENDBRANCH   2   3
ENDBRANCH   1   2
BRANCH   1  17
ATOM     17  C   UNL     1      35.495 -18.441 -23.490  0.00  0.00    +0.110 C 
BRANCH  17  21
ATOM     18  F   UNL     1      33.080 -12.800 -23.748  0.00  0.00    -0.204 F 
ATOM     19  O   UNL     1      34.456 -18.464 -26.107  0.00  0.00    -0.246 OA
ATOM     20  O   UNL     1      32.818 -14.201 -25.839  0.00  0.00    -0.267 OA
ATOM     21  N   UNL     1      34.789 -17.319 -24.104  0.00  0.00    -0.281 N 
ATOM     22  N   UNL     1      33.654 -16.338 -25.934  0.00  0.00    -0.274 N 
ATOM     23  C   UNL     1      34.598 -16.119 -23.352  0.00  0.00    +0.071 A 
ATOM     24  C   UNL     1      34.317 -17.450 -25.418  0.00  0.00    +0.330 A 
ATOM     25  C   UNL     1      33.924 -15.033 -23.924  0.00  0.00    +0.099 A 
ATOM     26  C   UNL     1      35.069 -15.982 -22.035  0.00  0.00    +0.018 C 
ATOM     27  C   UNL     1      33.412 -15.131 -25.302  0.00  0.00    +0.265 A 
ATOM     28  C   UNL     1      33.725 -13.845 -23.208  0.00  0.00    +0.146 C 
ATOM     29  C   UNL     1      34.871 -14.799 -21.319  0.00  0.00    +0.004 C 
ATOM     30  C   UNL     1      34.199 -13.731 -21.904  0.00  0.00    +0.030 C 
ATOM     31  H   UNL     1      33.319 -16.421 -26.856  0.00  0.00    +0.173 HD
ENDBRANCH  17  21
ENDBRANCH   1  17
TORSDOF 6
ENDMDL
MODEL 6
REMARK VINA RESULT:     -11.5      3.366     10.272
REMARK  Name = 448890
REMARK  6 active torsions:
REMARK  status: ('A' for Active; 'I' for Inactive)
REMARK    1  A    between atoms: C_1  and  C_2
REMARK    2  A    between atoms: C_1  and  C_17
REMARK    3  A    between atoms: C_2  and  C_3
REMARK    4  A    between atoms: C_3  and  N_4
REMARK    5  A    between atoms: C_8  and  C_11
REMARK    6  A    between atoms: C_17  and  N_21
REMARK                            x       y       z     vdW  Elec       q    Type
REMARK                         _______ _______ _______ _____ _____    ______ ____
ROOT
ATOM      1  C   UNL     1      33.020 -14.349 -24.642  0.00  0.00    +0.022 C 
ENDROOT
BRANCH   1   2
ATOM      2  C   UNL     1      33.658 -15.615 -25.223  0.00  0.00    -0.021 C 
BRANCH   2   3
ATOM      3  C   UNL     1      34.922 -15.996 -24.453  0.00  0.00    -0.077 C 
BRANCH   3   4
ATOM      4  N   UNL     1      34.623 -17.041 -23.476  0.00  0.00    +0.390 N 
ATOM      5  C   UNL     1      34.816 -18.375 -24.052  0.00  0.00    -0.072 C 
ATOM      6  C   UNL     1      35.445 -16.874 -22.268  0.00  0.00    -0.051 C 
ATOM      7  C   UNL     1      34.337 -19.446 -23.061  0.00  0.00    +0.003 C 
ATOM      8  C   UNL     1      34.867 -19.234 -21.661  0.00  0.00    -0.031 C 
ATOM      9  C   UNL     1      35.377 -18.036 -21.314  0.00  0.00    -0.053 C 
ATOM     10  H   UNL     1      33.642 -16.952 -23.212  0.00  0.00    -0.079 HD
BRANCH   8  11
ATOM     11  C   UNL     1      34.799 -20.364 -20.704  0.00  0.00    -0.004 C 
ATOM     12  C   UNL     1      33.562 -20.884 -20.320  0.00  0.00    -0.000 C 
ATOM     13  C   UNL     1      35.973 -20.913 -20.183  0.00  0.00    -0.000 C 
ATOM     14  C   UNL     1      33.498 -21.948 -19.419  0.00  0.00    -0.000 C 
ATOM     15  C   UNL     1      35.910 -21.976 -19.283  0.00  0.00    -0.000 C 
ATOM     16  C   UNL     1      34.672 -22.494 -18.900  0.00  0.00    -0.000 C 
ENDBRANCH   8  11
ENDBRANCH   3   4
ENDBRANCH   2   3
ENDBRANCH   1   2
BRANCH   1  17
ATOM     17  C   UNL     1      33.859 -13.726 -23.530  0.00  0.00    +0.110 C 
BRANCH  17  21
ATOM     18  F   UNL     1      32.825  -7.720 -22.775  0.00  0.00    -0.204 F 
ATOM     19  O   UNL     1      31.875 -13.811 -21.535  0.00  0.00    -0.246 OA
ATOM     20  O   UNL     1      31.444  -9.262 -21.318  0.00  0.00    -0.267 OA
ATOM     21  N   UNL     1      33.226 -12.544 -22.950  0.00  0.00    -0.281 N 
ATOM     22  N   UNL     1      31.691 -11.541 -21.456  0.00  0.00    -0.274 N 
ATOM     23  C   UNL     1      33.619 -11.247 -23.405  0.00  0.00    +0.071 A 
ATOM     24  C   UNL     1      32.248 -12.714 -21.961  0.00  0.00    +0.330 A 
ATOM     25  C   UNL     1      33.023 -10.103 -22.861  0.00  0.00    +0.099 A 
ATOM     26  C   UNL     1      34.599 -11.072 -24.397  0.00  0.00    +0.018 C 
ATOM     27  C   UNL     1      31.991 -10.239 -21.819  0.00  0.00    +0.265 A 
ATOM     28  C   UNL     1      33.390  -8.821 -23.291  0.00  0.00    +0.146 C 
ATOM     29  C   UNL     1      34.967  -9.794 -24.827  0.00  0.00    +0.004 C 
ATOM     30  C   UNL     1      34.364  -8.669 -24.274  0.00  0.00    +0.030 C 
ATOM     31  H   UNL     1      31.002 -11.650 -20.761  0.00  0.00    +0.173 HD
ENDBRANCH  17  21
ENDBRANCH   1  17
TORSDOF 6
ENDMDL
MODEL 7
REMARK VINA RESULT:     -11.1      8.383     12.467
REMARK  Name = 448890
REMARK  6 active torsions:
REMARK  status: ('A' for Active; 'I' for Inactive)
REMARK    1  A    between atoms: C_1  and  C_2
REMARK    2  A    between atoms: C_1  and  C_17
REMARK    3  A    between atoms: C_2  and  C_3
REMARK    4  A    between atoms: C_3  and  N_4
REMARK    5  A    between atoms: C_8  and  C_11
REMARK    6  A    between atoms: C_17  and  N_21
REMARK                            x       y       z     vdW  Elec       q    Type
REMARK                         _______ _______ _______ _____ _____    ______ ____
ROOT
ATOM      1  C   UNL     1      33.562 -23.680 -15.874  0.00  0.00    +0.022 C 
ENDROOT
BRANCH   1   2
ATOM      2  C   UNL     1      33.067 -23.070 -17.189  0.00  0.00    -0.021 C 
BRANCH   2   3
ATOM      3  C   UNL     1      33.752 -23.721 -18.390  0.00  0.00    -0.077 C 
BRANCH   3   4
ATOM      4  N   UNL     1      33.931 -22.744 -19.462  0.00  0.00    +0.390 N 
ATOM      5  C   UNL     1      33.022 -21.606 -19.297  0.00  0.00    -0.072 C 
ATOM      6  C   UNL     1      35.328 -22.288 -19.523  0.00  0.00    -0.051 C 
ATOM      7  C   UNL     1      33.114 -20.683 -20.522  0.00  0.00    +0.003 C 
ATOM      8  C   UNL     1      34.539 -20.357 -20.909  0.00  0.00    -0.031 C 
ATOM      9  C   UNL     1      35.550 -21.111 -20.435  0.00  0.00    -0.053 C 
ATOM     10  H   UNL     1      33.704 -23.203 -20.345  0.00  0.00    -0.079 HD
BRANCH   8  11
ATOM     11  C   UNL     1      34.777 -19.208 -21.815  0.00  0.00    -0.004 C 
ATOM     12  C   UNL     1      34.539 -19.334 -23.185  0.00  0.00    -0.000 C 
ATOM     13  C   UNL     1      35.239 -17.994 -21.301  0.00  0.00    -0.000 C 
ATOM     14  C   UNL     1      34.762 -18.253 -24.037  0.00  0.00    -0.000 C 
ATOM     15  C   UNL     1      35.463 -16.913 -22.153  0.00  0.00    -0.000 C 
ATOM     16  C   UNL     1      35.225 -17.042 -23.521  0.00  0.00    -0.000 C 
ENDBRANCH   8  11
ENDBRANCH   3   4
ENDBRANCH   2   3
ENDBRANCH   1   2
BRANCH   1  17
ATOM     17  C   UNL     1      34.520 -22.759 -15.124  0.00  0.00    +0.110 C 
BRANCH  17  21
ATOM     18  F   UNL     1      39.035 -25.953 -12.455  0.00  0.00    -0.204 F 
ATOM     19  O   UNL     1      36.555 -22.443 -17.044  0.00  0.00    -0.246 OA
ATOM     20  O   UNL     1      39.603 -24.911 -14.690  0.00  0.00    -0.267 OA
ATOM     21  N   UNL     1      35.860 -23.329 -15.004  0.00  0.00    -0.281 N 
ATOM     22  N   UNL     1      38.045 -23.678 -15.841  0.00  0.00    -0.274 N 
ATOM     23  C   UNL     1      36.188 -24.102 -13.847  0.00  0.00    +0.071 A 
ATOM     24  C   UNL     1      36.789 -23.102 -16.028  0.00  0.00    +0.330 A 
ATOM     25  C   UNL     1      37.467 -24.657 -13.714  0.00  0.00    +0.099 A 
ATOM     26  C   UNL     1      35.259 -24.332 -12.817  0.00  0.00    +0.018 C 
ATOM     27  C   UNL     1      38.473 -24.441 -14.769  0.00  0.00    +0.265 A 
ATOM     28  C   UNL     1      37.813 -25.419 -12.590  0.00  0.00    +0.146 C 
ATOM     29  C   UNL     1      35.603 -25.092 -11.695  0.00  0.00    +0.004 C 
ATOM     30  C   UNL     1      36.878 -25.634 -11.581  0.00  0.00    +0.030 C 
ATOM     31  H   UNL     1      38.704 -23.524 -16.556  0.00  0.00    +0.173 HD
ENDBRANCH  17  21
ENDBRANCH   1  17
TORSDOF 6
ENDMDL
MODEL 8
REMARK VINA RESULT:     -10.9      1.512      2.425
REMARK  Name = 448890
REMARK  6 active torsions:
REMARK  status: ('A' for Active; 'I' for Inactive)
REMARK    1  A    between atoms: C_1  and  C_2
REMARK    2  A    between atoms: C_1  and  C_17
REMARK    3  A    between atoms: C_2  and  C_3
REMARK    4  A    between atoms: C_3  and  N_4
REMARK    5  A    between atoms: C_8  and  C_11
REMARK    6  A    between atoms: C_17  and  N_21
REMARK                            x       y       z     vdW  Elec       q    Type
REMARK                         _______ _______ _______ _____ _____    ______ ____
ROOT
ATOM      1  C   UNL     1      34.195 -11.950 -23.988  0.00  0.00    +0.022 C 
ENDROOT
BRANCH   1   2
ATOM      2  C   UNL     1      33.511 -10.599 -24.221  0.00  0.00    -0.021 C 
BRANCH   2   3
ATOM      3  C   UNL     1      32.864 -10.081 -22.937  0.00  0.00    -0.077 C 
BRANCH   3   4
ATOM      4  N   UNL     1      32.719  -8.628 -22.993  0.00  0.00    +0.390 N 
ATOM      5  C   UNL     1      33.843  -8.012 -23.705  0.00  0.00    -0.072 C 
ATOM      6  C   UNL     1      31.442  -8.255 -23.620  0.00  0.00    -0.051 C 
ATOM      7  C   UNL     1      33.750  -6.482 -23.603  0.00  0.00    +0.003 C 
ATOM      8  C   UNL     1      32.372  -5.951 -23.930  0.00  0.00    -0.031 C 
ATOM      9  C   UNL     1      31.317  -6.789 -23.935  0.00  0.00    -0.053 C 
ATOM     10  H   UNL     1      32.722  -8.275 -22.036  0.00  0.00    -0.079 HD
BRANCH   8  11
ATOM     11  C   UNL     1      32.228  -4.507 -24.233  0.00  0.00    -0.004 C 
ATOM     12  C   UNL     1      31.660  -3.647 -23.291  0.00  0.00    -0.000 C 
ATOM     13  C   UNL     1      32.661  -4.002 -25.461  0.00  0.00    -0.000 C 
ATOM     14  C   UNL     1      31.525  -2.288 -23.576  0.00  0.00    -0.000 C 
ATOM     15  C   UNL     1      32.525  -2.643 -25.746  0.00  0.00    -0.000 C 
ATOM     16  C   UNL     1      31.957  -1.786 -24.804  0.00  0.00    -0.000 C 
ENDBRANCH   8  11
ENDBRANCH   3   4
ENDBRANCH   2   3
ENDBRANCH   1   2
BRANCH   1  17
ATOM     17  C   UNL     1      33.207 -13.052 -23.619  0.00  0.00    +0.110 C 
BRANCH  17  21
ATOM     18  F   UNL     1      35.501 -18.745 -23.795  0.00  0.00    -0.204 F 
ATOM     19  O   UNL     1      32.664 -13.723 -26.298  0.00  0.00    -0.246 OA
ATOM     20  O   UNL     1      34.492 -17.903 -25.958  0.00  0.00    -0.267 OA
ATOM     21  N   UNL     1      33.548 -14.333 -24.230  0.00  0.00    -0.281 N 
ATOM     22  N   UNL     1      33.584 -15.797 -26.088  0.00  0.00    -0.274 N 
ATOM     23  C   UNL     1      34.202 -15.331 -23.442  0.00  0.00    +0.071 A 
ATOM     24  C   UNL     1      33.226 -14.551 -25.577  0.00  0.00    +0.330 A 
ATOM     25  C   UNL     1      34.537 -16.566 -24.011  0.00  0.00    +0.099 A 
ATOM     26  C   UNL     1      34.526 -15.118 -22.091  0.00  0.00    +0.018 C 
ATOM     27  C   UNL     1      34.216 -16.834 -25.423  0.00  0.00    +0.265 A 
ATOM     28  C   UNL     1      35.177 -17.560 -23.258  0.00  0.00    +0.146 C 
ATOM     29  C   UNL     1      35.165 -16.108 -21.339  0.00  0.00    +0.004 C 
ATOM     30  C   UNL     1      35.490 -17.328 -21.922  0.00  0.00    +0.030 C 
ATOM     31  H   UNL     1      33.361 -15.959 -27.034  0.00  0.00    +0.173 HD
ENDBRANCH  17  21
ENDBRANCH   1  17
TORSDOF 6
ENDMDL
MODEL 9
REMARK VINA RESULT:     -10.8      1.548      2.439
REMARK  Name = 448890
REMARK  6 active torsions:
REMARK  status: ('A' for Active; 'I' for Inactive)
REMARK    1  A    between atoms: C_1  and  C_2
REMARK    2  A    between atoms: C_1  and  C_17
REMARK    3  A    between atoms: C_2  and  C_3
REMARK    4  A    between atoms: C_3  and  N_4
REMARK    5  A    between atoms: C_8  and  C_11
REMARK    6  A    between atoms: C_17  and  N_21
REMARK                            x       y       z     vdW  Elec       q    Type
REMARK                         _______ _______ _______ _____ _____    ______ ____
ROOT
ATOM      1  C   UNL     1      32.796 -13.930 -20.951  0.00  0.00    +0.022 C 
ENDROOT
BRANCH   1   2
ATOM      2  C   UNL     1      31.924 -12.923 -21.709  0.00  0.00    -0.021 C 
BRANCH   2   3
ATOM      3  C   UNL     1      31.651 -11.683 -20.859  0.00  0.00    -0.077 C 
BRANCH   3   4
ATOM      4  N   UNL     1      31.728 -10.478 -21.683  0.00  0.00    +0.390 N 
ATOM      5  C   UNL     1      32.169  -9.325 -20.892  0.00  0.00    -0.072 C 
ATOM      6  C   UNL     1      32.618 -10.689 -22.834  0.00  0.00    -0.051 C 
ATOM      7  C   UNL     1      32.080  -8.046 -21.739  0.00  0.00    +0.003 C 
ATOM      8  C   UNL     1      32.700  -8.202 -23.110  0.00  0.00    -0.031 C 
ATOM      9  C   UNL     1      32.943  -9.434 -23.598  0.00  0.00    -0.053 C 
ATOM     10  H   UNL     1      30.791 -10.277 -22.034  0.00  0.00    -0.079 HD
BRANCH   8  11
ATOM     11  C   UNL     1      33.018  -6.977 -23.881  0.00  0.00    -0.004 C 
ATOM     12  C   UNL     1      32.026  -6.025 -24.125  0.00  0.00    -0.000 C 
ATOM     13  C   UNL     1      34.311  -6.770 -24.367  0.00  0.00    -0.000 C 
ATOM     14  C   UNL     1      32.325  -4.872 -24.851  0.00  0.00    -0.000 C 
ATOM     15  C   UNL     1      34.610  -5.617 -25.093  0.00  0.00    -0.000 C 
ATOM     16  C   UNL     1      33.617  -4.668 -25.336  0.00  0.00    -0.000 C 
ENDBRANCH   8  11
ENDBRANCH   3   4
ENDBRANCH   2   3
ENDBRANCH   1   2
BRANCH   1  17
ATOM     17  C   UNL     1      34.216 -14.010 -21.504  0.00  0.00    +0.110 C 
BRANCH  17  21
ATOM     18  F   UNL     1      34.498 -18.209 -25.975  0.00  0.00    -0.204 F 
ATOM     19  O   UNL     1      35.326 -16.173 -20.085  0.00  0.00    -0.246 OA
ATOM     20  O   UNL     1      35.344 -18.961 -23.711  0.00  0.00    -0.267 OA
ATOM     21  N   UNL     1      34.511 -15.314 -22.092  0.00  0.00    -0.281 N 
ATOM     22  N   UNL     1      35.318 -17.530 -21.914  0.00  0.00    -0.274 N 
ATOM     23  C   UNL     1      34.228 -15.536 -23.475  0.00  0.00    +0.071 A 
ATOM     24  C   UNL     1      35.065 -16.315 -21.282  0.00  0.00    +0.330 A 
ATOM     25  C   UNL     1      34.504 -16.779 -24.057  0.00  0.00    +0.099 A 
ATOM     26  C   UNL     1      33.673 -14.535 -24.292  0.00  0.00    +0.018 C 
ATOM     27  C   UNL     1      35.086 -17.858 -23.239  0.00  0.00    +0.265 A 
ATOM     28  C   UNL     1      34.237 -17.022 -25.411  0.00  0.00    +0.146 C 
ATOM     29  C   UNL     1      33.405 -14.775 -25.642  0.00  0.00    +0.004 C 
ATOM     30  C   UNL     1      33.687 -16.017 -26.202  0.00  0.00    +0.030 C 
ATOM     31  H   UNL     1      35.707 -18.240 -21.353  0.00  0.00    +0.173 HD
ENDBRANCH  17  21
ENDBRANCH   1  17
TORSDOF 6
ENDMDL
