MODEL 1
REMARK VINA RESULT:     -11.7      0.000      0.000
REMARK  Name = 11476460
REMARK  8 active torsions:
REMARK  status: ('A' for Active; 'I' for Inactive)
REMARK    1  A    between atoms: C_2  and  N_10
REMARK    2  A    between atoms: C_5  and  C_23
REMARK    3  A    between atoms: C_11  and  C_14
REMARK    4  A    between atoms: C_14  and  O_15
REMARK    5  A    between atoms: O_15  and  P_16
REMARK    6  A    between atoms: P_16  and  O_18
REMARK    7  A    between atoms: P_16  and  O_20
REMARK    8  A    between atoms: C_27  and  C_32
REMARK                            x       y       z     vdW  Elec       q    Type
REMARK                         _______ _______ _______ _____ _____    ______ ____
ROOT
ATOM      1  F   UNL     1      33.421 -22.788 -18.187  0.00  0.00    -0.204 F 
ATOM      2  C   UNL     1      36.189 -23.548 -15.950  0.00  0.00    +0.059 C 
ATOM      3  C   UNL     1      34.912 -23.542 -16.519  0.00  0.00    +0.045 C 
ATOM      4  C   UNL     1      37.207 -22.786 -16.534  0.00  0.00    +0.015 C 
ATOM      5  C   UNL     1      35.672 -22.022 -18.236  0.00  0.00    +0.029 C 
ATOM      6  C   UNL     1      34.653 -22.781 -17.659  0.00  0.00    +0.141 C 
ATOM      7  C   UNL     1      36.948 -22.024 -17.673  0.00  0.00    +0.004 C 
ENDROOT
BRANCH   2  10
ATOM      8  O   UNL     1      36.684 -26.060 -13.361  0.00  0.00    -0.434 OA
ATOM      9  O   UNL     1      35.987 -26.544 -15.465  0.00  0.00    -0.226 OA
ATOM     10  N   UNL     1      36.453 -24.324 -14.787  0.00  0.00    -0.221 N 
ATOM     11  C   UNL     1      37.251 -24.922 -12.698  0.00  0.00    +0.221 C 
ATOM     12  C   UNL     1      36.780 -23.738 -13.515  0.00  0.00    +0.148 C 
ATOM     13  C   UNL     1      36.344 -25.706 -14.648  0.00  0.00    +0.409 C 
BRANCH  11  14
ATOM     14  C   UNL     1      38.767 -25.070 -12.676  0.00  0.00    +0.199 C 
BRANCH  14  15
ATOM     15  O   UNL     1      39.248 -24.996 -14.007  0.00  0.00    -0.269 OA
BRANCH  15  16
ATOM     16  P   UNL     1      40.056 -26.263 -14.607  0.00  0.00    +0.473 P 
ATOM     17  O   UNL     1      41.249 -26.694 -13.804  0.00  0.00    -0.227 OA
BRANCH  16  18
ATOM     18  O   UNL     1      40.370 -25.831 -16.134  0.00  0.00    -0.303 OA
ATOM     19  H   UNL     1      41.089 -25.178 -16.143  0.00  0.00    +0.222 HD
ENDBRANCH  16  18
BRANCH  16  20
ATOM     20  O   UNL     1      38.901 -27.385 -14.769  0.00  0.00    -0.303 OA
ATOM     21  H   UNL     1      38.667 -27.735 -13.896  0.00  0.00    +0.222 HD
ENDBRANCH  16  20
ENDBRANCH  15  16
ENDBRANCH  14  15
ENDBRANCH  11  14
ENDBRANCH   2  10
BRANCH   5  23
ATOM     22  N   UNL     1      36.253 -19.804 -21.175  0.00  0.00    -0.234 NA
ATOM     23  C   UNL     1      35.408 -21.230 -19.419  0.00  0.00    +0.021 C 
ATOM     24  C   UNL     1      34.122 -21.118 -19.931  0.00  0.00    +0.004 C 
ATOM     25  C   UNL     1      36.429 -20.561 -20.069  0.00  0.00    +0.100 C 
ATOM     26  C   UNL     1      33.900 -20.348 -21.067  0.00  0.00    +0.029 C 
ATOM     27  C   UNL     1      34.989 -19.717 -21.646  0.00  0.00    +0.146 C 
BRANCH  27  32
ATOM     28  N   UNL     1      33.987 -19.226 -23.815  0.00  0.00    -0.105 NA
ATOM     29  N   UNL     1      34.207 -18.178 -24.620  0.00  0.00    -0.113 N 
ATOM     30  N   UNL     1      35.497 -17.744 -23.009  0.00  0.00    -0.085 NA
ATOM     31  N   UNL     1      35.094 -17.273 -24.183  0.00  0.00    -0.018 NA
ATOM     32  C   UNL     1      34.817 -18.909 -22.820  0.00  0.00    +0.092 C 
ATOM     33  C   UNL     1      33.531 -18.030 -25.883  0.00  0.00    +0.163 C 
ENDBRANCH  27  32
ENDBRANCH   5  23
TORSDOF 8
ENDMDL
MODEL 2
REMARK VINA RESULT:     -11.2      0.828      1.504
REMARK  Name = 11476460
REMARK  8 active torsions:
REMARK  status: ('A' for Active; 'I' for Inactive)
REMARK    1  A    between atoms: C_2  and  N_10
REMARK    2  A    between atoms: C_5  and  C_23
REMARK    3  A    between atoms: C_11  and  C_14
REMARK    4  A    between atoms: C_14  and  O_15
REMARK    5  A    between atoms: O_15  and  P_16
REMARK    6  A    between atoms: P_16  and  O_18
REMARK    7  A    between atoms: P_16  and  O_20
REMARK    8  A    between atoms: C_27  and  C_32
REMARK                            x       y       z     vdW  Elec       q    Type
REMARK                         _______ _______ _______ _____ _____    ______ ____
ROOT
ATOM      1  F   UNL     1      33.325 -22.558 -18.727  0.00  0.00    -0.204 F 
ATOM      2  C   UNL     1      35.987 -23.238 -16.341  0.00  0.00    +0.059 C 
ATOM      3  C   UNL     1      34.737 -23.252 -16.967  0.00  0.00    +0.045 C 
ATOM      4  C   UNL     1      37.032 -22.498 -16.905  0.00  0.00    +0.015 C 
ATOM      5  C   UNL     1      35.577 -21.796 -18.702  0.00  0.00    +0.029 C 
ATOM      6  C   UNL     1      34.532 -22.532 -18.144  0.00  0.00    +0.141 C 
ATOM      7  C   UNL     1      36.826 -21.778 -18.082  0.00  0.00    +0.004 C 
ENDROOT
BRANCH   2  10
ATOM      8  O   UNL     1      36.321 -25.650 -13.634  0.00  0.00    -0.434 OA
ATOM      9  O   UNL     1      35.628 -26.195 -15.724  0.00  0.00    -0.226 OA
ATOM     10  N   UNL     1      36.197 -23.972 -15.140  0.00  0.00    -0.221 N 
ATOM     11  C   UNL     1      36.936 -24.512 -13.014  0.00  0.00    +0.221 C 
ATOM     12  C   UNL     1      36.536 -23.345 -13.892  0.00  0.00    +0.148 C 
ATOM     13  C   UNL     1      36.016 -25.339 -14.940  0.00  0.00    +0.409 C 
BRANCH  11  14
ATOM     14  C   UNL     1      38.442 -24.734 -12.963  0.00  0.00    +0.199 C 
BRANCH  14  15
ATOM     15  O   UNL     1      38.927 -24.861 -14.288  0.00  0.00    -0.269 OA
BRANCH  15  16
ATOM     16  P   UNL     1      39.671 -26.235 -14.711  0.00  0.00    +0.473 P 
ATOM     17  O   UNL     1      38.786 -27.447 -14.756  0.00  0.00    -0.227 OA
BRANCH  16  18
ATOM     18  O   UNL     1      40.918 -26.328 -13.686  0.00  0.00    -0.303 OA
ATOM     19  H   UNL     1      41.388 -27.165 -13.824  0.00  0.00    +0.222 HD
ENDBRANCH  16  18
BRANCH  16  20
ATOM     20  O   UNL     1      40.373 -25.849 -16.116  0.00  0.00    -0.303 OA
ATOM     21  H   UNL     1      39.756 -26.026 -16.844  0.00  0.00    +0.222 HD
ENDBRANCH  16  20
ENDBRANCH  15  16
ENDBRANCH  14  15
ENDBRANCH  11  14
ENDBRANCH   2  10
BRANCH   5  23
ATOM     22  N   UNL     1      33.837 -20.205 -21.589  0.00  0.00    -0.234 NA
ATOM     23  C   UNL     1      35.369 -21.046 -19.923  0.00  0.00    +0.021 C 
ATOM     24  C   UNL     1      36.437 -20.467 -20.595  0.00  0.00    +0.004 C 
ATOM     25  C   UNL     1      34.101 -20.889 -20.454  0.00  0.00    +0.100 C 
ATOM     26  C   UNL     1      36.206 -19.754 -21.767  0.00  0.00    +0.029 C 
ATOM     27  C   UNL     1      34.899 -19.653 -22.218  0.00  0.00    +0.146 C 
BRANCH  27  32
ATOM     28  N   UNL     1      34.653 -17.601 -23.511  0.00  0.00    -0.105 NA
ATOM     29  N   UNL     1      34.301 -17.459 -24.797  0.00  0.00    -0.113 N 
ATOM     30  N   UNL     1      34.244 -19.556 -24.578  0.00  0.00    -0.085 NA
ATOM     31  N   UNL     1      34.049 -18.591 -25.468  0.00  0.00    -0.018 NA
ATOM     32  C   UNL     1      34.603 -18.931 -23.422  0.00  0.00    +0.092 C 
ATOM     33  C   UNL     1      34.198 -16.166 -25.422  0.00  0.00    +0.163 C 
ENDBRANCH  27  32
ENDBRANCH   5  23
TORSDOF 8
ENDMDL
MODEL 3
REMARK VINA RESULT:     -10.9      7.304     11.169
REMARK  Name = 11476460
REMARK  8 active torsions:
REMARK  status: ('A' for Active; 'I' for Inactive)
REMARK    1  A    between atoms: C_2  and  N_10
REMARK    2  A    between atoms: C_5  and  C_23
REMARK    3  A    between atoms: C_11  and  C_14
REMARK    4  A    between atoms: C_14  and  O_15
REMARK    5  A    between atoms: O_15  and  P_16
REMARK    6  A    between atoms: P_16  and  O_18
REMARK    7  A    between atoms: P_16  and  O_20
REMARK    8  A    between atoms: C_27  and  C_32
REMARK                            x       y       z     vdW  Elec       q    Type
REMARK                         _______ _______ _______ _____ _____    ______ ____
ROOT
ATOM      1  F   UNL     1      32.609 -20.988 -20.257  0.00  0.00    -0.204 F 
ATOM      2  C   UNL     1      34.812 -19.235 -22.563  0.00  0.00    +0.059 C 
ATOM      3  C   UNL     1      33.650 -19.727 -21.960  0.00  0.00    +0.045 C 
ATOM      4  C   UNL     1      36.059 -19.548 -22.013  0.00  0.00    +0.015 C 
ATOM      5  C   UNL     1      34.981 -20.833 -20.274  0.00  0.00    +0.029 C 
ATOM      6  C   UNL     1      33.735 -20.525 -20.818  0.00  0.00    +0.141 C 
ATOM      7  C   UNL     1      36.144 -20.345 -20.872  0.00  0.00    +0.004 C 
ENDROOT
BRANCH   2  10
ATOM      8  O   UNL     1      34.328 -17.708 -25.833  0.00  0.00    -0.434 OA
ATOM      9  O   UNL     1      33.778 -19.856 -25.355  0.00  0.00    -0.226 OA
ATOM     10  N   UNL     1      34.726 -18.422 -23.728  0.00  0.00    -0.221 N 
ATOM     11  C   UNL     1      34.689 -16.542 -25.078  0.00  0.00    +0.221 C 
ATOM     12  C   UNL     1      35.270 -17.093 -23.793  0.00  0.00    +0.148 C 
ATOM     13  C   UNL     1      34.226 -18.782 -24.978  0.00  0.00    +0.409 C 
BRANCH  11  14
ATOM     14  C   UNL     1      33.443 -15.695 -24.858  0.00  0.00    +0.199 C 
BRANCH  14  15
ATOM     15  O   UNL     1      33.812 -14.328 -24.903  0.00  0.00    -0.269 OA
BRANCH  15  16
ATOM     16  P   UNL     1      33.695 -13.451 -23.547  0.00  0.00    +0.473 P 
ATOM     17  O   UNL     1      32.332 -13.433 -22.919  0.00  0.00    -0.227 OA
BRANCH  16  18
ATOM     18  O   UNL     1      34.279 -12.005 -23.972  0.00  0.00    -0.303 OA
ATOM     19  H   UNL     1      33.543 -11.401 -24.159  0.00  0.00    +0.222 HD
ENDBRANCH  16  18
BRANCH  16  20
ATOM     20  O   UNL     1      34.867 -14.066 -22.616  0.00  0.00    -0.303 OA
ATOM     21  H   UNL     1      34.517 -14.815 -22.110  0.00  0.00    +0.222 HD
ENDBRANCH  16  20
ENDBRANCH  15  16
ENDBRANCH  14  15
ENDBRANCH  11  14
ENDBRANCH   2  10
BRANCH   5  23
ATOM     22  N   UNL     1      36.429 -22.563 -17.307  0.00  0.00    -0.234 NA
ATOM     23  C   UNL     1      35.074 -21.661 -19.090  0.00  0.00    +0.021 C 
ATOM     24  C   UNL     1      33.963 -22.336 -18.602  0.00  0.00    +0.004 C 
ATOM     25  C   UNL     1      36.273 -21.805 -18.415  0.00  0.00    +0.100 C 
ATOM     26  C   UNL     1      34.083 -23.125 -17.464  0.00  0.00    +0.029 C 
ATOM     27  C   UNL     1      35.327 -23.205 -16.858  0.00  0.00    +0.146 C 
BRANCH  27  32
ATOM     28  N   UNL     1      36.569 -24.793 -15.487  0.00  0.00    -0.105 NA
ATOM     29  N   UNL     1      36.248 -25.291 -14.284  0.00  0.00    -0.113 N 
ATOM     30  N   UNL     1      34.605 -24.025 -14.664  0.00  0.00    -0.085 NA
ATOM     31  N   UNL     1      35.092 -24.863 -13.758  0.00  0.00    -0.018 NA
ATOM     32  C   UNL     1      35.510 -24.006 -15.682  0.00  0.00    +0.092 C 
ATOM     33  C   UNL     1      37.095 -26.231 -13.596  0.00  0.00    +0.163 C 
ENDBRANCH  27  32
ENDBRANCH   5  23
TORSDOF 8
ENDMDL
MODEL 4
REMARK VINA RESULT:     -10.8      2.165      3.152
REMARK  Name = 11476460
REMARK  8 active torsions:
REMARK  status: ('A' for Active; 'I' for Inactive)
REMARK    1  A    between atoms: C_2  and  N_10
REMARK    2  A    between atoms: C_5  and  C_23
REMARK    3  A    between atoms: C_11  and  C_14
REMARK    4  A    between atoms: C_14  and  O_15
REMARK    5  A    between atoms: O_15  and  P_16
REMARK    6  A    between atoms: P_16  and  O_18
REMARK    7  A    between atoms: P_16  and  O_20
REMARK    8  A    between atoms: C_27  and  C_32
REMARK                            x       y       z     vdW  Elec       q    Type
REMARK                         _______ _______ _______ _____ _____    ______ ____
ROOT
ATOM      1  F   UNL     1      33.110 -22.043 -19.551  0.00  0.00    -0.204 F 
ATOM      2  C   UNL     1      35.743 -22.873 -17.180  0.00  0.00    +0.059 C 
ATOM      3  C   UNL     1      34.499 -22.844 -17.818  0.00  0.00    +0.045 C 
ATOM      4  C   UNL     1      36.798 -22.109 -17.690  0.00  0.00    +0.015 C 
ATOM      5  C   UNL     1      35.366 -21.298 -19.460  0.00  0.00    +0.029 C 
ATOM      6  C   UNL     1      34.311 -22.058 -18.955  0.00  0.00    +0.141 C 
ATOM      7  C   UNL     1      36.609 -21.323 -18.827  0.00  0.00    +0.004 C 
ENDROOT
BRANCH   2  10
ATOM      8  O   UNL     1      36.873 -24.700 -14.240  0.00  0.00    -0.434 OA
ATOM      9  O   UNL     1      38.216 -23.354 -15.476  0.00  0.00    -0.226 OA
ATOM     10  N   UNL     1      35.935 -23.675 -16.019  0.00  0.00    -0.221 N 
ATOM     11  C   UNL     1      35.462 -24.940 -14.139  0.00  0.00    +0.221 C 
ATOM     12  C   UNL     1      34.918 -24.546 -15.496  0.00  0.00    +0.148 C 
ATOM     13  C   UNL     1      37.108 -23.835 -15.285  0.00  0.00    +0.409 C 
BRANCH  11  14
ATOM     14  C   UNL     1      34.901 -24.099 -13.001  0.00  0.00    +0.199 C 
BRANCH  14  15
ATOM     15  O   UNL     1      35.982 -23.566 -12.256  0.00  0.00    -0.269 OA
BRANCH  15  16
ATOM     16  P   UNL     1      36.431 -24.322 -10.897  0.00  0.00    +0.473 P 
ATOM     17  O   UNL     1      35.441 -25.319 -10.368  0.00  0.00    -0.227 OA
BRANCH  16  18
ATOM     18  O   UNL     1      36.801 -23.114  -9.889  0.00  0.00    -0.303 OA
ATOM     19  H   UNL     1      37.027 -22.322 -10.402  0.00  0.00    +0.222 HD
ENDBRANCH  16  18
BRANCH  16  20
ATOM     20  O   UNL     1      37.877 -24.936 -11.286  0.00  0.00    -0.303 OA
ATOM     21  H   UNL     1      38.289 -25.318 -10.496  0.00  0.00    +0.222 HD
ENDBRANCH  16  20
ENDBRANCH  15  16
ENDBRANCH  14  15
ENDBRANCH  11  14
ENDBRANCH   2  10
BRANCH   5  23
ATOM     22  N   UNL     1      33.698 -19.667 -22.366  0.00  0.00    -0.234 NA
ATOM     23  C   UNL     1      35.176 -20.480 -20.639  0.00  0.00    +0.021 C 
ATOM     24  C   UNL     1      36.226 -19.747 -21.176  0.00  0.00    +0.004 C 
ATOM     25  C   UNL     1      33.944 -20.408 -21.263  0.00  0.00    +0.100 C 
ATOM     26  C   UNL     1      36.013 -18.972 -22.311  0.00  0.00    +0.029 C 
ATOM     27  C   UNL     1      34.742 -18.966 -22.863  0.00  0.00    +0.146 C 
BRANCH  27  32
ATOM     28  N   UNL     1      34.432 -16.851 -24.037  0.00  0.00    -0.105 NA
ATOM     29  N   UNL     1      34.143 -16.646 -25.329  0.00  0.00    -0.113 N 
ATOM     30  N   UNL     1      34.213 -18.752 -25.247  0.00  0.00    -0.085 NA
ATOM     31  N   UNL     1      34.004 -17.744 -26.085  0.00  0.00    -0.018 NA
ATOM     32  C   UNL     1      34.466 -18.185 -24.035  0.00  0.00    +0.092 C 
ATOM     33  C   UNL     1      33.989 -15.323 -25.877  0.00  0.00    +0.163 C 
ENDBRANCH  27  32
ENDBRANCH   5  23
TORSDOF 8
ENDMDL
MODEL 5
REMARK VINA RESULT:     -10.5      1.980      2.695
REMARK  Name = 11476460
REMARK  8 active torsions:
REMARK  status: ('A' for Active; 'I' for Inactive)
REMARK    1  A    between atoms: C_2  and  N_10
REMARK    2  A    between atoms: C_5  and  C_23
REMARK    3  A    between atoms: C_11  and  C_14
REMARK    4  A    between atoms: C_14  and  O_15
REMARK    5  A    between atoms: O_15  and  P_16
REMARK    6  A    between atoms: P_16  and  O_18
REMARK    7  A    between atoms: P_16  and  O_20
REMARK    8  A    between atoms: C_27  and  C_32
REMARK                            x       y       z     vdW  Elec       q    Type
REMARK                         _______ _______ _______ _____ _____    ______ ____
ROOT
ATOM      1  F   UNL     1      37.080 -21.291 -18.394  0.00  0.00    -0.204 F 
ATOM      2  C   UNL     1      34.901 -23.430 -16.414  0.00  0.00    +0.059 C 
ATOM      3  C   UNL     1      36.028 -22.716 -16.833  0.00  0.00    +0.045 C 
ATOM      4  C   UNL     1      33.733 -23.386 -17.182  0.00  0.00    +0.015 C 
ATOM      5  C   UNL     1      34.820 -21.927 -18.771  0.00  0.00    +0.029 C 
ATOM      6  C   UNL     1      35.988 -21.967 -18.009  0.00  0.00    +0.141 C 
ATOM      7  C   UNL     1      33.693 -22.637 -18.358  0.00  0.00    +0.004 C 
ENDROOT
BRANCH   2  10
ATOM      8  O   UNL     1      35.519 -25.710 -13.644  0.00  0.00    -0.434 OA
ATOM      9  O   UNL     1      36.717 -25.719 -15.570  0.00  0.00    -0.226 OA
ATOM     10  N   UNL     1      34.942 -24.194 -15.214  0.00  0.00    -0.221 N 
ATOM     11  C   UNL     1      34.576 -24.829 -13.018  0.00  0.00    +0.221 C 
ATOM     12  C   UNL     1      33.965 -24.057 -14.168  0.00  0.00    +0.148 C 
ATOM     13  C   UNL     1      35.819 -25.230 -14.899  0.00  0.00    +0.409 C 
BRANCH  11  14
ATOM     14  C   UNL     1      35.317 -23.941 -12.027  0.00  0.00    +0.199 C 
BRANCH  14  15
ATOM     15  O   UNL     1      36.440 -23.374 -12.678  0.00  0.00    -0.269 OA
BRANCH  15  16
ATOM     16  P   UNL     1      37.916 -23.702 -12.098  0.00  0.00    +0.473 P 
ATOM     17  O   UNL     1      38.729 -22.499 -11.715  0.00  0.00    -0.227 OA
BRANCH  16  18
ATOM     18  O   UNL     1      38.574 -24.649 -13.232  0.00  0.00    -0.303 OA
ATOM     19  H   UNL     1      38.929 -24.097 -13.947  0.00  0.00    +0.222 HD
ENDBRANCH  16  18
BRANCH  16  20
ATOM     20  O   UNL     1      37.608 -24.731 -10.888  0.00  0.00    -0.303 OA
ATOM     21  H   UNL     1      37.141 -25.506 -11.235  0.00  0.00    +0.222 HD
ENDBRANCH  16  20
ENDBRANCH  15  16
ENDBRANCH  14  15
ENDBRANCH  11  14
ENDBRANCH   2  10
BRANCH   5  23
ATOM     22  N   UNL     1      33.451 -20.063 -21.694  0.00  0.00    -0.234 NA
ATOM     23  C   UNL     1      34.774 -21.152 -19.993  0.00  0.00    +0.021 C 
ATOM     24  C   UNL     1      35.942 -20.759 -20.634  0.00  0.00    +0.004 C 
ATOM     25  C   UNL     1      33.566 -20.783 -20.557  0.00  0.00    +0.100 C 
ATOM     26  C   UNL     1      35.866 -20.017 -21.807  0.00  0.00    +0.029 C 
ATOM     27  C   UNL     1      34.608 -19.697 -22.292  0.00  0.00    +0.146 C 
BRANCH  27  32
ATOM     28  N   UNL     1      34.621 -17.609 -23.552  0.00  0.00    -0.105 NA
ATOM     29  N   UNL     1      34.393 -17.420 -24.859  0.00  0.00    -0.113 N 
ATOM     30  N   UNL     1      34.169 -19.510 -24.696  0.00  0.00    -0.085 NA
ATOM     31  N   UNL     1      34.122 -18.518 -25.577  0.00  0.00    -0.018 NA
ATOM     32  C   UNL     1      34.470 -18.934 -23.499  0.00  0.00    +0.092 C 
ATOM     33  C   UNL     1      34.437 -16.111 -25.459  0.00  0.00    +0.163 C 
ENDBRANCH  27  32
ENDBRANCH   5  23
TORSDOF 8
ENDMDL
MODEL 6
REMARK VINA RESULT:     -10.1     13.698     16.657
REMARK  Name = 11476460
REMARK  8 active torsions:
REMARK  status: ('A' for Active; 'I' for Inactive)
REMARK    1  A    between atoms: C_2  and  N_10
REMARK    2  A    between atoms: C_5  and  C_23
REMARK    3  A    between atoms: C_11  and  C_14
REMARK    4  A    between atoms: C_14  and  O_15
REMARK    5  A    between atoms: O_15  and  P_16
REMARK    6  A    between atoms: P_16  and  O_18
REMARK    7  A    between atoms: P_16  and  O_20
REMARK    8  A    between atoms: C_27  and  C_32
REMARK                            x       y       z     vdW  Elec       q    Type
REMARK                         _______ _______ _______ _____ _____    ______ ____
ROOT
ATOM      1  F   UNL     1      34.570 -10.724 -24.615  0.00  0.00    -0.204 F 
ATOM      2  C   UNL     1      32.291  -8.998 -22.363  0.00  0.00    +0.059 C 
ATOM      3  C   UNL     1      33.281  -9.225 -23.324  0.00  0.00    +0.045 C 
ATOM      4  C   UNL     1      31.639 -10.086 -21.774  0.00  0.00    +0.015 C 
ATOM      5  C   UNL     1      32.964 -11.610 -23.102  0.00  0.00    +0.029 C 
ATOM      6  C   UNL     1      33.617 -10.528 -23.692  0.00  0.00    +0.141 C 
ATOM      7  C   UNL     1      31.975 -11.389 -22.143  0.00  0.00    +0.004 C 
ENDROOT
BRANCH   2  10
ATOM      8  O   UNL     1      31.819  -5.711 -20.868  0.00  0.00    -0.434 OA
ATOM      9  O   UNL     1      33.139  -7.323 -19.970  0.00  0.00    -0.226 OA
ATOM     10  N   UNL     1      31.949  -7.669 -21.986  0.00  0.00    -0.221 N 
ATOM     11  C   UNL     1      31.166  -5.495 -22.127  0.00  0.00    +0.221 C 
ATOM     12  C   UNL     1      30.971  -6.886 -22.692  0.00  0.00    +0.148 C 
ATOM     13  C   UNL     1      32.391  -6.964 -20.869  0.00  0.00    +0.409 C 
BRANCH  11  14
ATOM     14  C   UNL     1      32.053  -4.614 -22.996  0.00  0.00    +0.199 C 
BRANCH  14  15
ATOM     15  O   UNL     1      31.241  -3.956 -23.952  0.00  0.00    -0.269 OA
BRANCH  15  16
ATOM     16  P   UNL     1      31.378  -2.350 -24.107  0.00  0.00    +0.473 P 
ATOM     17  O   UNL     1      32.430  -1.893 -25.075  0.00  0.00    -0.227 OA
BRANCH  16  18
ATOM     18  O   UNL     1      31.565  -1.831 -22.587  0.00  0.00    -0.303 OA
ATOM     19  H   UNL     1      32.132  -1.044 -22.581  0.00  0.00    +0.222 HD
ENDBRANCH  16  18
BRANCH  16  20
ATOM     20  O   UNL     1      29.869  -1.892 -24.472  0.00  0.00    -0.303 OA
ATOM     21  H   UNL     1      29.704  -1.007 -24.111  0.00  0.00    +0.222 HD
ENDBRANCH  16  20
ENDBRANCH  15  16
ENDBRANCH  14  15
ENDBRANCH  11  14
ENDBRANCH   2  10
BRANCH   5  23
ATOM     22  N   UNL     1      33.121 -14.772 -25.069  0.00  0.00    -0.234 NA
ATOM     23  C   UNL     1      33.309 -12.963 -23.480  0.00  0.00    +0.021 C 
ATOM     24  C   UNL     1      34.121 -13.746 -22.670  0.00  0.00    +0.004 C 
ATOM     25  C   UNL     1      32.838 -13.516 -24.658  0.00  0.00    +0.100 C 
ATOM     26  C   UNL     1      34.435 -15.043 -23.058  0.00  0.00    +0.029 C 
ATOM     27  C   UNL     1      33.914 -15.505 -24.257  0.00  0.00    +0.146 C 
BRANCH  27  32
ATOM     28  N   UNL     1      34.582 -17.821 -23.890  0.00  0.00    -0.105 NA
ATOM     29  N   UNL     1      34.716 -18.806 -24.789  0.00  0.00    -0.113 N 
ATOM     30  N   UNL     1      34.113 -17.200 -26.016  0.00  0.00    -0.085 NA
ATOM     31  N   UNL     1      34.448 -18.484 -26.062  0.00  0.00    -0.018 NA
ATOM     32  C   UNL     1      34.203 -16.837 -24.707  0.00  0.00    +0.092 C 
ATOM     33  C   UNL     1      35.123 -20.135 -24.411  0.00  0.00    +0.163 C 
ENDBRANCH  27  32
ENDBRANCH   5  23
TORSDOF 8
ENDMDL
MODEL 7
REMARK VINA RESULT:     -10.1      7.934     11.641
REMARK  Name = 11476460
REMARK  8 active torsions:
REMARK  status: ('A' for Active; 'I' for Inactive)
REMARK    1  A    between atoms: C_2  and  N_10
REMARK    2  A    between atoms: C_5  and  C_23
REMARK    3  A    between atoms: C_11  and  C_14
REMARK    4  A    between atoms: C_14  and  O_15
REMARK    5  A    between atoms: O_15  and  P_16
REMARK    6  A    between atoms: P_16  and  O_18
REMARK    7  A    between atoms: P_16  and  O_20
REMARK    8  A    between atoms: C_27  and  C_32
REMARK                            x       y       z     vdW  Elec       q    Type
REMARK                         _______ _______ _______ _____ _____    ______ ____
ROOT
ATOM      1  F   UNL     1      32.638 -21.090 -20.459  0.00  0.00    -0.204 F 
ATOM      2  C   UNL     1      34.837 -19.160 -22.623  0.00  0.00    +0.059 C 
ATOM      3  C   UNL     1      33.682 -19.744 -22.094  0.00  0.00    +0.045 C 
ATOM      4  C   UNL     1      36.068 -19.377 -21.996  0.00  0.00    +0.015 C 
ATOM      5  C   UNL     1      34.988 -20.751 -20.328  0.00  0.00    +0.029 C 
ATOM      6  C   UNL     1      33.757 -20.538 -20.949  0.00  0.00    +0.141 C 
ATOM      7  C   UNL     1      36.144 -20.171 -20.852  0.00  0.00    +0.004 C 
ENDROOT
BRANCH   2  10
ATOM      8  O   UNL     1      34.381 -17.641 -25.901  0.00  0.00    -0.434 OA
ATOM      9  O   UNL     1      33.832 -19.790 -25.424  0.00  0.00    -0.226 OA
ATOM     10  N   UNL     1      34.760 -18.350 -23.791  0.00  0.00    -0.221 N 
ATOM     11  C   UNL     1      34.732 -16.473 -25.146  0.00  0.00    +0.221 C 
ATOM     12  C   UNL     1      35.301 -17.019 -23.854  0.00  0.00    +0.148 C 
ATOM     13  C   UNL     1      34.274 -18.714 -25.044  0.00  0.00    +0.409 C 
BRANCH  11  14
ATOM     14  C   UNL     1      33.482 -15.628 -24.940  0.00  0.00    +0.199 C 
BRANCH  14  15
ATOM     15  O   UNL     1      33.093 -15.083 -26.188  0.00  0.00    -0.269 OA
BRANCH  15  16
ATOM     16  P   UNL     1      33.264 -13.490 -26.423  0.00  0.00    +0.473 P 
ATOM     17  O   UNL     1      33.604 -12.701 -25.192  0.00  0.00    -0.227 OA
BRANCH  16  18
ATOM     18  O   UNL     1      31.892 -13.061 -27.162  0.00  0.00    -0.303 OA
ATOM     19  H   UNL     1      31.930 -12.119 -27.393  0.00  0.00    +0.222 HD
ENDBRANCH  16  18
BRANCH  16  20
ATOM     20  O   UNL     1      34.363 -13.415 -27.607  0.00  0.00    -0.303 OA
ATOM     21  H   UNL     1      34.274 -14.193 -28.180  0.00  0.00    +0.222 HD
ENDBRANCH  16  20
ENDBRANCH  15  16
ENDBRANCH  14  15
ENDBRANCH  11  14
ENDBRANCH   2  10
BRANCH   5  23
ATOM     22  N   UNL     1      36.414 -22.477 -17.348  0.00  0.00    -0.234 NA
ATOM     23  C   UNL     1      35.072 -21.576 -19.142  0.00  0.00    +0.021 C 
ATOM     24  C   UNL     1      33.955 -22.244 -18.656  0.00  0.00    +0.004 C 
ATOM     25  C   UNL     1      36.266 -21.723 -18.460  0.00  0.00    +0.100 C 
ATOM     26  C   UNL     1      34.067 -23.029 -17.515  0.00  0.00    +0.029 C 
ATOM     27  C   UNL     1      35.307 -23.113 -16.903  0.00  0.00    +0.146 C 
BRANCH  27  32
ATOM     28  N   UNL     1      35.205 -23.472 -14.493  0.00  0.00    -0.105 NA
ATOM     29  N   UNL     1      35.533 -24.569 -13.796  0.00  0.00    -0.113 N 
ATOM     30  N   UNL     1      35.945 -25.190 -15.769  0.00  0.00    -0.085 NA
ATOM     31  N   UNL     1      35.976 -25.612 -14.511  0.00  0.00    -0.018 NA
ATOM     32  C   UNL     1      35.480 -23.911 -15.723  0.00  0.00    +0.092 C 
ATOM     33  C   UNL     1      35.416 -24.625 -12.362  0.00  0.00    +0.163 C 
ENDBRANCH  27  32
ENDBRANCH   5  23
TORSDOF 8
ENDMDL
MODEL 8
REMARK VINA RESULT:     -10.1      2.767      4.087
REMARK  Name = 11476460
REMARK  8 active torsions:
REMARK  status: ('A' for Active; 'I' for Inactive)
REMARK    1  A    between atoms: C_2  and  N_10
REMARK    2  A    between atoms: C_5  and  C_23
REMARK    3  A    between atoms: C_11  and  C_14
REMARK    4  A    between atoms: C_14  and  O_15
REMARK    5  A    between atoms: O_15  and  P_16
REMARK    6  A    between atoms: P_16  and  O_18
REMARK    7  A    between atoms: P_16  and  O_20
REMARK    8  A    between atoms: C_27  and  C_32
REMARK                            x       y       z     vdW  Elec       q    Type
REMARK                         _______ _______ _______ _____ _____    ______ ____
ROOT
ATOM      1  F   UNL     1      33.064 -22.041 -19.493  0.00  0.00    -0.204 F 
ATOM      2  C   UNL     1      35.679 -22.877 -17.103  0.00  0.00    +0.059 C 
ATOM      3  C   UNL     1      34.438 -22.839 -17.746  0.00  0.00    +0.045 C 
ATOM      4  C   UNL     1      36.745 -22.132 -17.619  0.00  0.00    +0.015 C 
ATOM      5  C   UNL     1      35.330 -21.324 -19.403  0.00  0.00    +0.029 C 
ATOM      6  C   UNL     1      34.263 -22.064 -18.893  0.00  0.00    +0.141 C 
ATOM      7  C   UNL     1      36.570 -21.357 -18.766  0.00  0.00    +0.004 C 
ENDROOT
BRANCH   2  10
ATOM      8  O   UNL     1      36.726 -24.572 -14.056  0.00  0.00    -0.434 OA
ATOM      9  O   UNL     1      37.969 -22.992 -15.105  0.00  0.00    -0.226 OA
ATOM     10  N   UNL     1      35.857 -23.667 -15.933  0.00  0.00    -0.221 N 
ATOM     11  C   UNL     1      35.373 -25.042 -14.135  0.00  0.00    +0.221 C 
ATOM     12  C   UNL     1      34.941 -24.706 -15.546  0.00  0.00    +0.148 C 
ATOM     13  C   UNL     1      36.941 -23.653 -15.058  0.00  0.00    +0.409 C 
BRANCH  11  14
ATOM     14  C   UNL     1      34.545 -24.335 -13.070  0.00  0.00    +0.199 C 
BRANCH  14  15
ATOM     15  O   UNL     1      33.231 -24.863 -13.093  0.00  0.00    -0.269 OA
BRANCH  15  16
ATOM     16  P   UNL     1      31.992 -23.844 -13.313  0.00  0.00    +0.473 P 
ATOM     17  O   UNL     1      31.827 -23.339 -14.717  0.00  0.00    -0.227 OA
BRANCH  16  18
ATOM     18  O   UNL     1      32.229 -22.704 -12.192  0.00  0.00    -0.303 OA
ATOM     19  H   UNL     1      32.490 -23.122 -11.355  0.00  0.00    +0.222 HD
ENDBRANCH  16  18
BRANCH  16  20
ATOM     20  O   UNL     1      30.731 -24.677 -12.735  0.00  0.00    -0.303 OA
ATOM     21  H   UNL     1      30.329 -24.186 -12.002  0.00  0.00    +0.222 HD
ENDBRANCH  16  20
ENDBRANCH  15  16
ENDBRANCH  14  15
ENDBRANCH  11  14
ENDBRANCH   2  10
BRANCH   5  23
ATOM     22  N   UNL     1      33.688 -19.692 -22.324  0.00  0.00    -0.234 NA
ATOM     23  C   UNL     1      35.154 -20.517 -20.592  0.00  0.00    +0.021 C 
ATOM     24  C   UNL     1      36.219 -19.818 -21.145  0.00  0.00    +0.004 C 
ATOM     25  C   UNL     1      33.921 -20.424 -21.212  0.00  0.00    +0.100 C 
ATOM     26  C   UNL     1      36.019 -19.053 -22.288  0.00  0.00    +0.029 C 
ATOM     27  C   UNL     1      34.746 -19.023 -22.835  0.00  0.00    +0.146 C 
BRANCH  27  32
ATOM     28  N   UNL     1      34.407 -16.920 -24.021  0.00  0.00    -0.105 NA
ATOM     29  N   UNL     1      34.154 -16.724 -25.322  0.00  0.00    -0.113 N 
ATOM     30  N   UNL     1      34.288 -18.827 -25.235  0.00  0.00    -0.085 NA
ATOM     31  N   UNL     1      34.074 -17.827 -26.080  0.00  0.00    -0.018 NA
ATOM     32  C   UNL     1      34.483 -18.252 -24.016  0.00  0.00    +0.092 C 
ATOM     33  C   UNL     1      33.976 -15.407 -25.876  0.00  0.00    +0.163 C 
ENDBRANCH  27  32
ENDBRANCH   5  23
TORSDOF 8
ENDMDL
MODEL 9
REMARK VINA RESULT:      -9.7     13.767     16.855
REMARK  Name = 11476460
REMARK  8 active torsions:
REMARK  status: ('A' for Active; 'I' for Inactive)
REMARK    1  A    between atoms: C_2  and  N_10
REMARK    2  A    between atoms: C_5  and  C_23
REMARK    3  A    between atoms: C_11  and  C_14
REMARK    4  A    between atoms: C_14  and  O_15
REMARK    5  A    between atoms: O_15  and  P_16
REMARK    6  A    between atoms: P_16  and  O_18
REMARK    7  A    between atoms: P_16  and  O_20
REMARK    8  A    between atoms: C_27  and  C_32
REMARK                            x       y       z     vdW  Elec       q    Type
REMARK                         _______ _______ _______ _____ _____    ______ ____
ROOT
ATOM      1  F   UNL     1      35.245 -10.834 -25.109  0.00  0.00    -0.204 F 
ATOM      2  C   UNL     1      33.046  -8.697 -23.149  0.00  0.00    +0.059 C 
ATOM      3  C   UNL     1      34.077  -9.108 -23.999  0.00  0.00    +0.045 C 
ATOM      4  C   UNL     1      32.187  -9.652 -22.596  0.00  0.00    +0.015 C 
ATOM      5  C   UNL     1      33.389 -11.410 -23.738  0.00  0.00    +0.029 C 
ATOM      6  C   UNL     1      34.249 -10.461 -24.293  0.00  0.00    +0.141 C 
ATOM      7  C   UNL     1      32.358 -11.005 -22.890  0.00  0.00    +0.004 C 
ENDROOT
BRANCH   2  10
ATOM      8  O   UNL     1      32.934  -5.063 -22.960  0.00  0.00    -0.434 OA
ATOM      9  O   UNL     1      33.917  -6.203 -24.657  0.00  0.00    -0.226 OA
ATOM     10  N   UNL     1      32.871  -7.317 -22.849  0.00  0.00    -0.221 N 
ATOM     11  C   UNL     1      32.052  -5.383 -21.876  0.00  0.00    +0.221 C 
ATOM     12  C   UNL     1      32.298  -6.854 -21.614  0.00  0.00    +0.148 C 
ATOM     13  C   UNL     1      33.296  -6.225 -23.603  0.00  0.00    +0.409 C 
BRANCH  11  14
ATOM     14  C   UNL     1      30.621  -5.081 -22.301  0.00  0.00    +0.199 C 
BRANCH  14  15
ATOM     15  O   UNL     1      30.654  -4.314 -23.491  0.00  0.00    -0.269 OA
BRANCH  15  16
ATOM     16  P   UNL     1      30.517  -2.704 -23.377  0.00  0.00    +0.473 P 
ATOM     17  O   UNL     1      29.818  -2.213 -22.143  0.00  0.00    -0.227 OA
BRANCH  16  18
ATOM     18  O   UNL     1      29.830  -2.277 -24.777  0.00  0.00    -0.303 OA
ATOM     19  H   UNL     1      28.987  -2.747 -24.880  0.00  0.00    +0.222 HD
ENDBRANCH  16  18
BRANCH  16  20
ATOM     20  O   UNL     1      32.045  -2.199 -23.544  0.00  0.00    -0.303 OA
ATOM     21  H   UNL     1      32.058  -1.379 -24.063  0.00  0.00    +0.222 HD
ENDBRANCH  16  20
ENDBRANCH  15  16
ENDBRANCH  14  15
ENDBRANCH  11  14
ENDBRANCH   2  10
BRANCH   5  23
ATOM     22  N   UNL     1      34.391 -14.980 -23.363  0.00  0.00    -0.234 NA
ATOM     23  C   UNL     1      33.564 -12.814 -24.039  0.00  0.00    +0.021 C 
ATOM     24  C   UNL     1      33.106 -13.351 -25.235  0.00  0.00    +0.004 C 
ATOM     25  C   UNL     1      34.194 -13.661 -23.145  0.00  0.00    +0.100 C 
ATOM     26  C   UNL     1      33.289 -14.704 -25.497  0.00  0.00    +0.029 C 
ATOM     27  C   UNL     1      33.933 -15.469 -24.537  0.00  0.00    +0.146 C 
BRANCH  27  32
ATOM     28  N   UNL     1      34.599 -17.699 -23.810  0.00  0.00    -0.105 NA
ATOM     29  N   UNL     1      34.620 -18.838 -24.517  0.00  0.00    -0.113 N 
ATOM     30  N   UNL     1      33.915 -17.467 -25.956  0.00  0.00    -0.085 NA
ATOM     31  N   UNL     1      34.222 -18.748 -25.793  0.00  0.00    -0.018 NA
ATOM     32  C   UNL     1      34.151 -16.870 -24.755  0.00  0.00    +0.092 C 
ATOM     33  C   UNL     1      35.045 -20.087 -23.939  0.00  0.00    +0.163 C 
ENDBRANCH  27  32
ENDBRANCH   5  23
TORSDOF 8
ENDMDL
