MODEL 1
REMARK VINA RESULT:     -11.2      0.000      0.000
REMARK  Name = 24901696
REMARK  4 active torsions:
REMARK  status: ('A' for Active; 'I' for Inactive)
REMARK    1  A    between atoms: C_5  and  C_16
REMARK    2  A    between atoms: C_7  and  C_10
REMARK    3  A    between atoms: C_16  and  C_17
REMARK    4  A    between atoms: C_22  and  O_23
REMARK                            x       y       z     vdW  Elec       q    Type
REMARK                         _______ _______ _______ _____ _____    ______ ____
ROOT
ATOM      1  N   UNL     1      33.840 -23.237 -17.283  0.00  0.00    -0.195 N 
ATOM      2  N   UNL     1      34.838 -23.796 -16.556  0.00  0.00    -0.163 NA
ATOM      3  N   UNL     1      32.765 -22.227 -18.906  0.00  0.00    -0.131 NA
ATOM      4  N   UNL     1      31.860 -22.515 -17.904  0.00  0.00    -0.127 NA
ATOM      5  C   UNL     1      33.941 -22.666 -18.518  0.00  0.00    +0.168 A 
ATOM      6  C   UNL     1      32.514 -23.121 -16.935  0.00  0.00    +0.186 A 
ATOM      7  C   UNL     1      34.454 -24.259 -15.401  0.00  0.00    +0.101 C 
ATOM      8  C   UNL     1      32.123 -23.646 -15.687  0.00  0.00    +0.042 C 
ATOM      9  C   UNL     1      33.042 -24.218 -14.898  0.00  0.00    +0.024 C 
ENDROOT
BRANCH   7  10
ATOM     10  C   UNL     1      35.459 -24.891 -14.507  0.00  0.00    +0.019 C 
ATOM     11  C   UNL     1      36.354 -25.831 -15.018  0.00  0.00    +0.002 C 
ATOM     12  C   UNL     1      35.508 -24.542 -13.157  0.00  0.00    +0.002 C 
ATOM     13  C   UNL     1      37.297 -26.424 -14.178  0.00  0.00    +0.000 C 
ATOM     14  C   UNL     1      36.451 -25.135 -12.318  0.00  0.00    +0.000 C 
ATOM     15  C   UNL     1      37.347 -26.076 -12.829  0.00  0.00    +0.000 C 
ENDBRANCH   7  10
BRANCH   5  16
ATOM     16  C   UNL     1      35.210 -22.582 -19.264  0.00  0.00    +0.094 C 
BRANCH  16  17
ATOM     17  C   UNL     1      35.410 -21.280 -20.028  0.00  0.00    -0.014 C 
ATOM     18  C   UNL     1      36.673 -20.693 -20.086  0.00  0.00    -0.001 C 
ATOM     19  C   UNL     1      34.329 -20.676 -20.668  0.00  0.00    -0.001 C 
ATOM     20  C   UNL     1      36.856 -19.499 -20.786  0.00  0.00    +0.036 C 
ATOM     21  C   UNL     1      34.511 -19.483 -21.368  0.00  0.00    +0.036 C 
ATOM     22  C   UNL     1      35.774 -18.895 -21.427  0.00  0.00    +0.134 C 
BRANCH  22  23
ATOM     23  O   UNL     1      35.952 -17.731 -22.109  0.00  0.00    -0.506 OA
ATOM     24  H   UNL     1      36.458 -17.722 -22.898  0.00  0.00    +0.292 HD
ENDBRANCH  22  23
ENDBRANCH  16  17
ENDBRANCH   5  16
TORSDOF 4
ENDMDL
MODEL 2
REMARK VINA RESULT:     -11.2      0.020      1.008
REMARK  Name = 24901696
REMARK  4 active torsions:
REMARK  status: ('A' for Active; 'I' for Inactive)
REMARK    1  A    between atoms: C_5  and  C_16
REMARK    2  A    between atoms: C_7  and  C_10
REMARK    3  A    between atoms: C_16  and  C_17
REMARK    4  A    between atoms: C_22  and  O_23
REMARK                            x       y       z     vdW  Elec       q    Type
REMARK                         _______ _______ _______ _____ _____    ______ ____
ROOT
ATOM      1  N   UNL     1      33.844 -23.237 -17.291  0.00  0.00    -0.195 N 
ATOM      2  N   UNL     1      34.843 -23.801 -16.568  0.00  0.00    -0.163 NA
ATOM      3  N   UNL     1      32.769 -22.218 -18.908  0.00  0.00    -0.131 NA
ATOM      4  N   UNL     1      31.865 -22.509 -17.906  0.00  0.00    -0.127 NA
ATOM      5  C   UNL     1      33.945 -22.661 -18.524  0.00  0.00    +0.168 A 
ATOM      6  C   UNL     1      32.519 -23.120 -16.941  0.00  0.00    +0.186 A 
ATOM      7  C   UNL     1      34.459 -24.267 -15.414  0.00  0.00    +0.101 C 
ATOM      8  C   UNL     1      32.129 -23.649 -15.694  0.00  0.00    +0.042 C 
ATOM      9  C   UNL     1      33.049 -24.226 -14.909  0.00  0.00    +0.024 C 
ENDROOT
BRANCH   7  10
ATOM     10  C   UNL     1      35.465 -24.905 -14.524  0.00  0.00    +0.019 C 
ATOM     11  C   UNL     1      36.356 -25.846 -15.039  0.00  0.00    +0.002 C 
ATOM     12  C   UNL     1      35.518 -24.560 -13.173  0.00  0.00    +0.002 C 
ATOM     13  C   UNL     1      37.299 -26.444 -14.204  0.00  0.00    +0.000 C 
ATOM     14  C   UNL     1      36.461 -25.158 -12.338  0.00  0.00    +0.000 C 
ATOM     15  C   UNL     1      37.353 -26.100 -12.854  0.00  0.00    +0.000 C 
ENDBRANCH   7  10
BRANCH   5  16
ATOM     16  C   UNL     1      35.214 -22.576 -19.271  0.00  0.00    +0.094 C 
BRANCH  16  17
ATOM     17  C   UNL     1      35.411 -21.275 -20.036  0.00  0.00    -0.014 C 
ATOM     18  C   UNL     1      34.326 -20.664 -20.664  0.00  0.00    -0.001 C 
ATOM     19  C   UNL     1      36.677 -20.695 -20.111  0.00  0.00    -0.001 C 
ATOM     20  C   UNL     1      34.507 -19.471 -21.366  0.00  0.00    +0.036 C 
ATOM     21  C   UNL     1      36.859 -19.504 -20.813  0.00  0.00    +0.036 C 
ATOM     22  C   UNL     1      35.774 -18.893 -21.440  0.00  0.00    +0.134 C 
BRANCH  22  23
ATOM     23  O   UNL     1      35.951 -17.730 -22.126  0.00  0.00    -0.506 OA
ATOM     24  H   UNL     1      35.784 -17.698 -23.047  0.00  0.00    +0.292 HD
ENDBRANCH  22  23
ENDBRANCH  16  17
ENDBRANCH   5  16
TORSDOF 4
ENDMDL
MODEL 3
REMARK VINA RESULT:     -11.1      5.991     11.283
REMARK  Name = 24901696
REMARK  4 active torsions:
REMARK  status: ('A' for Active; 'I' for Inactive)
REMARK    1  A    between atoms: C_5  and  C_16
REMARK    2  A    between atoms: C_7  and  C_10
REMARK    3  A    between atoms: C_16  and  C_17
REMARK    4  A    between atoms: C_22  and  O_23
REMARK                            x       y       z     vdW  Elec       q    Type
REMARK                         _______ _______ _______ _____ _____    ______ ____
ROOT
ATOM      1  N   UNL     1      34.449 -16.278 -23.872  0.00  0.00    -0.195 N 
ATOM      2  N   UNL     1      34.158 -15.108 -23.252  0.00  0.00    -0.163 NA
ATOM      3  N   UNL     1      35.208 -18.302 -24.241  0.00  0.00    -0.131 NA
ATOM      4  N   UNL     1      34.602 -17.852 -25.397  0.00  0.00    -0.127 NA
ATOM      5  C   UNL     1      35.106 -17.350 -23.341  0.00  0.00    +0.168 A 
ATOM      6  C   UNL     1      34.150 -16.637 -25.166  0.00  0.00    +0.186 A 
ATOM      7  C   UNL     1      33.528 -14.254 -24.007  0.00  0.00    +0.101 C 
ATOM      8  C   UNL     1      33.452 -15.700 -25.954  0.00  0.00    +0.042 C 
ATOM      9  C   UNL     1      33.122 -14.514 -25.426  0.00  0.00    +0.024 C 
ENDROOT
BRANCH   7  10
ATOM     10  C   UNL     1      33.158 -12.930 -23.442  0.00  0.00    +0.019 C 
ATOM     11  C   UNL     1      33.637 -11.761 -24.034  0.00  0.00    +0.002 C 
ATOM     12  C   UNL     1      32.329 -12.856 -22.322  0.00  0.00    +0.002 C 
ATOM     13  C   UNL     1      33.289 -10.518 -23.504  0.00  0.00    +0.000 C 
ATOM     14  C   UNL     1      31.983 -11.614 -21.792  0.00  0.00    +0.000 C 
ATOM     15  C   UNL     1      32.461 -10.444 -22.384  0.00  0.00    +0.000 C 
ENDBRANCH   7  10
BRANCH   5  16
ATOM     16  C   UNL     1      35.606 -17.381 -21.954  0.00  0.00    +0.094 C 
BRANCH  16  17
ATOM     17  C   UNL     1      35.566 -18.753 -21.298  0.00  0.00    -0.014 C 
ATOM     18  C   UNL     1      34.355 -19.436 -21.180  0.00  0.00    -0.001 C 
ATOM     19  C   UNL     1      36.740 -19.328 -20.812  0.00  0.00    -0.001 C 
ATOM     20  C   UNL     1      34.319 -20.694 -20.578  0.00  0.00    +0.036 C 
ATOM     21  C   UNL     1      36.705 -20.585 -20.209  0.00  0.00    +0.036 C 
ATOM     22  C   UNL     1      35.494 -21.268 -20.092  0.00  0.00    +0.134 C 
BRANCH  22  23
ATOM     23  O   UNL     1      35.458 -22.495 -19.504  0.00  0.00    -0.506 OA
ATOM     24  H   UNL     1      34.648 -22.836 -19.179  0.00  0.00    +0.292 HD
ENDBRANCH  22  23
ENDBRANCH  16  17
ENDBRANCH   5  16
TORSDOF 4
ENDMDL
MODEL 4
REMARK VINA RESULT:     -10.6     11.039     15.880
REMARK  Name = 24901696
REMARK  4 active torsions:
REMARK  status: ('A' for Active; 'I' for Inactive)
REMARK    1  A    between atoms: C_5  and  C_16
REMARK    2  A    between atoms: C_7  and  C_10
REMARK    3  A    between atoms: C_16  and  C_17
REMARK    4  A    between atoms: C_22  and  O_23
REMARK                            x       y       z     vdW  Elec       q    Type
REMARK                         _______ _______ _______ _____ _____    ______ ____
ROOT
ATOM      1  N   UNL     1      32.021  -9.074 -21.232  0.00  0.00    -0.195 N 
ATOM      2  N   UNL     1      32.312  -8.513 -22.431  0.00  0.00    -0.163 NA
ATOM      3  N   UNL     1      31.386 -10.524 -19.716  0.00  0.00    -0.131 NA
ATOM      4  N   UNL     1      31.747  -9.358 -19.071  0.00  0.00    -0.127 NA
ATOM      5  C   UNL     1      31.558 -10.336 -21.005  0.00  0.00    +0.168 A 
ATOM      6  C   UNL     1      32.126  -8.494 -19.988  0.00  0.00    +0.186 A 
ATOM      7  C   UNL     1      32.731  -7.282 -22.350  0.00  0.00    +0.101 C 
ATOM      8  C   UNL     1      32.598  -7.167 -19.929  0.00  0.00    +0.042 C 
ATOM      9  C   UNL     1      32.911  -6.531 -21.066  0.00  0.00    +0.024 C 
ENDROOT
BRANCH   7  10
ATOM     10  C   UNL     1      33.077  -6.554 -23.599  0.00  0.00    +0.019 C 
ATOM     11  C   UNL     1      34.393  -6.550 -24.063  0.00  0.00    +0.002 C 
ATOM     12  C   UNL     1      32.084  -5.877 -24.309  0.00  0.00    +0.002 C 
ATOM     13  C   UNL     1      34.717  -5.867 -25.235  0.00  0.00    +0.000 C 
ATOM     14  C   UNL     1      32.409  -5.195 -25.481  0.00  0.00    +0.000 C 
ATOM     15  C   UNL     1      33.725  -5.190 -25.945  0.00  0.00    +0.000 C 
ENDBRANCH   7  10
BRANCH   5  16
ATOM     16  C   UNL     1      31.304 -11.306 -22.086  0.00  0.00    +0.094 C 
BRANCH  16  17
ATOM     17  C   UNL     1      32.341 -12.417 -22.196  0.00  0.00    -0.014 C 
ATOM     18  C   UNL     1      32.521 -13.309 -21.140  0.00  0.00    -0.001 C 
ATOM     19  C   UNL     1      33.110 -12.539 -23.352  0.00  0.00    -0.001 C 
ATOM     20  C   UNL     1      33.471 -14.326 -21.241  0.00  0.00    +0.036 C 
ATOM     21  C   UNL     1      34.060 -13.555 -23.454  0.00  0.00    +0.036 C 
ATOM     22  C   UNL     1      34.241 -14.448 -22.398  0.00  0.00    +0.134 C 
BRANCH  22  23
ATOM     23  O   UNL     1      35.168 -15.440 -22.496  0.00  0.00    -0.506 OA
ATOM     24  H   UNL     1      35.573 -15.782 -21.723  0.00  0.00    +0.292 HD
ENDBRANCH  22  23
ENDBRANCH  16  17
ENDBRANCH   5  16
TORSDOF 4
ENDMDL
MODEL 5
REMARK VINA RESULT:     -10.6      6.595     10.038
REMARK  Name = 24901696
REMARK  4 active torsions:
REMARK  status: ('A' for Active; 'I' for Inactive)
REMARK    1  A    between atoms: C_5  and  C_16
REMARK    2  A    between atoms: C_7  and  C_10
REMARK    3  A    between atoms: C_16  and  C_17
REMARK    4  A    between atoms: C_22  and  O_23
REMARK                            x       y       z     vdW  Elec       q    Type
REMARK                         _______ _______ _______ _____ _____    ______ ____
ROOT
ATOM      1  N   UNL     1      34.175 -15.926 -24.016  0.00  0.00    -0.195 N 
ATOM      2  N   UNL     1      34.732 -16.641 -23.006  0.00  0.00    -0.163 NA
ATOM      3  N   UNL     1      33.366 -14.251 -25.175  0.00  0.00    -0.131 NA
ATOM      4  N   UNL     1      33.265 -15.394 -25.943  0.00  0.00    -0.127 NA
ATOM      5  C   UNL     1      33.913 -14.588 -24.029  0.00  0.00    +0.168 A 
ATOM      6  C   UNL     1      33.753 -16.394 -25.239  0.00  0.00    +0.186 A 
ATOM      7  C   UNL     1      34.858 -17.910 -23.266  0.00  0.00    +0.101 C 
ATOM      8  C   UNL     1      33.918 -17.769 -25.499  0.00  0.00    +0.042 C 
ATOM      9  C   UNL     1      34.459 -18.555 -24.559  0.00  0.00    +0.024 C 
ENDROOT
BRANCH   7  10
ATOM     10  C   UNL     1      35.450 -18.802 -22.235  0.00  0.00    +0.019 C 
ATOM     11  C   UNL     1      36.790 -18.660 -21.875  0.00  0.00    +0.002 C 
ATOM     12  C   UNL     1      34.663 -19.780 -21.624  0.00  0.00    +0.002 C 
ATOM     13  C   UNL     1      37.345 -19.498 -20.907  0.00  0.00    +0.000 C 
ATOM     14  C   UNL     1      35.218 -20.616 -20.657  0.00  0.00    +0.000 C 
ATOM     15  C   UNL     1      36.559 -20.475 -20.297  0.00  0.00    +0.000 C 
ENDBRANCH   7  10
BRANCH   5  16
ATOM     16  C   UNL     1      34.218 -13.697 -22.895  0.00  0.00    +0.094 C 
BRANCH  16  17
ATOM     17  C   UNL     1      33.437 -12.390 -22.888  0.00  0.00    -0.014 C 
ATOM     18  C   UNL     1      32.328 -12.244 -22.055  0.00  0.00    -0.001 C 
ATOM     19  C   UNL     1      33.830 -11.339 -23.717  0.00  0.00    -0.001 C 
ATOM     20  C   UNL     1      31.612 -11.047 -22.050  0.00  0.00    +0.036 C 
ATOM     21  C   UNL     1      33.114 -10.142 -23.713  0.00  0.00    +0.036 C 
ATOM     22  C   UNL     1      32.005  -9.997 -22.880  0.00  0.00    +0.134 C 
BRANCH  22  23
ATOM     23  O   UNL     1      31.306  -8.829 -22.874  0.00  0.00    -0.506 OA
ATOM     24  H   UNL     1      31.582  -8.119 -22.328  0.00  0.00    +0.292 HD
ENDBRANCH  22  23
ENDBRANCH  16  17
ENDBRANCH   5  16
TORSDOF 4
ENDMDL
MODEL 6
REMARK VINA RESULT:     -10.6      3.293      7.726
REMARK  Name = 24901696
REMARK  4 active torsions:
REMARK  status: ('A' for Active; 'I' for Inactive)
REMARK    1  A    between atoms: C_5  and  C_16
REMARK    2  A    between atoms: C_7  and  C_10
REMARK    3  A    between atoms: C_16  and  C_17
REMARK    4  A    between atoms: C_22  and  O_23
REMARK                            x       y       z     vdW  Elec       q    Type
REMARK                         _______ _______ _______ _____ _____    ______ ____
ROOT
ATOM      1  N   UNL     1      35.110 -22.503 -17.829  0.00  0.00    -0.195 N 
ATOM      2  N   UNL     1      35.720 -21.650 -18.688  0.00  0.00    -0.163 NA
ATOM      3  N   UNL     1      34.768 -23.863 -16.144  0.00  0.00    -0.131 NA
ATOM      4  N   UNL     1      33.597 -23.775 -16.870  0.00  0.00    -0.127 NA
ATOM      5  C   UNL     1      35.660 -23.096 -16.730  0.00  0.00    +0.168 A 
ATOM      6  C   UNL     1      33.812 -22.957 -17.879  0.00  0.00    +0.186 A 
ATOM      7  C   UNL     1      34.954 -21.242 -19.659  0.00  0.00    +0.101 C 
ATOM      8  C   UNL     1      33.001 -22.485 -18.930  0.00  0.00    +0.042 C 
ATOM      9  C   UNL     1      33.518 -21.638 -19.829  0.00  0.00    +0.024 C 
ENDROOT
BRANCH   7  10
ATOM     10  C   UNL     1      35.510 -20.307 -20.671  0.00  0.00    +0.019 C 
ATOM     11  C   UNL     1      34.705 -19.850 -21.715  0.00  0.00    +0.002 C 
ATOM     12  C   UNL     1      36.836 -19.884 -20.576  0.00  0.00    +0.002 C 
ATOM     13  C   UNL     1      35.228 -18.972 -22.665  0.00  0.00    +0.000 C 
ATOM     14  C   UNL     1      37.358 -19.007 -21.526  0.00  0.00    +0.000 C 
ATOM     15  C   UNL     1      36.553 -18.549 -22.571  0.00  0.00    +0.000 C 
ENDBRANCH   7  10
BRANCH   5  16
ATOM     16  C   UNL     1      37.055 -22.875 -16.309  0.00  0.00    +0.094 C 
BRANCH  16  17
ATOM     17  C   UNL     1      37.401 -23.445 -14.940  0.00  0.00    -0.014 C 
ATOM     18  C   UNL     1      38.153 -24.615 -14.842  0.00  0.00    -0.001 C 
ATOM     19  C   UNL     1      36.965 -22.797 -13.785  0.00  0.00    -0.001 C 
ATOM     20  C   UNL     1      38.469 -25.138 -13.587  0.00  0.00    +0.036 C 
ATOM     21  C   UNL     1      37.280 -23.319 -12.531  0.00  0.00    +0.036 C 
ATOM     22  C   UNL     1      38.032 -24.490 -12.432  0.00  0.00    +0.134 C 
BRANCH  22  23
ATOM     23  O   UNL     1      38.341 -25.000 -11.209  0.00  0.00    -0.506 OA
ATOM     24  H   UNL     1      39.232 -25.023 -10.921  0.00  0.00    +0.292 HD
ENDBRANCH  22  23
ENDBRANCH  16  17
ENDBRANCH   5  16
TORSDOF 4
ENDMDL
MODEL 7
REMARK VINA RESULT:     -10.6      1.591      2.216
REMARK  Name = 24901696
REMARK  4 active torsions:
REMARK  status: ('A' for Active; 'I' for Inactive)
REMARK    1  A    between atoms: C_5  and  C_16
REMARK    2  A    between atoms: C_7  and  C_10
REMARK    3  A    between atoms: C_16  and  C_17
REMARK    4  A    between atoms: C_22  and  O_23
REMARK                            x       y       z     vdW  Elec       q    Type
REMARK                         _______ _______ _______ _____ _____    ______ ____
ROOT
ATOM      1  N   UNL     1      34.238 -22.144 -18.617  0.00  0.00    -0.195 N 
ATOM      2  N   UNL     1      35.268 -22.601 -17.862  0.00  0.00    -0.163 NA
ATOM      3  N   UNL     1      33.115 -21.144 -20.212  0.00  0.00    -0.131 NA
ATOM      4  N   UNL     1      32.210 -21.725 -19.347  0.00  0.00    -0.127 NA
ATOM      5  C   UNL     1      34.321 -21.406 -19.761  0.00  0.00    +0.168 A 
ATOM      6  C   UNL     1      32.893 -22.323 -18.394  0.00  0.00    +0.186 A 
ATOM      7  C   UNL     1      34.894 -23.276 -16.813  0.00  0.00    +0.101 C 
ATOM      8  C   UNL     1      32.517 -23.073 -17.261  0.00  0.00    +0.042 C 
ATOM      9  C   UNL     1      33.467 -23.564 -16.455  0.00  0.00    +0.024 C 
ENDROOT
BRANCH   7  10
ATOM     10  C   UNL     1      35.932 -23.825 -15.901  0.00  0.00    +0.019 C 
ATOM     11  C   UNL     1      35.631 -24.903 -15.070  0.00  0.00    +0.002 C 
ATOM     12  C   UNL     1      37.208 -23.261 -15.879  0.00  0.00    +0.002 C 
ATOM     13  C   UNL     1      36.605 -25.418 -14.214  0.00  0.00    +0.000 C 
ATOM     14  C   UNL     1      38.181 -23.775 -15.023  0.00  0.00    +0.000 C 
ATOM     15  C   UNL     1      37.881 -24.855 -14.191  0.00  0.00    +0.000 C 
ENDBRANCH   7  10
BRANCH   5  16
ATOM     16  C   UNL     1      35.603 -20.990 -20.359  0.00  0.00    +0.094 C 
BRANCH  16  17
ATOM     17  C   UNL     1      35.500 -19.815 -21.322  0.00  0.00    -0.014 C 
ATOM     18  C   UNL     1      35.012 -20.013 -22.614  0.00  0.00    -0.001 C 
ATOM     19  C   UNL     1      35.896 -18.542 -20.914  0.00  0.00    -0.001 C 
ATOM     20  C   UNL     1      34.918 -18.937 -23.497  0.00  0.00    +0.036 C 
ATOM     21  C   UNL     1      35.802 -17.466 -21.796  0.00  0.00    +0.036 C 
ATOM     22  C   UNL     1      35.314 -17.664 -23.088  0.00  0.00    +0.134 C 
BRANCH  22  23
ATOM     23  O   UNL     1      35.223 -16.614 -23.950  0.00  0.00    -0.506 OA
ATOM     24  H   UNL     1      34.410 -16.428 -24.378  0.00  0.00    +0.292 HD
ENDBRANCH  22  23
ENDBRANCH  16  17
ENDBRANCH   5  16
TORSDOF 4
ENDMDL
MODEL 8
REMARK VINA RESULT:     -10.6      9.744     14.486
REMARK  Name = 24901696
REMARK  4 active torsions:
REMARK  status: ('A' for Active; 'I' for Inactive)
REMARK    1  A    between atoms: C_5  and  C_16
REMARK    2  A    between atoms: C_7  and  C_10
REMARK    3  A    between atoms: C_16  and  C_17
REMARK    4  A    between atoms: C_22  and  O_23
REMARK                            x       y       z     vdW  Elec       q    Type
REMARK                         _______ _______ _______ _____ _____    ______ ____
ROOT
ATOM      1  N   UNL     1      32.549 -11.355 -22.529  0.00  0.00    -0.195 N 
ATOM      2  N   UNL     1      32.917 -10.274 -23.260  0.00  0.00    -0.163 NA
ATOM      3  N   UNL     1      32.264 -13.434 -21.893  0.00  0.00    -0.131 NA
ATOM      4  N   UNL     1      31.701 -12.611 -20.938  0.00  0.00    -0.127 NA
ATOM      5  C   UNL     1      32.766 -12.667 -22.834  0.00  0.00    +0.168 A 
ATOM      6  C   UNL     1      31.877 -11.366 -21.328  0.00  0.00    +0.186 A 
ATOM      7  C   UNL     1      32.570  -9.137 -22.729  0.00  0.00    +0.101 C 
ATOM      8  C   UNL     1      31.530 -10.120 -20.769  0.00  0.00    +0.042 C 
ATOM      9  C   UNL     1      31.852  -8.995 -21.421  0.00  0.00    +0.024 C 
ENDROOT
BRANCH   7  10
ATOM     10  C   UNL     1      32.912  -7.876 -23.438  0.00  0.00    +0.019 C 
ATOM     11  C   UNL     1      34.247  -7.546 -23.672  0.00  0.00    +0.002 C 
ATOM     12  C   UNL     1      31.896  -7.023 -23.873  0.00  0.00    +0.002 C 
ATOM     13  C   UNL     1      34.567  -6.363 -24.338  0.00  0.00    +0.000 C 
ATOM     14  C   UNL     1      32.217  -5.841 -24.538  0.00  0.00    +0.000 C 
ATOM     15  C   UNL     1      33.553  -5.511 -24.772  0.00  0.00    +0.000 C 
ENDBRANCH   7  10
BRANCH   5  16
ATOM     16  C   UNL     1      33.468 -13.103 -24.056  0.00  0.00    +0.094 C 
BRANCH  16  17
ATOM     17  C   UNL     1      33.934 -14.553 -24.034  0.00  0.00    -0.014 C 
ATOM     18  C   UNL     1      34.711 -15.019 -22.974  0.00  0.00    -0.001 C 
ATOM     19  C   UNL     1      33.584 -15.413 -25.075  0.00  0.00    -0.001 C 
ATOM     20  C   UNL     1      35.139 -16.348 -22.955  0.00  0.00    +0.036 C 
ATOM     21  C   UNL     1      34.012 -16.740 -25.056  0.00  0.00    +0.036 C 
ATOM     22  C   UNL     1      34.789 -17.207 -23.997  0.00  0.00    +0.134 C 
BRANCH  22  23
ATOM     23  O   UNL     1      35.207 -18.503 -23.978  0.00  0.00    -0.506 OA
ATOM     24  H   UNL     1      35.713 -18.822 -23.257  0.00  0.00    +0.292 HD
ENDBRANCH  22  23
ENDBRANCH  16  17
ENDBRANCH   5  16
TORSDOF 4
ENDMDL
MODEL 9
REMARK VINA RESULT:     -10.5      3.190      6.929
REMARK  Name = 24901696
REMARK  4 active torsions:
REMARK  status: ('A' for Active; 'I' for Inactive)
REMARK    1  A    between atoms: C_5  and  C_16
REMARK    2  A    between atoms: C_7  and  C_10
REMARK    3  A    between atoms: C_16  and  C_17
REMARK    4  A    between atoms: C_22  and  O_23
REMARK                            x       y       z     vdW  Elec       q    Type
REMARK                         _______ _______ _______ _____ _____    ______ ____
ROOT
ATOM      1  N   UNL     1      34.555 -23.721 -14.439  0.00  0.00    -0.195 N 
ATOM      2  N   UNL     1      35.063 -23.115 -15.541  0.00  0.00    -0.163 NA
ATOM      3  N   UNL     1      34.376 -24.527 -12.408  0.00  0.00    -0.131 NA
ATOM      4  N   UNL     1      33.196 -24.783 -13.078  0.00  0.00    -0.127 NA
ATOM      5  C   UNL     1      35.175 -23.892 -13.236  0.00  0.00    +0.168 A 
ATOM      6  C   UNL     1      33.313 -24.295 -14.296  0.00  0.00    +0.186 A 
ATOM      7  C   UNL     1      34.248 -23.103 -16.557  0.00  0.00    +0.101 C 
ATOM      8  C   UNL     1      32.447 -24.252 -15.406  0.00  0.00    +0.042 C 
ATOM      9  C   UNL     1      32.862 -23.673 -16.541  0.00  0.00    +0.024 C 
ENDROOT
BRANCH   7  10
ATOM     10  C   UNL     1      34.691 -22.472 -17.828  0.00  0.00    +0.019 C 
ATOM     11  C   UNL     1      36.044 -22.207 -18.042  0.00  0.00    +0.002 C 
ATOM     12  C   UNL     1      33.753 -22.146 -18.809  0.00  0.00    +0.002 C 
ATOM     13  C   UNL     1      36.459 -21.615 -19.234  0.00  0.00    +0.000 C 
ATOM     14  C   UNL     1      34.169 -21.554 -20.001  0.00  0.00    +0.000 C 
ATOM     15  C   UNL     1      35.522 -21.289 -20.214  0.00  0.00    +0.000 C 
ENDBRANCH   7  10
BRANCH   5  16
ATOM     16  C   UNL     1      36.542 -23.414 -12.960  0.00  0.00    +0.094 C 
BRANCH  16  17
ATOM     17  C   UNL     1      37.646 -24.270 -13.565  0.00  0.00    -0.014 C 
ATOM     18  C   UNL     1      38.205 -25.312 -12.825  0.00  0.00    -0.001 C 
ATOM     19  C   UNL     1      38.099 -24.011 -14.858  0.00  0.00    -0.001 C 
ATOM     20  C   UNL     1      39.218 -26.096 -13.380  0.00  0.00    +0.036 C 
ATOM     21  C   UNL     1      39.112 -24.794 -15.413  0.00  0.00    +0.036 C 
ATOM     22  C   UNL     1      39.671 -25.836 -14.673  0.00  0.00    +0.134 C 
BRANCH  22  23
ATOM     23  O   UNL     1      40.659 -26.600 -15.214  0.00  0.00    -0.506 OA
ATOM     24  H   UNL     1      41.553 -26.446 -14.980  0.00  0.00    +0.292 HD
ENDBRANCH  22  23
ENDBRANCH  16  17
ENDBRANCH   5  16
TORSDOF 4
ENDMDL
