MODEL 1
REMARK VINA RESULT:     -12.0      0.000      0.000
REMARK  Name = 10267580
REMARK  2 active torsions:
REMARK  status: ('A' for Active; 'I' for Inactive)
REMARK    1  A    between atoms: N_1  and  C_21
REMARK    2  A    between atoms: C_7  and  C_14
REMARK                            x       y       z     vdW  Elec       q    Type
REMARK                         _______ _______ _______ _____ _____    ______ ____
ROOT
ATOM      1  N   UNL     1      32.702 -22.551 -18.538  0.00  0.00    -0.290 N 
ATOM      2  N   UNL     1      34.252 -23.371 -16.969  0.00  0.00    -0.327 NA
ATOM      3  N   UNL     1      33.515 -24.197 -14.829  0.00  0.00    -0.342 NA
ATOM      4  C   UNL     1      31.903 -23.370 -16.401  0.00  0.00    +0.143 C 
ATOM      5  C   UNL     1      32.963 -23.114 -17.264  0.00  0.00    +0.184 C 
ATOM      6  C   UNL     1      32.238 -23.929 -15.156  0.00  0.00    +0.133 C 
ATOM      7  C   UNL     1      34.451 -23.904 -15.752  0.00  0.00    +0.165 C 
ATOM      8  C   UNL     1      30.564 -23.093 -16.732  0.00  0.00    -0.011 C 
ATOM      9  C   UNL     1      31.203 -24.198 -14.265  0.00  0.00    +0.029 C 
ATOM     10  C   UNL     1      29.550 -23.372 -15.821  0.00  0.00    -0.004 C 
ATOM     11  C   UNL     1      29.870 -23.926 -14.587  0.00  0.00    +0.002 C 
ATOM     12  H   UNL     1      31.792 -22.686 -18.891  0.00  0.00    +0.154 HD
ENDROOT
BRANCH   7  14
ATOM     13  N   UNL     1      35.992 -25.324 -14.671  0.00  0.00    -0.398 NA
ATOM     14  C   UNL     1      35.816 -24.194 -15.395  0.00  0.00    +0.197 C 
ATOM     15  C   UNL     1      36.852 -23.355 -15.780  0.00  0.00    +0.098 C 
ATOM     16  C   UNL     1      37.263 -25.623 -14.319  0.00  0.00    +0.110 C 
ATOM     17  C   UNL     1      38.146 -23.696 -15.399  0.00  0.00    -0.016 C 
ATOM     18  C   UNL     1      38.363 -24.850 -14.655  0.00  0.00    +0.023 C 
ATOM     19  C   UNL     1      37.459 -26.868 -13.521  0.00  0.00    +0.066 C 
ENDBRANCH   7  14
BRANCH   1  21
ATOM     20  N   UNL     1      35.317 -20.367 -21.002  0.00  0.00    -0.242 NA
ATOM     21  C   UNL     1      33.562 -21.833 -19.348  0.00  0.00    +0.053 C 
ATOM     22  C   UNL     1      33.074 -20.887 -20.265  0.00  0.00    +0.035 C 
ATOM     23  C   UNL     1      34.951 -22.025 -19.282  0.00  0.00    +0.035 C 
ATOM     24  C   UNL     1      33.977 -20.194 -21.054  0.00  0.00    +0.100 C 
ATOM     25  C   UNL     1      35.770 -21.281 -20.116  0.00  0.00    +0.100 C 
ENDBRANCH   1  21
TORSDOF 2
ENDMDL
MODEL 2
REMARK VINA RESULT:     -12.0      1.509      6.771
REMARK  Name = 10267580
REMARK  2 active torsions:
REMARK  status: ('A' for Active; 'I' for Inactive)
REMARK    1  A    between atoms: N_1  and  C_21
REMARK    2  A    between atoms: C_7  and  C_14
REMARK                            x       y       z     vdW  Elec       q    Type
REMARK                         _______ _______ _______ _____ _____    ______ ____
ROOT
ATOM      1  N   UNL     1      35.891 -23.571 -16.588  0.00  0.00    -0.290 N 
ATOM      2  N   UNL     1      33.539 -23.562 -16.513  0.00  0.00    -0.327 NA
ATOM      3  N   UNL     1      32.260 -22.396 -18.188  0.00  0.00    -0.342 NA
ATOM      4  C   UNL     1      34.656 -22.380 -18.301  0.00  0.00    +0.143 C 
ATOM      5  C   UNL     1      34.656 -23.160 -17.148  0.00  0.00    +0.184 C 
ATOM      6  C   UNL     1      33.395 -22.011 -18.799  0.00  0.00    +0.133 C 
ATOM      7  C   UNL     1      32.394 -23.149 -17.080  0.00  0.00    +0.165 C 
ATOM      8  C   UNL     1      35.836 -21.972 -18.947  0.00  0.00    -0.011 C 
ATOM      9  C   UNL     1      33.355 -21.230 -19.951  0.00  0.00    +0.029 C 
ATOM     10  C   UNL     1      35.766 -21.191 -20.097  0.00  0.00    -0.004 C 
ATOM     11  C   UNL     1      34.524 -20.821 -20.599  0.00  0.00    +0.002 C 
ATOM     12  H   UNL     1      36.659 -23.591 -17.204  0.00  0.00    +0.154 HD
ENDROOT
BRANCH   7  14
ATOM     13  N   UNL     1      30.043 -23.023 -16.949  0.00  0.00    -0.398 NA
ATOM     14  C   UNL     1      31.174 -23.557 -16.432  0.00  0.00    +0.197 C 
ATOM     15  C   UNL     1      31.191 -24.435 -15.357  0.00  0.00    +0.098 C 
ATOM     16  C   UNL     1      28.880 -23.386 -16.361  0.00  0.00    +0.110 C 
ATOM     17  C   UNL     1      29.975 -24.785 -14.779  0.00  0.00    -0.016 C 
ATOM     18  C   UNL     1      28.794 -24.255 -15.285  0.00  0.00    +0.023 C 
ATOM     19  C   UNL     1      27.633 -22.798 -16.930  0.00  0.00    +0.066 C 
ENDBRANCH   7  14
BRANCH   1  21
ATOM     20  N   UNL     1      36.692 -24.713 -12.621  0.00  0.00    -0.242 NA
ATOM     21  C   UNL     1      36.154 -23.946 -15.283  0.00  0.00    +0.053 C 
ATOM     22  C   UNL     1      36.310 -25.298 -14.935  0.00  0.00    +0.035 C 
ATOM     23  C   UNL     1      36.275 -22.989 -14.263  0.00  0.00    +0.035 C 
ATOM     24  C   UNL     1      36.573 -25.622 -13.614  0.00  0.00    +0.100 C 
ATOM     25  C   UNL     1      36.539 -23.416 -12.972  0.00  0.00    +0.100 C 
ENDBRANCH   1  21
TORSDOF 2
ENDMDL
MODEL 3
REMARK VINA RESULT:     -11.2      2.023      6.091
REMARK  Name = 10267580
REMARK  2 active torsions:
REMARK  status: ('A' for Active; 'I' for Inactive)
REMARK    1  A    between atoms: N_1  and  C_21
REMARK    2  A    between atoms: C_7  and  C_14
REMARK                            x       y       z     vdW  Elec       q    Type
REMARK                         _______ _______ _______ _____ _____    ______ ____
ROOT
ATOM      1  N   UNL     1      32.969 -24.760 -13.779  0.00  0.00    -0.290 N 
ATOM      2  N   UNL     1      34.254 -23.690 -15.435  0.00  0.00    -0.327 NA
ATOM      3  N   UNL     1      36.544 -23.077 -15.009  0.00  0.00    -0.342 NA
ATOM      4  C   UNL     1      35.270 -24.167 -13.294  0.00  0.00    +0.143 C 
ATOM      5  C   UNL     1      34.200 -24.187 -14.185  0.00  0.00    +0.184 C 
ATOM      6  C   UNL     1      36.458 -23.584 -13.766  0.00  0.00    +0.133 C 
ATOM      7  C   UNL     1      35.439 -23.158 -15.775  0.00  0.00    +0.165 C 
ATOM      8  C   UNL     1      35.189 -24.693 -11.993  0.00  0.00    -0.011 C 
ATOM      9  C   UNL     1      37.549 -23.545 -12.903  0.00  0.00    +0.029 C 
ATOM     10  C   UNL     1      36.297 -24.640 -11.152  0.00  0.00    -0.004 C 
ATOM     11  C   UNL     1      37.478 -24.065 -11.608  0.00  0.00    +0.002 C 
ATOM     12  H   UNL     1      33.020 -25.414 -13.044  0.00  0.00    +0.154 HD
ENDROOT
BRANCH   7  14
ATOM     13  N   UNL     1      34.373 -22.548 -17.788  0.00  0.00    -0.398 NA
ATOM     14  C   UNL     1      35.540 -22.614 -17.104  0.00  0.00    +0.197 C 
ATOM     15  C   UNL     1      36.760 -22.196 -17.618  0.00  0.00    +0.098 C 
ATOM     16  C   UNL     1      34.436 -22.042 -19.041  0.00  0.00    +0.110 C 
ATOM     17  C   UNL     1      36.784 -21.682 -18.910  0.00  0.00    -0.016 C 
ATOM     18  C   UNL     1      35.604 -21.600 -19.641  0.00  0.00    +0.023 C 
ATOM     19  C   UNL     1      33.151 -21.968 -19.796  0.00  0.00    +0.066 C 
ENDBRANCH   7  14
BRANCH   1  21
ATOM     20  N   UNL     1      29.126 -24.014 -15.314  0.00  0.00    -0.242 NA
ATOM     21  C   UNL     1      31.706 -24.516 -14.284  0.00  0.00    +0.053 C 
ATOM     22  C   UNL     1      31.256 -23.204 -14.507  0.00  0.00    +0.035 C 
ATOM     23  C   UNL     1      30.830 -25.569 -14.589  0.00  0.00    +0.035 C 
ATOM     24  C   UNL     1      29.981 -23.011 -15.014  0.00  0.00    +0.100 C 
ATOM     25  C   UNL     1      29.573 -25.271 -15.093  0.00  0.00    +0.100 C 
ENDBRANCH   1  21
TORSDOF 2
ENDMDL
MODEL 4
REMARK VINA RESULT:     -11.0      1.573      5.058
REMARK  Name = 10267580
REMARK  2 active torsions:
REMARK  status: ('A' for Active; 'I' for Inactive)
REMARK    1  A    between atoms: N_1  and  C_21
REMARK    2  A    between atoms: C_7  and  C_14
REMARK                            x       y       z     vdW  Elec       q    Type
REMARK                         _______ _______ _______ _____ _____    ______ ____
ROOT
ATOM      1  N   UNL     1      31.514 -22.776 -17.103  0.00  0.00    -0.290 N 
ATOM      2  N   UNL     1      33.479 -23.521 -16.045  0.00  0.00    -0.327 NA
ATOM      3  N   UNL     1      35.635 -23.158 -17.058  0.00  0.00    -0.342 NA
ATOM      4  C   UNL     1      33.656 -22.382 -18.169  0.00  0.00    +0.143 C 
ATOM      5  C   UNL     1      32.926 -22.899 -17.103  0.00  0.00    +0.184 C 
ATOM      6  C   UNL     1      35.050 -22.540 -18.100  0.00  0.00    +0.133 C 
ATOM      7  C   UNL     1      34.819 -23.614 -16.088  0.00  0.00    +0.165 C 
ATOM      8  C   UNL     1      33.055 -21.735 -19.264  0.00  0.00    -0.011 C 
ATOM      9  C   UNL     1      35.814 -22.036 -19.149  0.00  0.00    +0.029 C 
ATOM     10  C   UNL     1      33.844 -21.242 -20.299  0.00  0.00    -0.004 C 
ATOM     11  C   UNL     1      35.224 -21.392 -20.241  0.00  0.00    +0.002 C 
ATOM     12  H   UNL     1      31.145 -22.049 -17.655  0.00  0.00    +0.154 HD
ENDROOT
BRANCH   7  14
ATOM     13  N   UNL     1      36.516 -25.047 -15.297  0.00  0.00    -0.398 NA
ATOM     14  C   UNL     1      35.452 -24.274 -14.976  0.00  0.00    +0.197 C 
ATOM     15  C   UNL     1      34.981 -24.108 -13.680  0.00  0.00    +0.098 C 
ATOM     16  C   UNL     1      37.131 -25.681 -14.273  0.00  0.00    +0.110 C 
ATOM     17  C   UNL     1      35.642 -24.776 -12.655  0.00  0.00    -0.016 C 
ATOM     18  C   UNL     1      36.738 -25.579 -12.949  0.00  0.00    +0.023 C 
ATOM     19  C   UNL     1      38.304 -26.534 -14.625  0.00  0.00    +0.066 C 
ENDBRANCH   7  14
BRANCH   1  21
ATOM     20  N   UNL     1      28.703 -25.132 -15.047  0.00  0.00    -0.242 NA
ATOM     21  C   UNL     1      30.590 -23.550 -16.427  0.00  0.00    +0.053 C 
ATOM     22  C   UNL     1      30.990 -24.671 -15.681  0.00  0.00    +0.035 C 
ATOM     23  C   UNL     1      29.220 -23.243 -16.464  0.00  0.00    +0.035 C 
ATOM     24  C   UNL     1      30.025 -25.414 -15.022  0.00  0.00    +0.100 C 
ATOM     25  C   UNL     1      28.334 -24.051 -15.770  0.00  0.00    +0.100 C 
ENDBRANCH   1  21
TORSDOF 2
ENDMDL
MODEL 5
REMARK VINA RESULT:     -10.8      1.540      6.326
REMARK  Name = 10267580
REMARK  2 active torsions:
REMARK  status: ('A' for Active; 'I' for Inactive)
REMARK    1  A    between atoms: N_1  and  C_21
REMARK    2  A    between atoms: C_7  and  C_14
REMARK                            x       y       z     vdW  Elec       q    Type
REMARK                         _______ _______ _______ _____ _____    ______ ____
ROOT
ATOM      1  N   UNL     1      32.841 -24.663 -14.992  0.00  0.00    -0.290 N 
ATOM      2  N   UNL     1      33.728 -23.373 -16.749  0.00  0.00    -0.327 NA
ATOM      3  N   UNL     1      36.085 -22.889 -16.850  0.00  0.00    -0.342 NA
ATOM      4  C   UNL     1      35.222 -24.208 -15.043  0.00  0.00    +0.143 C 
ATOM      5  C   UNL     1      33.962 -24.062 -15.616  0.00  0.00    +0.184 C 
ATOM      6  C   UNL     1      36.285 -23.585 -15.716  0.00  0.00    +0.133 C 
ATOM      7  C   UNL     1      34.819 -22.822 -17.305  0.00  0.00    +0.165 C 
ATOM      8  C   UNL     1      35.441 -24.931 -13.857  0.00  0.00    -0.011 C 
ATOM      9  C   UNL     1      37.561 -23.709 -15.172  0.00  0.00    +0.029 C 
ATOM     10  C   UNL     1      36.727 -25.038 -13.336  0.00  0.00    -0.004 C 
ATOM     11  C   UNL     1      37.787 -24.426 -13.994  0.00  0.00    +0.002 C 
ATOM     12  H   UNL     1      33.034 -25.426 -14.400  0.00  0.00    +0.154 HD
ENDROOT
BRANCH   7  14
ATOM     13  N   UNL     1      35.727 -21.512 -19.042  0.00  0.00    -0.398 NA
ATOM     14  C   UNL     1      34.613 -22.076 -18.519  0.00  0.00    +0.197 C 
ATOM     15  C   UNL     1      33.351 -21.963 -19.087  0.00  0.00    +0.098 C 
ATOM     16  C   UNL     1      35.566 -20.803 -20.183  0.00  0.00    +0.110 C 
ATOM     17  C   UNL     1      33.227 -21.226 -20.260  0.00  0.00    -0.016 C 
ATOM     18  C   UNL     1      34.350 -20.633 -20.824  0.00  0.00    +0.023 C 
ATOM     19  C   UNL     1      36.793 -20.181 -20.760  0.00  0.00    +0.066 C 
ENDBRANCH   7  14
BRANCH   1  21
ATOM     20  N   UNL     1      28.789 -23.594 -15.344  0.00  0.00    -0.242 NA
ATOM     21  C   UNL     1      31.508 -24.312 -15.108  0.00  0.00    +0.053 C 
ATOM     22  C   UNL     1      31.075 -23.008 -14.819  0.00  0.00    +0.035 C 
ATOM     23  C   UNL     1      30.545 -25.247 -15.518  0.00  0.00    +0.035 C 
ATOM     24  C   UNL     1      29.729 -22.706 -14.950  0.00  0.00    +0.100 C 
ATOM     25  C   UNL     1      29.222 -24.845 -15.618  0.00  0.00    +0.100 C 
ENDBRANCH   1  21
TORSDOF 2
ENDMDL
MODEL 6
REMARK VINA RESULT:     -10.2      1.919      5.515
REMARK  Name = 10267580
REMARK  2 active torsions:
REMARK  status: ('A' for Active; 'I' for Inactive)
REMARK    1  A    between atoms: N_1  and  C_21
REMARK    2  A    between atoms: C_7  and  C_14
REMARK                            x       y       z     vdW  Elec       q    Type
REMARK                         _______ _______ _______ _____ _____    ______ ____
ROOT
ATOM      1  N   UNL     1      36.039 -22.516 -15.844  0.00  0.00    -0.290 N 
ATOM      2  N   UNL     1      33.981 -23.442 -15.180  0.00  0.00    -0.327 NA
ATOM      3  N   UNL     1      33.770 -24.584 -13.070  0.00  0.00    -0.342 NA
ATOM      4  C   UNL     1      35.886 -23.653 -13.709  0.00  0.00    +0.143 C 
ATOM      5  C   UNL     1      35.276 -23.225 -14.884  0.00  0.00    +0.184 C 
ATOM      6  C   UNL     1      35.068 -24.350 -12.804  0.00  0.00    +0.133 C 
ATOM      7  C   UNL     1      33.297 -24.118 -14.242  0.00  0.00    +0.165 C 
ATOM      8  C   UNL     1      37.242 -23.415 -13.421  0.00  0.00    -0.011 C 
ATOM      9  C   UNL     1      35.643 -24.794 -11.617  0.00  0.00    +0.029 C 
ATOM     10  C   UNL     1      37.790 -23.872 -12.227  0.00  0.00    -0.004 C 
ATOM     11  C   UNL     1      36.990 -24.562 -11.324  0.00  0.00    +0.002 C 
ATOM     12  H   UNL     1      36.843 -22.060 -15.504  0.00  0.00    +0.154 HD
ENDROOT
BRANCH   7  14
ATOM     13  N   UNL     1      31.346 -23.551 -15.437  0.00  0.00    -0.398 NA
ATOM     14  C   UNL     1      31.907 -24.372 -14.519  0.00  0.00    +0.197 C 
ATOM     15  C   UNL     1      31.222 -25.392 -13.873  0.00  0.00    +0.098 C 
ATOM     16  C   UNL     1      30.040 -23.764 -15.718  0.00  0.00    +0.110 C 
ATOM     17  C   UNL     1      29.881 -25.580 -14.189  0.00  0.00    -0.016 C 
ATOM     18  C   UNL     1      29.272 -24.755 -15.128  0.00  0.00    +0.023 C 
ATOM     19  C   UNL     1      29.419 -22.861 -16.730  0.00  0.00    +0.066 C 
ENDBRANCH   7  14
BRANCH   1  21
ATOM     20  N   UNL     1      35.305 -22.117 -19.965  0.00  0.00    -0.242 NA
ATOM     21  C   UNL     1      35.798 -22.384 -17.199  0.00  0.00    +0.053 C 
ATOM     22  C   UNL     1      34.581 -22.801 -17.762  0.00  0.00    +0.035 C 
ATOM     23  C   UNL     1      36.761 -21.830 -18.057  0.00  0.00    +0.035 C 
ATOM     24  C   UNL     1      34.388 -22.648 -19.126  0.00  0.00    +0.100 C 
ATOM     25  C   UNL     1      36.471 -21.721 -19.408  0.00  0.00    +0.100 C 
ENDBRANCH   1  21
TORSDOF 2
ENDMDL
