MODEL 1
REMARK VINA RESULT:      -9.7      0.000      0.000
REMARK  Name = 11442891
REMARK  5 active torsions:
REMARK  status: ('A' for Active; 'I' for Inactive)
REMARK    1  A    between atoms: C_12  and  C_30
REMARK    2  A    between atoms: C_13  and  C_19
REMARK    3  A    between atoms: C_16  and  N_22
REMARK    4  A    between atoms: C_30  and  C_31
REMARK    5  A    between atoms: C_30  and  O_37
REMARK                            x       y       z     vdW  Elec       q    Type
REMARK                         _______ _______ _______ _____ _____    ______ ____
ROOT
ATOM      1  O   UNL     1      33.056  -9.681 -21.745  0.00  0.00    -0.271 OA
ATOM      2  O   UNL     1      34.592 -16.910 -25.790  0.00  0.00    -0.270 OA
ATOM      3  N   UNL     1      33.324 -10.690 -23.809  0.00  0.00    -0.231 N 
ATOM      4  N   UNL     1      33.832 -12.823 -26.658  0.00  0.00    -0.273 N 
ATOM      5  N   UNL     1      34.049 -14.117 -26.312  0.00  0.00    -0.157 NA
ATOM      6  N   UNL     1      34.158 -15.238 -24.194  0.00  0.00    -0.264 N 
ATOM      7  C   UNL     1      33.545 -12.061 -23.244  0.00  0.00    +0.077 C 
ATOM      8  C   UNL     1      33.737 -12.832 -24.473  0.00  0.00    +0.067 A 
ATOM      9  C   UNL     1      33.379 -10.632 -25.309  0.00  0.00    +0.091 C 
ATOM     10  C   UNL     1      33.644 -12.042 -25.577  0.00  0.00    +0.093 A 
ATOM     11  C   UNL     1      33.989 -14.108 -24.968  0.00  0.00    +0.157 A 
ATOM     12  C   UNL     1      33.095  -9.607 -22.974  0.00  0.00    +0.265 C 
ATOM     13  C   UNL     1      34.441 -16.538 -24.631  0.00  0.00    +0.251 C 
ATOM     14  H   UNL     1      33.814 -12.494 -27.586  0.00  0.00    +0.189 HD
ATOM     15  H   UNL     1      34.068 -15.117 -23.221  0.00  0.00    +0.157 HD
ENDROOT
BRANCH  13  19
ATOM     16  C   UNL     1      34.892 -19.453 -21.534  0.00  0.00    +0.048 C 
ATOM     17  C   UNL     1      34.314 -19.812 -22.752  0.00  0.00    +0.015 C 
ATOM     18  C   UNL     1      35.323 -18.142 -21.327  0.00  0.00    +0.015 C 
ATOM     19  C   UNL     1      34.598 -17.551 -23.555  0.00  0.00    +0.054 C 
ATOM     20  C   UNL     1      34.167 -18.861 -23.762  0.00  0.00    +0.006 C 
ATOM     21  C   UNL     1      35.176 -17.191 -22.337  0.00  0.00    +0.006 C 
BRANCH  16  22
ATOM     22  N   UNL     1      35.038 -20.405 -20.520  0.00  0.00    -0.312 N 
ATOM     23  N   UNL     1      35.311 -22.532 -18.633  0.00  0.00    +0.388 N 
ATOM     24  C   UNL     1      36.359 -20.981 -20.250  0.00  0.00    +0.068 C 
ATOM     25  C   UNL     1      33.893 -21.272 -20.217  0.00  0.00    +0.068 C 
ATOM     26  C   UNL     1      36.407 -21.576 -18.840  0.00  0.00    -0.056 C 
ATOM     27  C   UNL     1      34.020 -21.856 -18.808  0.00  0.00    -0.056 C 
ATOM     28  C   UNL     1      35.400 -23.134 -17.303  0.00  0.00    -0.101 C 
ATOM     29  H   UNL     1      35.389 -23.277 -19.324  0.00  0.00    -0.080 HD
ENDBRANCH  16  22
ENDBRANCH  13  19
BRANCH  12  30
ATOM     30  C   UNL     1      32.888  -8.284 -23.668  0.00  0.00    +0.214 C 
BRANCH  30  31
ATOM     31  C   UNL     1      32.176  -7.311 -22.771  0.00  0.00    +0.013 C 
ATOM     32  C   UNL     1      31.032  -6.654 -23.224  0.00  0.00    -0.001 C 
ATOM     33  C   UNL     1      32.659  -7.065 -21.486  0.00  0.00    -0.001 C 
ATOM     34  C   UNL     1      30.371  -5.751 -22.393  0.00  0.00    -0.000 C 
ATOM     35  C   UNL     1      31.998  -6.161 -20.654  0.00  0.00    -0.000 C 
ATOM     36  C   UNL     1      30.854  -5.504 -21.107  0.00  0.00    -0.000 C 
ENDBRANCH  30  31
BRANCH  30  37
ATOM     37  O   UNL     1      34.167  -7.796 -24.027  0.00  0.00    -0.340 OA
ATOM     38  C   UNL     1      34.083  -6.547 -24.706  0.00  0.00    +0.175 C 
ENDBRANCH  30  37
ENDBRANCH  12  30
TORSDOF 5
ENDMDL
MODEL 2
REMARK VINA RESULT:      -9.7      1.857      3.314
REMARK  Name = 11442891
REMARK  5 active torsions:
REMARK  status: ('A' for Active; 'I' for Inactive)
REMARK    1  A    between atoms: C_12  and  C_30
REMARK    2  A    between atoms: C_13  and  C_19
REMARK    3  A    between atoms: C_16  and  N_22
REMARK    4  A    between atoms: C_30  and  C_31
REMARK    5  A    between atoms: C_30  and  O_37
REMARK                            x       y       z     vdW  Elec       q    Type
REMARK                         _______ _______ _______ _____ _____    ______ ____
ROOT
ATOM      1  O   UNL     1      33.675 -12.044 -21.938  0.00  0.00    -0.271 OA
ATOM      2  O   UNL     1      34.909 -20.112 -24.026  0.00  0.00    -0.270 OA
ATOM      3  N   UNL     1      33.932 -13.543 -23.680  0.00  0.00    -0.231 N 
ATOM      4  N   UNL     1      34.386 -16.336 -25.898  0.00  0.00    -0.273 N 
ATOM      5  N   UNL     1      34.526 -17.513 -25.237  0.00  0.00    -0.157 NA
ATOM      6  N   UNL     1      34.531 -18.079 -22.906  0.00  0.00    -0.264 N 
ATOM      7  C   UNL     1      34.068 -14.741 -22.788  0.00  0.00    +0.077 C 
ATOM      8  C   UNL     1      34.245 -15.800 -23.782  0.00  0.00    +0.067 A 
ATOM      9  C   UNL     1      34.022 -13.861 -25.145  0.00  0.00    +0.091 C 
ATOM     10  C   UNL     1      34.217 -15.304 -25.049  0.00  0.00    +0.093 A 
ATOM     11  C   UNL     1      34.438 -17.169 -23.939  0.00  0.00    +0.157 A 
ATOM     12  C   UNL     1      33.744 -12.278 -23.145  0.00  0.00    +0.265 C 
ATOM     13  C   UNL     1      34.754 -19.458 -23.000  0.00  0.00    +0.251 C 
ATOM     14  H   UNL     1      34.405 -16.247 -26.878  0.00  0.00    +0.189 HD
ATOM     15  H   UNL     1      34.428 -17.716 -21.996  0.00  0.00    +0.157 HD
ENDROOT
BRANCH  13  19
ATOM     16  C   UNL     1      34.985 -21.533 -19.268  0.00  0.00    +0.048 C 
ATOM     17  C   UNL     1      36.153 -21.182 -19.944  0.00  0.00    +0.015 C 
ATOM     18  C   UNL     1      33.741 -21.208 -19.809  0.00  0.00    +0.015 C 
ATOM     19  C   UNL     1      34.834 -20.180 -21.703  0.00  0.00    +0.054 C 
ATOM     20  C   UNL     1      36.078 -20.505 -21.161  0.00  0.00    +0.006 C 
ATOM     21  C   UNL     1      33.666 -20.531 -21.027  0.00  0.00    +0.006 C 
BRANCH  16  22
ATOM     22  N   UNL     1      35.059 -22.214 -18.048  0.00  0.00    -0.312 N 
ATOM     23  N   UNL     1      35.262 -23.818 -15.693  0.00  0.00    +0.388 N 
ATOM     24  C   UNL     1      36.364 -22.421 -17.411  0.00  0.00    +0.068 C 
ATOM     25  C   UNL     1      34.044 -23.235 -17.763  0.00  0.00    +0.068 C 
ATOM     26  C   UNL     1      36.193 -22.704 -15.916  0.00  0.00    -0.056 C 
ATOM     27  C   UNL     1      33.947 -23.489 -16.257  0.00  0.00    -0.056 C 
ATOM     28  C   UNL     1      35.149 -24.114 -14.266  0.00  0.00    -0.101 C 
ATOM     29  H   UNL     1      35.624 -24.648 -16.161  0.00  0.00    -0.080 HD
ENDBRANCH  16  22
ENDBRANCH  13  19
BRANCH  12  30
ATOM     30  C   UNL     1      33.622 -11.159 -24.150  0.00  0.00    +0.214 C 
BRANCH  30  31
ATOM     31  C   UNL     1      33.215  -9.877 -23.481  0.00  0.00    +0.013 C 
ATOM     32  C   UNL     1      34.116  -8.815 -23.403  0.00  0.00    -0.001 C 
ATOM     33  C   UNL     1      31.937  -9.749 -22.938  0.00  0.00    -0.001 C 
ATOM     34  C   UNL     1      33.739  -7.624 -22.783  0.00  0.00    -0.000 C 
ATOM     35  C   UNL     1      31.559  -8.559 -22.317  0.00  0.00    -0.000 C 
ATOM     36  C   UNL     1      32.460  -7.496 -22.239  0.00  0.00    -0.000 C 
ENDBRANCH  30  31
BRANCH  30  37
ATOM     37  O   UNL     1      34.883 -11.022 -24.777  0.00  0.00    -0.340 OA
ATOM     38  C   UNL     1      34.769 -11.029 -26.197  0.00  0.00    +0.175 C 
ENDBRANCH  30  37
ENDBRANCH  12  30
TORSDOF 5
ENDMDL
MODEL 3
REMARK VINA RESULT:      -8.5      4.857     13.111
REMARK  Name = 11442891
REMARK  5 active torsions:
REMARK  status: ('A' for Active; 'I' for Inactive)
REMARK    1  A    between atoms: C_12  and  C_30
REMARK    2  A    between atoms: C_13  and  C_19
REMARK    3  A    between atoms: C_16  and  N_22
REMARK    4  A    between atoms: C_30  and  C_31
REMARK    5  A    between atoms: C_30  and  O_37
REMARK                            x       y       z     vdW  Elec       q    Type
REMARK                         _______ _______ _______ _____ _____    ______ ____
ROOT
ATOM      1  O   UNL     1      29.925 -22.698 -17.286  0.00  0.00    -0.271 OA
ATOM      2  O   UNL     1      36.990 -20.065 -21.044  0.00  0.00    -0.270 OA
ATOM      3  N   UNL     1      32.210 -23.002 -17.473  0.00  0.00    -0.231 N 
ATOM      4  N   UNL     1      35.729 -22.964 -18.208  0.00  0.00    -0.273 N 
ATOM      5  N   UNL     1      36.068 -22.003 -19.104  0.00  0.00    -0.157 NA
ATOM      6  N   UNL     1      34.785 -20.349 -20.277  0.00  0.00    -0.264 N 
ATOM      7  C   UNL     1      32.397 -21.894 -18.467  0.00  0.00    +0.077 C 
ATOM      8  C   UNL     1      33.841 -21.970 -18.688  0.00  0.00    +0.067 A 
ATOM      9  C   UNL     1      33.481 -23.716 -17.111  0.00  0.00    +0.091 C 
ATOM     10  C   UNL     1      34.408 -22.960 -17.947  0.00  0.00    +0.093 A 
ATOM     11  C   UNL     1      34.898 -21.401 -19.391  0.00  0.00    +0.157 A 
ATOM     12  C   UNL     1      30.953 -23.299 -16.970  0.00  0.00    +0.265 C 
ATOM     13  C   UNL     1      35.804 -19.755 -21.033  0.00  0.00    +0.251 C 
ATOM     14  H   UNL     1      36.371 -23.587 -17.797  0.00  0.00    +0.189 HD
ATOM     15  H   UNL     1      33.883 -19.971 -20.391  0.00  0.00    +0.157 HD
ENDROOT
BRANCH  13  19
ATOM     16  C   UNL     1      34.556 -16.578 -23.610  0.00  0.00    +0.048 C 
ATOM     17  C   UNL     1      34.950 -16.301 -22.301  0.00  0.00    +0.015 C 
ATOM     18  C   UNL     1      34.569 -17.892 -24.078  0.00  0.00    +0.015 C 
ATOM     19  C   UNL     1      35.370 -18.651 -21.929  0.00  0.00    +0.054 C 
ATOM     20  C   UNL     1      35.357 -17.337 -21.460  0.00  0.00    +0.006 C 
ATOM     21  C   UNL     1      34.976 -18.929 -23.238  0.00  0.00    +0.006 C 
BRANCH  16  22
ATOM     22  N   UNL     1      34.146 -15.540 -24.452  0.00  0.00    -0.312 N 
ATOM     23  N   UNL     1      33.065 -13.504 -26.140  0.00  0.00    +0.388 N 
ATOM     24  C   UNL     1      33.690 -14.272 -23.874  0.00  0.00    +0.068 C 
ATOM     25  C   UNL     1      33.555 -15.895 -25.749  0.00  0.00    +0.068 C 
ATOM     26  C   UNL     1      33.780 -13.146 -24.908  0.00  0.00    -0.056 C 
ATOM     27  C   UNL     1      33.651 -14.717 -26.722  0.00  0.00    -0.056 C 
ATOM     28  C   UNL     1      33.112 -12.401 -27.098  0.00  0.00    -0.101 C 
ATOM     29  H   UNL     1      32.088 -13.686 -25.913  0.00  0.00    -0.080 HD
ENDBRANCH  16  22
ENDBRANCH  13  19
BRANCH  12  30
ATOM     30  C   UNL     1      30.902 -24.435 -15.979  0.00  0.00    +0.214 C 
BRANCH  30  31
ATOM     31  C   UNL     1      31.773 -24.151 -14.789  0.00  0.00    +0.013 C 
ATOM     32  C   UNL     1      31.537 -23.020 -14.007  0.00  0.00    -0.001 C 
ATOM     33  C   UNL     1      32.818 -25.016 -14.466  0.00  0.00    -0.001 C 
ATOM     34  C   UNL     1      32.345 -22.755 -12.902  0.00  0.00    -0.000 C 
ATOM     35  C   UNL     1      33.627 -24.752 -13.362  0.00  0.00    -0.000 C 
ATOM     36  C   UNL     1      33.391 -23.621 -12.579  0.00  0.00    -0.000 C 
ENDBRANCH  30  31
BRANCH  30  37
ATOM     37  O   UNL     1      29.551 -24.590 -15.589  0.00  0.00    -0.340 OA
ATOM     38  C   UNL     1      29.372 -25.724 -14.746  0.00  0.00    +0.175 C 
ENDBRANCH  30  37
ENDBRANCH  12  30
TORSDOF 5
ENDMDL
MODEL 4
REMARK VINA RESULT:      -8.3      3.636      6.958
REMARK  Name = 11442891
REMARK  5 active torsions:
REMARK  status: ('A' for Active; 'I' for Inactive)
REMARK    1  A    between atoms: C_12  and  C_30
REMARK    2  A    between atoms: C_13  and  C_19
REMARK    3  A    between atoms: C_16  and  N_22
REMARK    4  A    between atoms: C_30  and  C_31
REMARK    5  A    between atoms: C_30  and  O_37
REMARK                            x       y       z     vdW  Elec       q    Type
REMARK                         _______ _______ _______ _____ _____    ______ ____
ROOT
ATOM      1  O   UNL     1      35.028  -5.343 -26.856  0.00  0.00    -0.271 OA
ATOM      2  O   UNL     1      30.902 -10.157 -21.308  0.00  0.00    -0.270 OA
ATOM      3  N   UNL     1      33.327  -5.415 -25.290  0.00  0.00    -0.231 N 
ATOM      4  N   UNL     1      30.871  -6.172 -22.776  0.00  0.00    -0.273 N 
ATOM      5  N   UNL     1      30.949  -7.453 -22.336  0.00  0.00    -0.157 NA
ATOM      6  N   UNL     1      32.389  -9.284 -22.908  0.00  0.00    -0.264 N 
ATOM      7  C   UNL     1      33.559  -6.852 -24.928  0.00  0.00    +0.077 C 
ATOM      8  C   UNL     1      32.521  -7.046 -23.915  0.00  0.00    +0.067 A 
ATOM      9  C   UNL     1      32.203  -4.769 -24.532  0.00  0.00    +0.091 C 
ATOM     10  C   UNL     1      31.800  -5.910 -23.715  0.00  0.00    +0.093 A 
ATOM     11  C   UNL     1      31.966  -7.978 -23.044  0.00  0.00    +0.157 A 
ATOM     12  C   UNL     1      34.111  -4.789 -26.248  0.00  0.00    +0.265 C 
ATOM     13  C   UNL     1      31.852 -10.274 -22.073  0.00  0.00    +0.251 C 
ATOM     14  H   UNL     1      30.217  -5.513 -22.448  0.00  0.00    +0.189 HD
ATOM     15  H   UNL     1      33.159  -9.553 -23.460  0.00  0.00    +0.157 HD
ENDROOT
BRANCH  13  19
ATOM     16  C   UNL     1      33.734 -14.105 -22.334  0.00  0.00    +0.048 C 
ATOM     17  C   UNL     1      32.914 -13.803 -21.247  0.00  0.00    +0.015 C 
ATOM     18  C   UNL     1      33.940 -13.157 -23.337  0.00  0.00    +0.015 C 
ATOM     19  C   UNL     1      32.506 -11.605 -22.164  0.00  0.00    +0.054 C 
ATOM     20  C   UNL     1      32.301 -12.553 -21.162  0.00  0.00    +0.006 C 
ATOM     21  C   UNL     1      33.326 -11.908 -23.252  0.00  0.00    +0.006 C 
BRANCH  16  22
ATOM     22  N   UNL     1      34.351 -15.358 -22.420  0.00  0.00    -0.312 N 
ATOM     23  N   UNL     1      35.828 -17.790 -22.662  0.00  0.00    +0.388 N 
ATOM     24  C   UNL     1      35.111 -15.872 -21.276  0.00  0.00    +0.068 C 
ATOM     25  C   UNL     1      34.800 -15.819 -23.739  0.00  0.00    +0.068 C 
ATOM     26  C   UNL     1      35.257 -17.393 -21.368  0.00  0.00    -0.056 C 
ATOM     27  C   UNL     1      34.954 -17.341 -23.752  0.00  0.00    -0.056 C 
ATOM     28  C   UNL     1      36.013 -19.240 -22.717  0.00  0.00    -0.101 C 
ATOM     29  H   UNL     1      36.741 -17.350 -22.768  0.00  0.00    -0.080 HD
ENDBRANCH  16  22
ENDBRANCH  13  19
BRANCH  12  30
ATOM     30  C   UNL     1      33.775  -3.344 -26.519  0.00  0.00    +0.214 C 
BRANCH  30  31
ATOM     31  C   UNL     1      34.610  -2.799 -27.642  0.00  0.00    +0.013 C 
ATOM     32  C   UNL     1      35.886  -2.297 -27.382  0.00  0.00    -0.001 C 
ATOM     33  C   UNL     1      34.112  -2.795 -28.945  0.00  0.00    -0.001 C 
ATOM     34  C   UNL     1      36.662  -1.791 -28.424  0.00  0.00    -0.000 C 
ATOM     35  C   UNL     1      34.888  -2.288 -29.987  0.00  0.00    -0.000 C 
ATOM     36  C   UNL     1      36.163  -1.786 -29.727  0.00  0.00    -0.000 C 
ENDBRANCH  30  31
BRANCH  30  37
ATOM     37  O   UNL     1      32.399  -3.289 -26.842  0.00  0.00    -0.340 OA
ATOM     38  C   UNL     1      31.839  -2.011 -26.553  0.00  0.00    +0.175 C 
ENDBRANCH  30  37
ENDBRANCH  12  30
TORSDOF 5
ENDMDL
MODEL 5
REMARK VINA RESULT:      -8.2      2.157      4.139
REMARK  Name = 11442891
REMARK  5 active torsions:
REMARK  status: ('A' for Active; 'I' for Inactive)
REMARK    1  A    between atoms: C_12  and  C_30
REMARK    2  A    between atoms: C_13  and  C_19
REMARK    3  A    between atoms: C_16  and  N_22
REMARK    4  A    between atoms: C_30  and  C_31
REMARK    5  A    between atoms: C_30  and  O_37
REMARK                            x       y       z     vdW  Elec       q    Type
REMARK                         _______ _______ _______ _____ _____    ______ ____
ROOT
ATOM      1  O   UNL     1      32.935 -12.843 -21.132  0.00  0.00    -0.271 OA
ATOM      2  O   UNL     1      35.863 -20.532 -22.945  0.00  0.00    -0.270 OA
ATOM      3  N   UNL     1      33.733 -14.234 -22.799  0.00  0.00    -0.231 N 
ATOM      4  N   UNL     1      35.023 -16.855 -24.896  0.00  0.00    -0.273 N 
ATOM      5  N   UNL     1      35.249 -18.006 -24.215  0.00  0.00    -0.157 NA
ATOM      6  N   UNL     1      34.961 -18.620 -21.914  0.00  0.00    -0.264 N 
ATOM      7  C   UNL     1      33.921 -15.413 -21.891  0.00  0.00    +0.077 C 
ATOM      8  C   UNL     1      34.439 -16.402 -22.837  0.00  0.00    +0.067 A 
ATOM      9  C   UNL     1      34.119 -14.496 -24.226  0.00  0.00    +0.091 C 
ATOM     10  C   UNL     1      34.539 -15.888 -24.092  0.00  0.00    +0.093 A 
ATOM     11  C   UNL     1      34.888 -17.714 -22.952  0.00  0.00    +0.157 A 
ATOM     12  C   UNL     1      33.243 -13.032 -22.309  0.00  0.00    +0.265 C 
ATOM     13  C   UNL     1      35.430 -19.939 -21.963  0.00  0.00    +0.251 C 
ATOM     14  H   UNL     1      35.189 -16.740 -25.859  0.00  0.00    +0.189 HD
ATOM     15  H   UNL     1      34.646 -18.303 -21.036  0.00  0.00    +0.157 HD
ENDROOT
BRANCH  13  19
ATOM     16  C   UNL     1      35.384 -22.036 -18.235  0.00  0.00    +0.048 C 
ATOM     17  C   UNL     1      36.592 -21.579 -18.764  0.00  0.00    +0.015 C 
ATOM     18  C   UNL     1      34.192 -21.809 -18.922  0.00  0.00    +0.015 C 
ATOM     19  C   UNL     1      35.414 -20.668 -20.667  0.00  0.00    +0.054 C 
ATOM     20  C   UNL     1      36.606 -20.895 -19.980  0.00  0.00    +0.006 C 
ATOM     21  C   UNL     1      34.206 -21.125 -20.138  0.00  0.00    +0.006 C 
BRANCH  16  22
ATOM     22  N   UNL     1      35.369 -22.723 -17.017  0.00  0.00    -0.312 N 
ATOM     23  N   UNL     1      35.386 -24.343 -14.665  0.00  0.00    +0.388 N 
ATOM     24  C   UNL     1      36.630 -22.986 -16.316  0.00  0.00    +0.068 C 
ATOM     25  C   UNL     1      34.300 -23.703 -16.790  0.00  0.00    +0.068 C 
ATOM     26  C   UNL     1      36.371 -23.267 -14.833  0.00  0.00    -0.056 C 
ATOM     27  C   UNL     1      34.116 -23.959 -15.293  0.00  0.00    -0.056 C 
ATOM     28  C   UNL     1      35.188 -24.639 -13.246  0.00  0.00    -0.101 C 
ATOM     29  H   UNL     1      35.737 -25.186 -15.119  0.00  0.00    -0.080 HD
ENDBRANCH  16  22
ENDBRANCH  13  19
BRANCH  12  30
ATOM     30  C   UNL     1      33.102 -11.927 -23.325  0.00  0.00    +0.214 C 
BRANCH  30  31
ATOM     31  C   UNL     1      32.701 -10.638 -22.666  0.00  0.00    +0.013 C 
ATOM     32  C   UNL     1      33.251  -9.432 -23.099  0.00  0.00    -0.001 C 
ATOM     33  C   UNL     1      31.778 -10.647 -21.620  0.00  0.00    -0.001 C 
ATOM     34  C   UNL     1      32.879  -8.235 -22.488  0.00  0.00    -0.000 C 
ATOM     35  C   UNL     1      31.405  -9.451 -21.008  0.00  0.00    -0.000 C 
ATOM     36  C   UNL     1      31.956  -8.245 -21.441  0.00  0.00    -0.000 C 
ENDBRANCH  30  31
BRANCH  30  37
ATOM     37  O   UNL     1      34.352 -11.793 -23.974  0.00  0.00    -0.340 OA
ATOM     38  C   UNL     1      34.199 -11.525 -25.364  0.00  0.00    +0.175 C 
ENDBRANCH  30  37
ENDBRANCH  12  30
TORSDOF 5
ENDMDL
MODEL 6
REMARK VINA RESULT:      -8.1      3.268     12.681
REMARK  Name = 11442891
REMARK  5 active torsions:
REMARK  status: ('A' for Active; 'I' for Inactive)
REMARK    1  A    between atoms: C_12  and  C_30
REMARK    2  A    between atoms: C_13  and  C_19
REMARK    3  A    between atoms: C_16  and  N_22
REMARK    4  A    between atoms: C_30  and  C_31
REMARK    5  A    between atoms: C_30  and  O_37
REMARK                            x       y       z     vdW  Elec       q    Type
REMARK                         _______ _______ _______ _____ _____    ______ ____
ROOT
ATOM      1  O   UNL     1      35.331 -15.371 -24.494  0.00  0.00    -0.271 OA
ATOM      2  O   UNL     1      31.560  -8.389 -21.666  0.00  0.00    -0.270 OA
ATOM      3  N   UNL     1      33.981 -14.469 -22.847  0.00  0.00    -0.231 N 
ATOM      4  N   UNL     1      31.955 -12.489 -20.633  0.00  0.00    -0.273 N 
ATOM      5  N   UNL     1      31.854 -11.196 -21.031  0.00  0.00    -0.157 NA
ATOM      6  N   UNL     1      32.755  -9.994 -22.901  0.00  0.00    -0.264 N 
ATOM      7  C   UNL     1      33.981 -13.089 -23.435  0.00  0.00    +0.077 C 
ATOM      8  C   UNL     1      33.141 -12.383 -22.468  0.00  0.00    +0.067 A 
ATOM      9  C   UNL     1      33.178 -14.593 -21.584  0.00  0.00    +0.091 C 
ATOM     10  C   UNL     1      32.717 -13.212 -21.476  0.00  0.00    +0.093 A 
ATOM     11  C   UNL     1      32.587 -11.145 -22.158  0.00  0.00    +0.157 A 
ATOM     12  C   UNL     1      34.679 -15.500 -23.457  0.00  0.00    +0.265 C 
ATOM     13  C   UNL     1      32.249  -8.717 -22.625  0.00  0.00    +0.251 C 
ATOM     14  H   UNL     1      31.524 -12.855 -19.827  0.00  0.00    +0.189 HD
ATOM     15  H   UNL     1      33.293 -10.081 -23.722  0.00  0.00    +0.157 HD
ENDROOT
BRANCH  13  19
ATOM     16  C   UNL     1      33.328  -5.676 -25.432  0.00  0.00    +0.048 C 
ATOM     17  C   UNL     1      31.989  -5.866 -25.089  0.00  0.00    +0.015 C 
ATOM     18  C   UNL     1      34.315  -6.478 -24.858  0.00  0.00    +0.015 C 
ATOM     19  C   UNL     1      32.625  -7.660 -23.600  0.00  0.00    +0.054 C 
ATOM     20  C   UNL     1      31.638  -6.858 -24.174  0.00  0.00    +0.006 C 
ATOM     21  C   UNL     1      33.963  -7.470 -23.943  0.00  0.00    +0.006 C 
BRANCH  16  22
ATOM     22  N   UNL     1      33.682  -4.683 -26.351  0.00  0.00    -0.312 N 
ATOM     23  N   UNL     1      34.434  -2.494 -28.025  0.00  0.00    +0.388 N 
ATOM     24  C   UNL     1      35.097  -4.439 -26.648  0.00  0.00    +0.068 C 
ATOM     25  C   UNL     1      32.794  -3.521 -26.487  0.00  0.00    +0.068 C 
ATOM     26  C   UNL     1      35.247  -3.717 -27.990  0.00  0.00    -0.056 C 
ATOM     27  C   UNL     1      33.018  -2.831 -27.835  0.00  0.00    -0.056 C 
ATOM     28  C   UNL     1      34.628  -1.786 -29.290  0.00  0.00    -0.101 C 
ATOM     29  H   UNL     1      34.731  -1.879 -27.268  0.00  0.00    -0.080 HD
ENDBRANCH  16  22
ENDBRANCH  13  19
BRANCH  12  30
ATOM     30  C   UNL     1      34.598 -16.838 -22.764  0.00  0.00    +0.214 C 
BRANCH  30  31
ATOM     31  C   UNL     1      34.464 -17.953 -23.762  0.00  0.00    +0.013 C 
ATOM     32  C   UNL     1      33.711 -17.765 -24.921  0.00  0.00    -0.001 C 
ATOM     33  C   UNL     1      35.093 -19.176 -23.530  0.00  0.00    -0.001 C 
ATOM     34  C   UNL     1      33.587 -18.800 -25.848  0.00  0.00    -0.000 C 
ATOM     35  C   UNL     1      34.969 -20.212 -24.456  0.00  0.00    -0.000 C 
ATOM     36  C   UNL     1      34.216 -20.024 -25.615  0.00  0.00    -0.000 C 
ENDBRANCH  30  31
BRANCH  30  37
ATOM     37  O   UNL     1      35.778 -16.985 -21.999  0.00  0.00    -0.340 OA
ATOM     38  C   UNL     1      35.492 -17.336 -20.649  0.00  0.00    +0.175 C 
ENDBRANCH  30  37
ENDBRANCH  12  30
TORSDOF 5
ENDMDL
MODEL 7
REMARK VINA RESULT:      -7.4      3.802     12.947
REMARK  Name = 11442891
REMARK  5 active torsions:
REMARK  status: ('A' for Active; 'I' for Inactive)
REMARK    1  A    between atoms: C_12  and  C_30
REMARK    2  A    between atoms: C_13  and  C_19
REMARK    3  A    between atoms: C_16  and  N_22
REMARK    4  A    between atoms: C_30  and  C_31
REMARK    5  A    between atoms: C_30  and  O_37
REMARK                            x       y       z     vdW  Elec       q    Type
REMARK                         _______ _______ _______ _____ _____    ______ ____
ROOT
ATOM      1  O   UNL     1      30.670 -22.067 -17.198  0.00  0.00    -0.271 OA
ATOM      2  O   UNL     1      36.702 -18.912 -22.162  0.00  0.00    -0.270 OA
ATOM      3  N   UNL     1      32.714 -22.469 -18.203  0.00  0.00    -0.231 N 
ATOM      4  N   UNL     1      35.823 -22.466 -20.010  0.00  0.00    -0.273 N 
ATOM      5  N   UNL     1      36.052 -21.296 -20.657  0.00  0.00    -0.157 NA
ATOM      6  N   UNL     1      34.797 -19.258 -20.826  0.00  0.00    -0.264 N 
ATOM      7  C   UNL     1      32.798 -21.117 -18.847  0.00  0.00    +0.077 C 
ATOM      8  C   UNL     1      34.081 -21.228 -19.542  0.00  0.00    +0.067 A 
ATOM      9  C   UNL     1      33.890 -23.357 -18.495  0.00  0.00    +0.091 C 
ATOM     10  C   UNL     1      34.654 -22.445 -19.340  0.00  0.00    +0.093 A 
ATOM     11  C   UNL     1      34.974 -20.545 -20.362  0.00  0.00    +0.157 A 
ATOM     12  C   UNL     1      31.623 -22.815 -17.420  0.00  0.00    +0.265 C 
ATOM     13  C   UNL     1      35.643 -18.532 -21.675  0.00  0.00    +0.251 C 
ATOM     14  H   UNL     1      36.435 -23.236 -20.027  0.00  0.00    +0.189 HD
ATOM     15  H   UNL     1      33.981 -18.795 -20.526  0.00  0.00    +0.157 HD
ENDROOT
BRANCH  13  19
ATOM     16  C   UNL     1      34.283 -14.606 -22.691  0.00  0.00    +0.048 C 
ATOM     17  C   UNL     1      34.506 -15.549 -23.695  0.00  0.00    +0.015 C 
ATOM     18  C   UNL     1      34.504 -14.944 -21.355  0.00  0.00    +0.015 C 
ATOM     19  C   UNL     1      35.170 -17.167 -22.028  0.00  0.00    +0.054 C 
ATOM     20  C   UNL     1      34.950 -16.829 -23.363  0.00  0.00    +0.006 C 
ATOM     21  C   UNL     1      34.947 -16.225 -21.024  0.00  0.00    +0.006 C 
BRANCH  16  22
ATOM     22  N   UNL     1      33.840 -13.322 -23.023  0.00  0.00    -0.312 N 
ATOM     23  N   UNL     1      32.774 -10.811 -23.871  0.00  0.00    +0.388 N 
ATOM     24  C   UNL     1      32.640 -12.778 -22.378  0.00  0.00    +0.068 C 
ATOM     25  C   UNL     1      34.114 -12.825 -24.377  0.00  0.00    +0.068 C 
ATOM     26  C   UNL     1      32.622 -11.251 -22.478  0.00  0.00    -0.056 C 
ATOM     27  C   UNL     1      34.050 -11.296 -24.410  0.00  0.00    -0.056 C 
ATOM     28  C   UNL     1      32.701  -9.353 -23.959  0.00  0.00    -0.101 C 
ATOM     29  H   UNL     1      32.012 -11.201 -24.425  0.00  0.00    -0.080 HD
ENDBRANCH  16  22
ENDBRANCH  13  19
BRANCH  12  30
ATOM     30  C   UNL     1      31.661 -24.204 -16.832  0.00  0.00    +0.214 C 
BRANCH  30  31
ATOM     31  C   UNL     1      32.491 -24.235 -15.581  0.00  0.00    +0.013 C 
ATOM     32  C   UNL     1      33.800 -24.718 -15.623  0.00  0.00    -0.001 C 
ATOM     33  C   UNL     1      31.955 -23.781 -14.376  0.00  0.00    -0.001 C 
ATOM     34  C   UNL     1      34.571 -24.747 -14.462  0.00  0.00    -0.000 C 
ATOM     35  C   UNL     1      32.726 -23.811 -13.214  0.00  0.00    -0.000 C 
ATOM     36  C   UNL     1      34.034 -24.294 -13.256  0.00  0.00    -0.000 C 
ENDBRANCH  30  31
BRANCH  30  37
ATOM     37  O   UNL     1      30.325 -24.579 -16.559  0.00  0.00    -0.340 OA
ATOM     38  C   UNL     1      30.259 -25.776 -15.790  0.00  0.00    +0.175 C 
ENDBRANCH  30  37
ENDBRANCH  12  30
TORSDOF 5
ENDMDL
MODEL 8
REMARK VINA RESULT:      -7.3      6.886     14.702
REMARK  Name = 11442891
REMARK  5 active torsions:
REMARK  status: ('A' for Active; 'I' for Inactive)
REMARK    1  A    between atoms: C_12  and  C_30
REMARK    2  A    between atoms: C_13  and  C_19
REMARK    3  A    between atoms: C_16  and  N_22
REMARK    4  A    between atoms: C_30  and  C_31
REMARK    5  A    between atoms: C_30  and  O_37
REMARK                            x       y       z     vdW  Elec       q    Type
REMARK                         _______ _______ _______ _____ _____    ______ ____
ROOT
ATOM      1  O   UNL     1      39.569 -23.935 -15.000  0.00  0.00    -0.271 OA
ATOM      2  O   UNL     1      32.034 -22.399 -18.442  0.00  0.00    -0.270 OA
ATOM      3  N   UNL     1      37.295 -24.336 -14.864  0.00  0.00    -0.231 N 
ATOM      4  N   UNL     1      33.723 -24.565 -15.202  0.00  0.00    -0.273 N 
ATOM      5  N   UNL     1      33.251 -23.868 -16.267  0.00  0.00    -0.157 NA
ATOM      6  N   UNL     1      34.328 -22.530 -17.942  0.00  0.00    -0.264 N 
ATOM      7  C   UNL     1      36.957 -23.517 -16.075  0.00  0.00    +0.077 C 
ATOM      8  C   UNL     1      35.503 -23.681 -16.114  0.00  0.00    +0.067 A 
ATOM      9  C   UNL     1      36.103 -24.965 -14.202  0.00  0.00    +0.091 C 
ATOM     10  C   UNL     1      35.062 -24.466 -15.095  0.00  0.00    +0.093 A 
ATOM     11  C   UNL     1      34.355 -23.329 -16.817  0.00  0.00    +0.157 A 
ATOM     12  C   UNL     1      38.609 -24.463 -14.439  0.00  0.00    +0.265 C 
ATOM     13  C   UNL     1      33.205 -22.120 -18.672  0.00  0.00    +0.251 C 
ATOM     14  H   UNL     1      33.156 -25.080 -14.584  0.00  0.00    +0.189 HD
ATOM     15  H   UNL     1      35.200 -22.212 -18.270  0.00  0.00    +0.157 HD
ENDROOT
BRANCH  13  19
ATOM     16  C   UNL     1      34.022 -19.561 -22.000  0.00  0.00    +0.048 C 
ATOM     17  C   UNL     1      35.074 -20.098 -21.258  0.00  0.00    +0.015 C 
ATOM     18  C   UNL     1      32.703 -19.858 -21.656  0.00  0.00    +0.015 C 
ATOM     19  C   UNL     1      33.489 -21.231 -19.828  0.00  0.00    +0.054 C 
ATOM     20  C   UNL     1      34.808 -20.933 -20.172  0.00  0.00    +0.006 C 
ATOM     21  C   UNL     1      32.437 -20.693 -20.570  0.00  0.00    +0.006 C 
BRANCH  16  22
ATOM     22  N   UNL     1      34.289 -18.723 -23.087  0.00  0.00    -0.312 N 
ATOM     23  N   UNL     1      35.079 -17.096 -25.298  0.00  0.00    +0.388 N 
ATOM     24  C   UNL     1      34.249 -19.265 -24.449  0.00  0.00    +0.068 C 
ATOM     25  C   UNL     1      35.202 -17.592 -22.880  0.00  0.00    +0.068 C 
ATOM     26  C   UNL     1      34.060 -18.140 -25.470  0.00  0.00    -0.056 C 
ATOM     27  C   UNL     1      34.981 -16.521 -23.951  0.00  0.00    -0.056 C 
ATOM     28  C   UNL     1      34.921 -16.054 -26.312  0.00  0.00    -0.101 C 
ATOM     29  H   UNL     1      36.002 -17.513 -25.413  0.00  0.00    -0.080 HD
ENDBRANCH  16  22
ENDBRANCH  13  19
BRANCH  12  30
ATOM     30  C   UNL     1      38.813 -25.313 -13.210  0.00  0.00    +0.214 C 
BRANCH  30  31
ATOM     31  C   UNL     1      37.822 -24.956 -12.138  0.00  0.00    +0.013 C 
ATOM     32  C   UNL     1      36.916 -25.912 -11.679  0.00  0.00    -0.001 C 
ATOM     33  C   UNL     1      37.808 -23.668 -11.602  0.00  0.00    -0.001 C 
ATOM     34  C   UNL     1      35.996 -25.581 -10.685  0.00  0.00    -0.000 C 
ATOM     35  C   UNL     1      36.888 -23.336 -10.608  0.00  0.00    -0.000 C 
ATOM     36  C   UNL     1      35.982 -24.292 -10.149  0.00  0.00    -0.000 C 
ENDBRANCH  30  31
BRANCH  30  37
ATOM     37  O   UNL     1      38.662 -26.663 -13.604  0.00  0.00    -0.340 OA
ATOM     38  C   UNL     1      39.643 -27.045 -14.564  0.00  0.00    +0.175 C 
ENDBRANCH  30  37
ENDBRANCH  12  30
TORSDOF 5
ENDMDL
