MODEL 1
REMARK VINA RESULT:     -10.8      0.000      0.000
REMARK  Name = 25065981
REMARK  7 active torsions:
REMARK  status: ('A' for Active; 'I' for Inactive)
REMARK    1  A    between atoms: C_1  and  C_3
REMARK    2  A    between atoms: C_1  and  C_16
REMARK    3  A    between atoms: C_11  and  O_13
REMARK    4  A    between atoms: C_16  and  O_17
REMARK    5  A    between atoms: O_17  and  C_18
REMARK    6  A    between atoms: C_21  and  C_25
REMARK    7  A    between atoms: C_25  and  N_26
REMARK                            x       y       z     vdW  Elec       q    Type
REMARK                         _______ _______ _______ _____ _____    ______ ____
ROOT
ATOM      1  C   UNL     1      35.355 -17.033 -23.526  0.00  0.00    +0.122 C 
ATOM      2  C   UNL     1      34.547 -17.441 -24.775  0.00  0.00    +0.016 C 
ENDROOT
BRANCH   1   3
ATOM      3  C   UNL     1      35.501 -18.135 -22.532  0.00  0.00    -0.012 C 
ATOM      4  C   UNL     1      34.495 -19.877 -21.164  0.00  0.00    -0.000 C 
ATOM      5  C   UNL     1      34.375 -18.838 -22.100  0.00  0.00    -0.004 C 
ATOM      6  C   UNL     1      35.775 -20.209 -20.658  0.00  0.00    +0.003 C 
ATOM      7  C   UNL     1      36.759 -18.461 -22.034  0.00  0.00    -0.004 C 
ATOM      8  C   UNL     1      36.897 -19.491 -21.104  0.00  0.00    -0.000 C 
ATOM      9  C   UNL     1      33.374 -20.595 -20.719  0.00  0.00    +0.003 C 
ATOM     10  C   UNL     1      35.895 -21.249 -19.722  0.00  0.00    +0.037 C 
ATOM     11  C   UNL     1      34.770 -21.952 -19.291  0.00  0.00    +0.139 C 
ATOM     12  C   UNL     1      33.512 -21.626 -19.788  0.00  0.00    +0.037 C 
BRANCH  11  13
ATOM     13  O   UNL     1      34.903 -22.958 -18.383  0.00  0.00    -0.471 OA
ATOM     14  C   UNL     1      33.772 -23.246 -17.563  0.00  0.00    +0.252 C 
ENDBRANCH  11  13
ENDBRANCH   1   3
BRANCH   1  16
ATOM     15  O   UNL     1      35.020 -15.330 -21.805  0.00  0.00    -0.249 OA
ATOM     16  C   UNL     1      34.746 -15.763 -22.917  0.00  0.00    +0.325 C 
BRANCH  16  17
ATOM     17  O   UNL     1      33.867 -15.180 -23.830  0.00  0.00    -0.424 OA
BRANCH  17  18
ATOM     18  C   UNL     1      33.495 -13.881 -23.478  0.00  0.00    +0.148 C 
ATOM     19  C   UNL     1      32.633 -13.670 -22.401  0.00  0.00    +0.038 C 
ATOM     20  C   UNL     1      33.984 -12.795 -24.204  0.00  0.00    +0.038 C 
ATOM     21  C   UNL     1      32.749 -11.286 -22.778  0.00  0.00    +0.020 C 
ATOM     22  C   UNL     1      32.260 -12.372 -22.051  0.00  0.00    +0.005 C 
ATOM     23  C   UNL     1      33.610 -11.497 -23.853  0.00  0.00    +0.005 C 
BRANCH  21  25
ATOM     24  S   UNL     1      31.927  -9.435 -20.853  0.00  0.00    -0.035 S 
ATOM     25  C   UNL     1      32.359  -9.934 -22.412  0.00  0.00    +0.078 C 
BRANCH  25  26
ATOM     26  N   UNL     1      32.355  -8.997 -23.438  0.00  0.00    -0.352 N 
ATOM     27  H   UNL     1      31.806  -8.183 -23.360  0.00  0.00    +0.143 HD
ATOM     28  H   UNL     1      32.901  -9.146 -24.244  0.00  0.00    +0.143 HD
ENDBRANCH  25  26
ENDBRANCH  21  25
ENDBRANCH  17  18
ENDBRANCH  16  17
ENDBRANCH   1  16
TORSDOF 7
ENDMDL
MODEL 2
REMARK VINA RESULT:     -10.6      1.720      3.081
REMARK  Name = 25065981
REMARK  7 active torsions:
REMARK  status: ('A' for Active; 'I' for Inactive)
REMARK    1  A    between atoms: C_1  and  C_3
REMARK    2  A    between atoms: C_1  and  C_16
REMARK    3  A    between atoms: C_11  and  O_13
REMARK    4  A    between atoms: C_16  and  O_17
REMARK    5  A    between atoms: O_17  and  C_18
REMARK    6  A    between atoms: C_21  and  C_25
REMARK    7  A    between atoms: C_25  and  N_26
REMARK                            x       y       z     vdW  Elec       q    Type
REMARK                         _______ _______ _______ _____ _____    ______ ____
ROOT
ATOM      1  C   UNL     1      35.444 -19.353 -22.232  0.00  0.00    +0.122 C 
ATOM      2  C   UNL     1      34.729 -19.407 -23.596  0.00  0.00    +0.016 C 
ENDROOT
BRANCH   1   3
ATOM      3  C   UNL     1      34.782 -20.182 -21.184  0.00  0.00    -0.012 C 
ATOM      4  C   UNL     1      34.947 -21.643 -19.246  0.00  0.00    -0.000 C 
ATOM      5  C   UNL     1      35.554 -20.859 -20.240  0.00  0.00    -0.004 C 
ATOM      6  C   UNL     1      33.535 -21.743 -19.210  0.00  0.00    +0.003 C 
ATOM      7  C   UNL     1      33.394 -20.279 -21.148  0.00  0.00    -0.004 C 
ATOM      8  C   UNL     1      32.773 -21.054 -20.168  0.00  0.00    -0.000 C 
ATOM      9  C   UNL     1      35.708 -22.331 -18.288  0.00  0.00    +0.003 C 
ATOM     10  C   UNL     1      32.927 -22.528 -18.217  0.00  0.00    +0.037 C 
ATOM     11  C   UNL     1      33.699 -23.204 -17.272  0.00  0.00    +0.139 C 
ATOM     12  C   UNL     1      35.087 -23.106 -17.308  0.00  0.00    +0.037 C 
BRANCH  11  13
ATOM     13  O   UNL     1      33.095 -23.960 -16.315  0.00  0.00    -0.471 OA
ATOM     14  C   UNL     1      31.694 -23.772 -16.126  0.00  0.00    +0.252 C 
ENDBRANCH  11  13
ENDBRANCH   1   3
BRANCH   1  16
ATOM     15  O   UNL     1      35.693 -17.512 -20.642  0.00  0.00    -0.249 OA
ATOM     16  C   UNL     1      35.620 -17.889 -21.805  0.00  0.00    +0.325 C 
BRANCH  16  17
ATOM     17  O   UNL     1      35.708 -17.079 -22.937  0.00  0.00    -0.424 OA
BRANCH  17  18
ATOM     18  C   UNL     1      34.935 -15.919 -22.841  0.00  0.00    +0.148 C 
ATOM     19  C   UNL     1      34.283 -15.421 -23.969  0.00  0.00    +0.038 C 
ATOM     20  C   UNL     1      34.817 -15.259 -21.618  0.00  0.00    +0.038 C 
ATOM     21  C   UNL     1      33.394 -13.602 -22.651  0.00  0.00    +0.020 C 
ATOM     22  C   UNL     1      33.513 -14.262 -23.874  0.00  0.00    +0.005 C 
ATOM     23  C   UNL     1      34.046 -14.100 -21.523  0.00  0.00    +0.005 C 
BRANCH  21  25
ATOM     24  S   UNL     1      32.961 -10.919 -23.296  0.00  0.00    -0.035 S 
ATOM     25  C   UNL     1      32.592 -12.394 -22.552  0.00  0.00    +0.078 C 
BRANCH  25  26
ATOM     26  N   UNL     1      31.434 -12.486 -21.790  0.00  0.00    -0.352 N 
ATOM     27  H   UNL     1      31.422 -13.045 -20.979  0.00  0.00    +0.143 HD
ATOM     28  H   UNL     1      30.625 -11.994 -22.059  0.00  0.00    +0.143 HD
ENDBRANCH  25  26
ENDBRANCH  21  25
ENDBRANCH  17  18
ENDBRANCH  16  17
ENDBRANCH   1  16
TORSDOF 7
ENDMDL
MODEL 3
REMARK VINA RESULT:     -10.5      2.510      4.026
REMARK  Name = 25065981
REMARK  7 active torsions:
REMARK  status: ('A' for Active; 'I' for Inactive)
REMARK    1  A    between atoms: C_1  and  C_3
REMARK    2  A    between atoms: C_1  and  C_16
REMARK    3  A    between atoms: C_11  and  O_13
REMARK    4  A    between atoms: C_16  and  O_17
REMARK    5  A    between atoms: O_17  and  C_18
REMARK    6  A    between atoms: C_21  and  C_25
REMARK    7  A    between atoms: C_25  and  N_26
REMARK                            x       y       z     vdW  Elec       q    Type
REMARK                         _______ _______ _______ _____ _____    ______ ____
ROOT
ATOM      1  C   UNL     1      35.675 -20.159 -21.469  0.00  0.00    +0.122 C 
ATOM      2  C   UNL     1      34.302 -19.824 -22.085  0.00  0.00    +0.016 C 
ENDROOT
BRANCH   1   3
ATOM      3  C   UNL     1      35.582 -20.953 -20.211  0.00  0.00    -0.012 C 
ATOM      4  C   UNL     1      34.243 -22.210 -18.615  0.00  0.00    -0.000 C 
ATOM      5  C   UNL     1      34.349 -21.461 -19.798  0.00  0.00    -0.004 C 
ATOM      6  C   UNL     1      35.403 -22.448 -17.840  0.00  0.00    +0.003 C 
ATOM      7  C   UNL     1      36.722 -21.186 -19.448  0.00  0.00    -0.004 C 
ATOM      8  C   UNL     1      36.635 -21.929 -18.271  0.00  0.00    -0.000 C 
ATOM      9  C   UNL     1      33.012 -22.729 -18.184  0.00  0.00    +0.003 C 
ATOM     10  C   UNL     1      35.297 -23.197 -16.656  0.00  0.00    +0.037 C 
ATOM     11  C   UNL     1      34.066 -23.706 -16.244  0.00  0.00    +0.139 C 
ATOM     12  C   UNL     1      32.925 -23.472 -17.007  0.00  0.00    +0.037 C 
BRANCH  11  13
ATOM     13  O   UNL     1      33.979 -24.431 -15.095  0.00  0.00    -0.471 OA
ATOM     14  C   UNL     1      33.142 -23.915 -14.063  0.00  0.00    +0.252 C 
ENDBRANCH  11  13
ENDBRANCH   1   3
BRANCH   1  16
ATOM     15  O   UNL     1      37.624 -18.702 -21.711  0.00  0.00    -0.249 OA
ATOM     16  C   UNL     1      36.484 -18.866 -21.294  0.00  0.00    +0.325 C 
BRANCH  16  17
ATOM     17  O   UNL     1      35.714 -17.918 -20.621  0.00  0.00    -0.424 OA
BRANCH  17  18
ATOM     18  C   UNL     1      35.280 -16.879 -21.447  0.00  0.00    +0.148 C 
ATOM     19  C   UNL     1      35.306 -17.032 -22.834  0.00  0.00    +0.038 C 
ATOM     20  C   UNL     1      34.822 -15.687 -20.886  0.00  0.00    +0.038 C 
ATOM     21  C   UNL     1      34.417 -14.801 -23.096  0.00  0.00    +0.020 C 
ATOM     22  C   UNL     1      34.875 -15.994 -23.658  0.00  0.00    +0.005 C 
ATOM     23  C   UNL     1      34.390 -14.648 -21.711  0.00  0.00    +0.005 C 
BRANCH  21  25
ATOM     24  S   UNL     1      33.145 -13.920 -25.422  0.00  0.00    -0.035 S 
ATOM     25  C   UNL     1      33.968 -13.719 -23.957  0.00  0.00    +0.078 C 
BRANCH  25  26
ATOM     26  N   UNL     1      34.242 -12.430 -23.516  0.00  0.00    -0.352 N 
ATOM     27  H   UNL     1      33.954 -12.145 -22.618  0.00  0.00    +0.143 HD
ATOM     28  H   UNL     1      34.722 -11.801 -24.101  0.00  0.00    +0.143 HD
ENDBRANCH  25  26
ENDBRANCH  21  25
ENDBRANCH  17  18
ENDBRANCH  16  17
ENDBRANCH   1  16
TORSDOF 7
ENDMDL
MODEL 4
REMARK VINA RESULT:     -10.4      5.732      9.101
REMARK  Name = 25065981
REMARK  7 active torsions:
REMARK  status: ('A' for Active; 'I' for Inactive)
REMARK    1  A    between atoms: C_1  and  C_3
REMARK    2  A    between atoms: C_1  and  C_16
REMARK    3  A    between atoms: C_11  and  O_13
REMARK    4  A    between atoms: C_16  and  O_17
REMARK    5  A    between atoms: O_17  and  C_18
REMARK    6  A    between atoms: C_21  and  C_25
REMARK    7  A    between atoms: C_25  and  N_26
REMARK                            x       y       z     vdW  Elec       q    Type
REMARK                         _______ _______ _______ _____ _____    ______ ____
ROOT
ATOM      1  C   UNL     1      32.824 -23.907 -16.067  0.00  0.00    +0.122 C 
ATOM      2  C   UNL     1      31.958 -23.229 -14.986  0.00  0.00    +0.016 C 
ENDROOT
BRANCH   1   3
ATOM      3  C   UNL     1      34.271 -23.965 -15.714  0.00  0.00    -0.012 C 
ATOM      4  C   UNL     1      36.223 -25.261 -15.054  0.00  0.00    -0.000 C 
ATOM      5  C   UNL     1      34.861 -25.188 -15.389  0.00  0.00    -0.004 C 
ATOM      6  C   UNL     1      36.998 -24.077 -15.049  0.00  0.00    +0.003 C 
ATOM      7  C   UNL     1      35.034 -22.801 -15.708  0.00  0.00    -0.004 C 
ATOM      8  C   UNL     1      36.388 -22.855 -15.378  0.00  0.00    -0.000 C 
ATOM      9  C   UNL     1      36.832 -26.482 -14.726  0.00  0.00    +0.003 C 
ATOM     10  C   UNL     1      38.360 -24.149 -14.713  0.00  0.00    +0.037 C 
ATOM     11  C   UNL     1      38.949 -25.371 -14.390  0.00  0.00    +0.139 C 
ATOM     12  C   UNL     1      38.186 -26.535 -14.396  0.00  0.00    +0.037 C 
BRANCH  11  13
ATOM     13  O   UNL     1      40.271 -25.426 -14.068  0.00  0.00    -0.471 OA
ATOM     14  C   UNL     1      40.960 -26.640 -14.355  0.00  0.00    +0.252 C 
ENDBRANCH  11  13
ENDBRANCH   1   3
BRANCH   1  16
ATOM     15  O   UNL     1      31.623 -22.492 -17.658  0.00  0.00    -0.249 OA
ATOM     16  C   UNL     1      32.572 -23.229 -17.421  0.00  0.00    +0.325 C 
BRANCH  16  17
ATOM     17  O   UNL     1      33.593 -23.563 -18.309  0.00  0.00    -0.424 OA
BRANCH  17  18
ATOM     18  C   UNL     1      33.991 -22.492 -19.112  0.00  0.00    +0.148 C 
ATOM     19  C   UNL     1      35.348 -22.212 -19.280  0.00  0.00    +0.038 C 
ATOM     20  C   UNL     1      33.033 -21.701 -19.745  0.00  0.00    +0.038 C 
ATOM     21  C   UNL     1      34.786 -20.349 -20.713  0.00  0.00    +0.020 C 
ATOM     22  C   UNL     1      35.745 -21.141 -20.080  0.00  0.00    +0.005 C 
ATOM     23  C   UNL     1      33.431 -20.629 -20.545  0.00  0.00    +0.005 C 
BRANCH  21  25
ATOM     24  S   UNL     1      34.967 -19.131 -23.220  0.00  0.00    -0.035 S 
ATOM     25  C   UNL     1      35.201 -19.233 -21.547  0.00  0.00    +0.078 C 
BRANCH  25  26
ATOM     26  N   UNL     1      35.830 -18.180 -20.894  0.00  0.00    -0.352 N 
ATOM     27  H   UNL     1      36.624 -18.349 -20.338  0.00  0.00    +0.143 HD
ATOM     28  H   UNL     1      35.481 -17.264 -20.988  0.00  0.00    +0.143 HD
ENDBRANCH  25  26
ENDBRANCH  21  25
ENDBRANCH  17  18
ENDBRANCH  16  17
ENDBRANCH   1  16
TORSDOF 7
ENDMDL
MODEL 5
REMARK VINA RESULT:     -10.2      2.498      4.220
REMARK  Name = 25065981
REMARK  7 active torsions:
REMARK  status: ('A' for Active; 'I' for Inactive)
REMARK    1  A    between atoms: C_1  and  C_3
REMARK    2  A    between atoms: C_1  and  C_16
REMARK    3  A    between atoms: C_11  and  O_13
REMARK    4  A    between atoms: C_16  and  O_17
REMARK    5  A    between atoms: O_17  and  C_18
REMARK    6  A    between atoms: C_21  and  C_25
REMARK    7  A    between atoms: C_25  and  N_26
REMARK                            x       y       z     vdW  Elec       q    Type
REMARK                         _______ _______ _______ _____ _____    ______ ____
ROOT
ATOM      1  C   UNL     1      35.732 -20.146 -21.583  0.00  0.00    +0.122 C 
ATOM      2  C   UNL     1      34.530 -19.758 -22.467  0.00  0.00    +0.016 C 
ENDROOT
BRANCH   1   3
ATOM      3  C   UNL     1      35.348 -20.931 -20.375  0.00  0.00    -0.012 C 
ATOM      4  C   UNL     1      35.963 -21.972 -18.263  0.00  0.00    -0.000 C 
ATOM      5  C   UNL     1      36.307 -21.234 -19.407  0.00  0.00    -0.004 C 
ATOM      6  C   UNL     1      34.627 -22.410 -18.098  0.00  0.00    +0.003 C 
ATOM      7  C   UNL     1      34.035 -21.361 -20.212  0.00  0.00    -0.004 C 
ATOM      8  C   UNL     1      33.675 -22.096 -19.082  0.00  0.00    -0.000 C 
ATOM      9  C   UNL     1      36.914 -22.286 -17.280  0.00  0.00    +0.003 C 
ATOM     10  C   UNL     1      34.282 -23.149 -16.955  0.00  0.00    +0.037 C 
ATOM     11  C   UNL     1      35.241 -23.450 -15.987  0.00  0.00    +0.139 C 
ATOM     12  C   UNL     1      36.554 -23.020 -16.150  0.00  0.00    +0.037 C 
BRANCH  11  13
ATOM     13  O   UNL     1      34.891 -24.167 -14.884  0.00  0.00    -0.471 OA
ATOM     14  C   UNL     1      35.919 -24.438 -13.933  0.00  0.00    +0.252 C 
ENDBRANCH  11  13
ENDBRANCH   1   3
BRANCH   1  16
ATOM     15  O   UNL     1      37.713 -18.714 -21.541  0.00  0.00    -0.249 OA
ATOM     16  C   UNL     1      36.539 -18.887 -21.239  0.00  0.00    +0.325 C 
BRANCH  16  17
ATOM     17  O   UNL     1      35.725 -17.978 -20.563  0.00  0.00    -0.424 OA
BRANCH  17  18
ATOM     18  C   UNL     1      35.300 -16.919 -21.368  0.00  0.00    +0.148 C 
ATOM     19  C   UNL     1      34.789 -15.760 -20.784  0.00  0.00    +0.038 C 
ATOM     20  C   UNL     1      35.387 -17.021 -22.756  0.00  0.00    +0.038 C 
ATOM     21  C   UNL     1      34.449 -14.805 -22.977  0.00  0.00    +0.020 C 
ATOM     22  C   UNL     1      34.363 -14.703 -21.588  0.00  0.00    +0.005 C 
ATOM     23  C   UNL     1      34.961 -15.963 -23.561  0.00  0.00    +0.005 C 
BRANCH  21  25
ATOM     24  S   UNL     1      33.205 -13.870 -25.297  0.00  0.00    -0.035 S 
ATOM     25  C   UNL     1      34.005 -13.703 -23.815  0.00  0.00    +0.078 C 
BRANCH  25  26
ATOM     26  N   UNL     1      34.262 -12.425 -23.335  0.00  0.00    -0.352 N 
ATOM     27  H   UNL     1      34.511 -12.294 -22.392  0.00  0.00    +0.143 HD
ATOM     28  H   UNL     1      34.195 -11.649 -23.939  0.00  0.00    +0.143 HD
ENDBRANCH  25  26
ENDBRANCH  21  25
ENDBRANCH  17  18
ENDBRANCH  16  17
ENDBRANCH   1  16
TORSDOF 7
ENDMDL
MODEL 6
REMARK VINA RESULT:     -10.2      5.032      9.592
REMARK  Name = 25065981
REMARK  7 active torsions:
REMARK  status: ('A' for Active; 'I' for Inactive)
REMARK    1  A    between atoms: C_1  and  C_3
REMARK    2  A    between atoms: C_1  and  C_16
REMARK    3  A    between atoms: C_11  and  O_13
REMARK    4  A    between atoms: C_16  and  O_17
REMARK    5  A    between atoms: O_17  and  C_18
REMARK    6  A    between atoms: C_21  and  C_25
REMARK    7  A    between atoms: C_25  and  N_26
REMARK                            x       y       z     vdW  Elec       q    Type
REMARK                         _______ _______ _______ _____ _____    ______ ____
ROOT
ATOM      1  C   UNL     1      36.044 -19.729 -21.876  0.00  0.00    +0.122 C 
ATOM      2  C   UNL     1      37.091 -19.041 -20.978  0.00  0.00    +0.016 C 
ENDROOT
BRANCH   1   3
ATOM      3  C   UNL     1      35.385 -18.797 -22.836  0.00  0.00    -0.012 C 
ATOM      4  C   UNL     1      34.696 -16.543 -23.438  0.00  0.00    -0.000 C 
ATOM      5  C   UNL     1      35.314 -17.434 -22.546  0.00  0.00    -0.004 C 
ATOM      6  C   UNL     1      34.143 -17.041 -24.641  0.00  0.00    +0.003 C 
ATOM      7  C   UNL     1      34.840 -19.287 -24.019  0.00  0.00    -0.004 C 
ATOM      8  C   UNL     1      34.223 -18.416 -24.917  0.00  0.00    -0.000 C 
ATOM      9  C   UNL     1      34.616 -15.168 -23.163  0.00  0.00    +0.003 C 
ATOM     10  C   UNL     1      33.525 -16.150 -25.534  0.00  0.00    +0.037 C 
ATOM     11  C   UNL     1      33.455 -14.787 -25.245  0.00  0.00    +0.139 C 
ATOM     12  C   UNL     1      33.999 -14.297 -24.061  0.00  0.00    +0.037 C 
BRANCH  11  13
ATOM     13  O   UNL     1      32.853 -13.936 -26.120  0.00  0.00    -0.471 OA
ATOM     14  C   UNL     1      33.466 -12.663 -26.314  0.00  0.00    +0.252 C 
ENDBRANCH  11  13
ENDBRANCH   1   3
BRANCH   1  16
ATOM     15  O   UNL     1      33.968 -20.024 -20.619  0.00  0.00    -0.249 OA
ATOM     16  C   UNL     1      35.037 -20.485 -20.999  0.00  0.00    +0.325 C 
BRANCH  16  17
ATOM     17  O   UNL     1      35.517 -21.768 -20.733  0.00  0.00    -0.424 OA
BRANCH  17  18
ATOM     18  C   UNL     1      35.473 -22.098 -19.377  0.00  0.00    +0.148 C 
ATOM     19  C   UNL     1      36.577 -21.843 -18.562  0.00  0.00    +0.038 C 
ATOM     20  C   UNL     1      34.328 -22.683 -18.838  0.00  0.00    +0.038 C 
ATOM     21  C   UNL     1      35.388 -22.761 -16.669  0.00  0.00    +0.020 C 
ATOM     22  C   UNL     1      36.534 -22.175 -17.208  0.00  0.00    +0.005 C 
ATOM     23  C   UNL     1      34.286 -23.015 -17.484  0.00  0.00    +0.005 C 
BRANCH  21  25
ATOM     24  S   UNL     1      36.700 -23.416 -14.291  0.00  0.00    -0.035 S 
ATOM     25  C   UNL     1      35.345 -23.107 -15.257  0.00  0.00    +0.078 C 
BRANCH  25  26
ATOM     26  N   UNL     1      34.084 -23.175 -14.680  0.00  0.00    -0.352 N 
ATOM     27  H   UNL     1      33.989 -23.414 -13.729  0.00  0.00    +0.143 HD
ATOM     28  H   UNL     1      33.283 -22.985 -15.221  0.00  0.00    +0.143 HD
ENDBRANCH  25  26
ENDBRANCH  21  25
ENDBRANCH  17  18
ENDBRANCH  16  17
ENDBRANCH   1  16
TORSDOF 7
ENDMDL
MODEL 7
REMARK VINA RESULT:     -10.1      4.191      9.220
REMARK  Name = 25065981
REMARK  7 active torsions:
REMARK  status: ('A' for Active; 'I' for Inactive)
REMARK    1  A    between atoms: C_1  and  C_3
REMARK    2  A    between atoms: C_1  and  C_16
REMARK    3  A    between atoms: C_11  and  O_13
REMARK    4  A    between atoms: C_16  and  O_17
REMARK    5  A    between atoms: O_17  and  C_18
REMARK    6  A    between atoms: C_21  and  C_25
REMARK    7  A    between atoms: C_25  and  N_26
REMARK                            x       y       z     vdW  Elec       q    Type
REMARK                         _______ _______ _______ _____ _____    ______ ____
ROOT
ATOM      1  C   UNL     1      33.636 -15.332 -24.077  0.00  0.00    +0.122 C 
ATOM      2  C   UNL     1      33.788 -15.632 -25.582  0.00  0.00    +0.016 C 
ENDROOT
BRANCH   1   3
ATOM      3  C   UNL     1      33.391 -13.891 -23.783  0.00  0.00    -0.012 C 
ATOM      4  C   UNL     1      32.419 -12.172 -22.361  0.00  0.00    -0.000 C 
ATOM      5  C   UNL     1      32.660 -13.525 -22.653  0.00  0.00    -0.004 C 
ATOM      6  C   UNL     1      32.928 -11.177 -23.229  0.00  0.00    +0.003 C 
ATOM      7  C   UNL     1      33.891 -12.912 -24.637  0.00  0.00    -0.004 C 
ATOM      8  C   UNL     1      33.662 -11.563 -24.363  0.00  0.00    -0.000 C 
ATOM      9  C   UNL     1      31.686 -11.786 -21.228  0.00  0.00    +0.003 C 
ATOM     10  C   UNL     1      32.687  -9.824 -22.938  0.00  0.00    +0.037 C 
ATOM     11  C   UNL     1      31.957  -9.458 -21.808  0.00  0.00    +0.139 C 
ATOM     12  C   UNL     1      31.458 -10.437 -20.954  0.00  0.00    +0.037 C 
BRANCH  11  13
ATOM     13  O   UNL     1      31.733  -8.143 -21.538  0.00  0.00    -0.471 OA
ATOM     14  C   UNL     1      32.288  -7.622 -20.332  0.00  0.00    +0.252 C 
ENDBRANCH  11  13
ENDBRANCH   1   3
BRANCH   1  16
ATOM     15  O   UNL     1      35.403 -15.325 -22.388  0.00  0.00    -0.249 OA
ATOM     16  C   UNL     1      34.849 -15.892 -23.321  0.00  0.00    +0.325 C 
BRANCH  16  17
ATOM     17  O   UNL     1      35.192 -17.139 -23.843  0.00  0.00    -0.424 OA
BRANCH  17  18
ATOM     18  C   UNL     1      35.264 -18.138 -22.870  0.00  0.00    +0.148 C 
ATOM     19  C   UNL     1      34.212 -19.043 -22.721  0.00  0.00    +0.038 C 
ATOM     20  C   UNL     1      36.385 -18.231 -22.046  0.00  0.00    +0.038 C 
ATOM     21  C   UNL     1      35.405 -20.132 -20.924  0.00  0.00    +0.020 C 
ATOM     22  C   UNL     1      34.282 -20.040 -21.748  0.00  0.00    +0.005 C 
ATOM     23  C   UNL     1      36.455 -19.228 -21.073  0.00  0.00    +0.005 C 
BRANCH  21  25
ATOM     24  S   UNL     1      34.188 -22.162 -19.440  0.00  0.00    -0.035 S 
ATOM     25  C   UNL     1      35.477 -21.171 -19.910  0.00  0.00    +0.078 C 
BRANCH  25  26
ATOM     26  N   UNL     1      36.712 -21.349 -19.300  0.00  0.00    -0.352 N 
ATOM     27  H   UNL     1      37.393 -20.639 -19.350  0.00  0.00    +0.143 HD
ATOM     28  H   UNL     1      36.908 -22.184 -18.817  0.00  0.00    +0.143 HD
ENDBRANCH  25  26
ENDBRANCH  21  25
ENDBRANCH  17  18
ENDBRANCH  16  17
ENDBRANCH   1  16
TORSDOF 7
ENDMDL
MODEL 8
REMARK VINA RESULT:     -10.0      4.972      9.536
REMARK  Name = 25065981
REMARK  7 active torsions:
REMARK  status: ('A' for Active; 'I' for Inactive)
REMARK    1  A    between atoms: C_1  and  C_3
REMARK    2  A    between atoms: C_1  and  C_16
REMARK    3  A    between atoms: C_11  and  O_13
REMARK    4  A    between atoms: C_16  and  O_17
REMARK    5  A    between atoms: O_17  and  C_18
REMARK    6  A    between atoms: C_21  and  C_25
REMARK    7  A    between atoms: C_25  and  N_26
REMARK                            x       y       z     vdW  Elec       q    Type
REMARK                         _______ _______ _______ _____ _____    ______ ____
ROOT
ATOM      1  C   UNL     1      36.062 -19.634 -21.593  0.00  0.00    +0.122 C 
ATOM      2  C   UNL     1      37.246 -19.418 -20.630  0.00  0.00    +0.016 C 
ENDROOT
BRANCH   1   3
ATOM      3  C   UNL     1      35.523 -18.366 -22.162  0.00  0.00    -0.012 C 
ATOM      4  C   UNL     1      34.559 -17.144 -24.033  0.00  0.00    -0.000 C 
ATOM      5  C   UNL     1      35.070 -18.331 -23.481  0.00  0.00    -0.004 C 
ATOM      6  C   UNL     1      34.507 -15.977 -23.234  0.00  0.00    +0.003 C 
ATOM      7  C   UNL     1      35.471 -17.218 -21.377  0.00  0.00    -0.004 C 
ATOM      8  C   UNL     1      34.967 -16.030 -21.908  0.00  0.00    -0.000 C 
ATOM      9  C   UNL     1      34.099 -17.091 -25.358  0.00  0.00    +0.003 C 
ATOM     10  C   UNL     1      33.997 -14.790 -23.785  0.00  0.00    +0.037 C 
ATOM     11  C   UNL     1      33.544 -14.755 -25.104  0.00  0.00    +0.139 C 
ATOM     12  C   UNL     1      33.595 -15.903 -25.889  0.00  0.00    +0.037 C 
BRANCH  11  13
ATOM     13  O   UNL     1      33.051 -13.597 -25.624  0.00  0.00    -0.471 OA
ATOM     14  C   UNL     1      33.751 -12.395 -25.312  0.00  0.00    +0.252 C 
ENDBRANCH  11  13
ENDBRANCH   1   3
BRANCH   1  16
ATOM     15  O   UNL     1      33.853 -20.077 -20.643  0.00  0.00    -0.249 OA
ATOM     16  C   UNL     1      34.984 -20.475 -20.895  0.00  0.00    +0.325 C 
BRANCH  16  17
ATOM     17  O   UNL     1      35.484 -21.749 -20.625  0.00  0.00    -0.424 OA
BRANCH  17  18
ATOM     18  C   UNL     1      35.282 -22.147 -19.302  0.00  0.00    +0.148 C 
ATOM     19  C   UNL     1      34.055 -22.687 -18.916  0.00  0.00    +0.038 C 
ATOM     20  C   UNL     1      36.307 -22.003 -18.367  0.00  0.00    +0.038 C 
ATOM     21  C   UNL     1      34.878 -22.938 -16.658  0.00  0.00    +0.020 C 
ATOM     22  C   UNL     1      33.853 -23.082 -17.594  0.00  0.00    +0.005 C 
ATOM     23  C   UNL     1      36.104 -22.399 -17.044  0.00  0.00    +0.005 C 
BRANCH  21  25
ATOM     24  S   UNL     1      33.309 -24.189 -14.715  0.00  0.00    -0.035 S 
ATOM     25  C   UNL     1      34.666 -23.351 -15.280  0.00  0.00    +0.078 C 
BRANCH  25  26
ATOM     26  N   UNL     1      35.673 -23.026 -14.380  0.00  0.00    -0.352 N 
ATOM     27  H   UNL     1      36.530 -22.668 -14.708  0.00  0.00    +0.143 HD
ATOM     28  H   UNL     1      35.531 -23.154 -13.414  0.00  0.00    +0.143 HD
ENDBRANCH  25  26
ENDBRANCH  21  25
ENDBRANCH  17  18
ENDBRANCH  16  17
ENDBRANCH   1  16
TORSDOF 7
ENDMDL
MODEL 9
REMARK VINA RESULT:     -10.0      6.495     10.997
REMARK  Name = 25065981
REMARK  7 active torsions:
REMARK  status: ('A' for Active; 'I' for Inactive)
REMARK    1  A    between atoms: C_1  and  C_3
REMARK    2  A    between atoms: C_1  and  C_16
REMARK    3  A    between atoms: C_11  and  O_13
REMARK    4  A    between atoms: C_16  and  O_17
REMARK    5  A    between atoms: O_17  and  C_18
REMARK    6  A    between atoms: C_21  and  C_25
REMARK    7  A    between atoms: C_25  and  N_26
REMARK                            x       y       z     vdW  Elec       q    Type
REMARK                         _______ _______ _______ _____ _____    ______ ____
ROOT
ATOM      1  C   UNL     1      34.881 -24.715 -15.046  0.00  0.00    +0.122 C 
ATOM      2  C   UNL     1      35.865 -25.899 -14.963  0.00  0.00    +0.016 C 
ENDROOT
BRANCH   1   3
ATOM      3  C   UNL     1      35.163 -23.791 -16.182  0.00  0.00    -0.012 C 
ATOM      4  C   UNL     1      34.397 -22.599 -18.159  0.00  0.00    -0.000 C 
ATOM      5  C   UNL     1      34.149 -23.467 -17.084  0.00  0.00    -0.004 C 
ATOM      6  C   UNL     1      35.691 -22.050 -18.322  0.00  0.00    +0.003 C 
ATOM      7  C   UNL     1      36.436 -23.252 -16.341  0.00  0.00    -0.004 C 
ATOM      8  C   UNL     1      36.700 -22.387 -17.404  0.00  0.00    -0.000 C 
ATOM      9  C   UNL     1      33.389 -22.262 -19.077  0.00  0.00    +0.003 C 
ATOM     10  C   UNL     1      35.940 -21.182 -19.397  0.00  0.00    +0.037 C 
ATOM     11  C   UNL     1      34.926 -20.858 -20.299  0.00  0.00    +0.139 C 
ATOM     12  C   UNL     1      33.653 -21.397 -20.139  0.00  0.00    +0.037 C 
BRANCH  11  13
ATOM     13  O   UNL     1      35.182 -20.014 -21.336  0.00  0.00    -0.471 OA
ATOM     14  C   UNL     1      36.170 -19.008 -21.126  0.00  0.00    +0.252 C 
ENDBRANCH  11  13
ENDBRANCH   1   3
BRANCH   1  16
ATOM     15  O   UNL     1      35.659 -23.160 -13.327  0.00  0.00    -0.249 OA
ATOM     16  C   UNL     1      34.838 -23.993 -13.692  0.00  0.00    +0.325 C 
BRANCH  16  17
ATOM     17  O   UNL     1      33.720 -24.412 -12.972  0.00  0.00    -0.424 OA
BRANCH  17  18
ATOM     18  C   UNL     1      32.528 -24.280 -13.688  0.00  0.00    +0.148 C 
ATOM     19  C   UNL     1      31.729 -25.400 -13.925  0.00  0.00    +0.038 C 
ATOM     20  C   UNL     1      32.137 -23.030 -14.166  0.00  0.00    +0.038 C 
ATOM     21  C   UNL     1      30.148 -24.017 -15.120  0.00  0.00    +0.020 C 
ATOM     22  C   UNL     1      30.540 -25.268 -14.641  0.00  0.00    +0.005 C 
ATOM     23  C   UNL     1      30.946 -22.899 -14.882  0.00  0.00    +0.005 C 
BRANCH  21  25
ATOM     24  S   UNL     1      27.800 -22.614 -15.686  0.00  0.00    -0.035 S 
ATOM     25  C   UNL     1      28.908 -23.881 -15.866  0.00  0.00    +0.078 C 
BRANCH  25  26
ATOM     26  N   UNL     1      28.639 -24.877 -16.797  0.00  0.00    -0.352 N 
ATOM     27  H   UNL     1      28.540 -25.812 -16.503  0.00  0.00    +0.143 HD
ATOM     28  H   UNL     1      28.548 -24.649 -17.750  0.00  0.00    +0.143 HD
ENDBRANCH  25  26
ENDBRANCH  21  25
ENDBRANCH  17  18
ENDBRANCH  16  17
ENDBRANCH   1  16
TORSDOF 7
ENDMDL
