MODEL 1
REMARK VINA RESULT:     -13.0      0.000      0.000
REMARK  Name = 21081761
REMARK  5 active torsions:
REMARK  status: ('A' for Active; 'I' for Inactive)
REMARK    1  A    between atoms: N_2  and  C_6
REMARK    2  A    between atoms: C_3  and  C_25
REMARK    3  A    between atoms: C_7  and  O_12
REMARK    4  A    between atoms: O_12  and  C_16
REMARK    5  A    between atoms: N_24  and  C_31
REMARK                            x       y       z     vdW  Elec       q    Type
REMARK                         _______ _______ _______ _____ _____    ______ ____
ROOT
ATOM      1  O   UNL     1      32.649 -22.371 -20.103  0.00  0.00    -0.270 OA
ATOM      2  N   UNL     1      34.527 -21.138 -19.380  0.00  0.00    -0.280 N 
ATOM      3  C   UNL     1      33.483 -22.058 -19.262  0.00  0.00    +0.254 C 
ATOM      4  H   UNL     1      35.096 -21.023 -18.585  0.00  0.00    +0.155 HD
ENDROOT
BRANCH   2   6
ATOM      5  F   UNL     1      37.757 -18.664 -21.894  0.00  0.00    -0.201 F 
ATOM      6  C   UNL     1      34.862 -20.361 -20.489  0.00  0.00    +0.053 C 
ATOM      7  C   UNL     1      35.532 -18.805 -22.706  0.00  0.00    +0.173 C 
ATOM      8  C   UNL     1      36.167 -19.890 -20.644  0.00  0.00    +0.047 C 
ATOM      9  C   UNL     1      33.893 -20.054 -21.445  0.00  0.00    +0.018 C 
ATOM     10  C   UNL     1      36.502 -19.112 -21.752  0.00  0.00    +0.176 C 
ATOM     11  C   UNL     1      34.227 -19.276 -22.553  0.00  0.00    +0.041 C 
BRANCH   7  12
ATOM     12  O   UNL     1      35.862 -18.033 -23.804  0.00  0.00    -0.451 OA
BRANCH  12  16
ATOM     13  N   UNL     1      33.713 -14.079 -22.612  0.00  0.00    -0.297 N 
ATOM     14  N   UNL     1      33.270 -14.867 -24.845  0.00  0.00    -0.229 NA
ATOM     15  C   UNL     1      34.729 -15.974 -23.215  0.00  0.00    +0.067 C 
ATOM     16  C   UNL     1      35.026 -17.001 -24.125  0.00  0.00    +0.150 C 
ATOM     17  C   UNL     1      33.865 -14.970 -23.642  0.00  0.00    +0.135 C 
ATOM     18  C   UNL     1      35.098 -15.659 -21.880  0.00  0.00    +0.022 C 
ATOM     19  C   UNL     1      34.457 -14.488 -21.536  0.00  0.00    +0.063 C 
ATOM     20  C   UNL     1      34.436 -16.943 -25.387  0.00  0.00    +0.058 C 
ATOM     21  C   UNL     1      33.590 -15.882 -25.680  0.00  0.00    +0.103 C 
ATOM     22  H   UNL     1      33.154 -13.269 -22.640  0.00  0.00    +0.154 HD
ENDBRANCH  12  16
ENDBRANCH   7  12
ENDBRANCH   2   6
BRANCH   3  25
ATOM     23  O   UNL     1      35.760 -22.972 -17.769  0.00  0.00    -0.269 OA
ATOM     24  N   UNL     1      34.482 -23.658 -15.902  0.00  0.00    -0.233 N 
ATOM     25  C   UNL     1      33.441 -22.690 -17.938  0.00  0.00    +0.108 C 
ATOM     26  C   UNL     1      34.679 -23.103 -17.194  0.00  0.00    +0.261 C 
ATOM     27  C   UNL     1      33.186 -23.860 -15.425  0.00  0.00    +0.072 C 
ATOM     28  C   UNL     1      32.231 -22.909 -17.411  0.00  0.00    +0.010 C 
ATOM     29  C   UNL     1      32.097 -23.520 -16.121  0.00  0.00    +0.017 C 
BRANCH  24  31
ATOM     30  F   UNL     1      38.888 -25.102 -12.799  0.00  0.00    -0.204 F 
ATOM     31  C   UNL     1      35.627 -24.033 -15.096  0.00  0.00    +0.059 C 
ATOM     32  C   UNL     1      36.278 -23.074 -14.319  0.00  0.00    +0.018 C 
ATOM     33  C   UNL     1      36.078 -25.354 -15.096  0.00  0.00    +0.018 C 
ATOM     34  C   UNL     1      37.379 -23.435 -13.543  0.00  0.00    +0.031 C 
ATOM     35  C   UNL     1      37.180 -25.715 -14.320  0.00  0.00    +0.031 C 
ATOM     36  C   UNL     1      37.830 -24.756 -13.543  0.00  0.00    +0.140 C 
ENDBRANCH  24  31
ENDBRANCH   3  25
TORSDOF 5
ENDMDL
MODEL 2
REMARK VINA RESULT:     -12.9      5.039     12.237
REMARK  Name = 21081761
REMARK  5 active torsions:
REMARK  status: ('A' for Active; 'I' for Inactive)
REMARK    1  A    between atoms: N_2  and  C_6
REMARK    2  A    between atoms: C_3  and  C_25
REMARK    3  A    between atoms: C_7  and  O_12
REMARK    4  A    between atoms: O_12  and  C_16
REMARK    5  A    between atoms: N_24  and  C_31
REMARK                            x       y       z     vdW  Elec       q    Type
REMARK                         _______ _______ _______ _____ _____    ______ ____
ROOT
ATOM      1  O   UNL     1      32.325 -13.736 -23.042  0.00  0.00    -0.270 OA
ATOM      2  N   UNL     1      34.655 -14.022 -23.279  0.00  0.00    -0.280 N 
ATOM      3  C   UNL     1      33.453 -13.311 -23.262  0.00  0.00    +0.254 C 
ATOM      4  H   UNL     1      35.465 -13.498 -23.479  0.00  0.00    +0.155 HD
ENDROOT
BRANCH   2   6
ATOM      5  F   UNL     1      34.808 -18.524 -24.883  0.00  0.00    -0.201 F 
ATOM      6  C   UNL     1      34.849 -15.384 -23.049  0.00  0.00    +0.053 C 
ATOM      7  C   UNL     1      35.234 -18.108 -22.587  0.00  0.00    +0.173 C 
ATOM      8  C   UNL     1      34.730 -16.294 -24.100  0.00  0.00    +0.047 C 
ATOM      9  C   UNL     1      35.161 -15.837 -21.767  0.00  0.00    +0.018 C 
ATOM     10  C   UNL     1      34.922 -17.656 -23.869  0.00  0.00    +0.176 C 
ATOM     11  C   UNL     1      35.353 -17.199 -21.535  0.00  0.00    +0.041 C 
BRANCH   7  12
ATOM     12  O   UNL     1      35.424 -19.458 -22.357  0.00  0.00    -0.451 OA
BRANCH  12  16
ATOM     13  N   UNL     1      34.856 -22.146 -18.599  0.00  0.00    -0.297 N 
ATOM     14  N   UNL     1      32.826 -21.320 -19.597  0.00  0.00    -0.229 NA
ATOM     15  C   UNL     1      35.094 -20.853 -20.404  0.00  0.00    +0.067 C 
ATOM     16  C   UNL     1      34.597 -20.067 -21.455  0.00  0.00    +0.150 C 
ATOM     17  C   UNL     1      34.167 -21.429 -19.541  0.00  0.00    +0.135 C 
ATOM     18  C   UNL     1      36.381 -21.249 -19.949  0.00  0.00    +0.022 C 
ATOM     19  C   UNL     1      36.203 -22.044 -18.837  0.00  0.00    +0.063 C 
ATOM     20  C   UNL     1      33.214 -19.919 -21.560  0.00  0.00    +0.058 C 
ATOM     21  C   UNL     1      32.403 -20.552 -20.628  0.00  0.00    +0.103 C 
ATOM     22  H   UNL     1      34.448 -22.657 -17.862  0.00  0.00    +0.154 HD
ENDBRANCH  12  16
ENDBRANCH   7  12
ENDBRANCH   2   6
BRANCH   3  25
ATOM     23  O   UNL     1      31.964 -11.156 -22.086  0.00  0.00    -0.269 OA
ATOM     24  N   UNL     1      33.181  -9.468 -23.210  0.00  0.00    -0.233 N 
ATOM     25  C   UNL     1      33.640 -11.885 -23.550  0.00  0.00    +0.108 C 
ATOM     26  C   UNL     1      32.854 -10.806 -22.861  0.00  0.00    +0.261 C 
ATOM     27  C   UNL     1      34.133  -9.223 -24.201  0.00  0.00    +0.072 C 
ATOM     28  C   UNL     1      34.545 -11.571 -24.485  0.00  0.00    +0.010 C 
ATOM     29  C   UNL     1      34.793 -10.202 -24.828  0.00  0.00    +0.017 C 
BRANCH  24  31
ATOM     30  F   UNL     1      30.584  -5.228 -20.680  0.00  0.00    -0.204 F 
ATOM     31  C   UNL     1      32.506  -8.366 -22.553  0.00  0.00    +0.059 C 
ATOM     32  C   UNL     1      31.485  -7.681 -23.211  0.00  0.00    +0.018 C 
ATOM     33  C   UNL     1      32.878  -7.991 -21.261  0.00  0.00    +0.018 C 
ATOM     34  C   UNL     1      30.835  -6.621 -22.579  0.00  0.00    +0.031 C 
ATOM     35  C   UNL     1      32.229  -6.931 -20.628  0.00  0.00    +0.031 C 
ATOM     36  C   UNL     1      31.207  -6.246 -21.287  0.00  0.00    +0.140 C 
ENDBRANCH  24  31
ENDBRANCH   3  25
TORSDOF 5
ENDMDL
MODEL 3
REMARK VINA RESULT:     -12.6      5.003     12.310
REMARK  Name = 21081761
REMARK  5 active torsions:
REMARK  status: ('A' for Active; 'I' for Inactive)
REMARK    1  A    between atoms: N_2  and  C_6
REMARK    2  A    between atoms: C_3  and  C_25
REMARK    3  A    between atoms: C_7  and  O_12
REMARK    4  A    between atoms: O_12  and  C_16
REMARK    5  A    between atoms: N_24  and  C_31
REMARK                            x       y       z     vdW  Elec       q    Type
REMARK                         _______ _______ _______ _____ _____    ______ ____
ROOT
ATOM      1  O   UNL     1      32.706 -13.769 -23.979  0.00  0.00    -0.270 OA
ATOM      2  N   UNL     1      33.850 -13.972 -21.925  0.00  0.00    -0.280 N 
ATOM      3  C   UNL     1      33.049 -13.345 -22.882  0.00  0.00    +0.254 C 
ATOM      4  H   UNL     1      34.015 -13.463 -21.098  0.00  0.00    +0.155 HD
ENDROOT
BRANCH   2   6
ATOM      5  F   UNL     1      35.385 -17.695 -24.503  0.00  0.00    -0.201 F 
ATOM      6  C   UNL     1      34.445 -15.231 -21.998  0.00  0.00    +0.053 C 
ATOM      7  C   UNL     1      35.635 -17.750 -22.144  0.00  0.00    +0.173 C 
ATOM      8  C   UNL     1      34.622 -15.849 -23.237  0.00  0.00    +0.047 C 
ATOM      9  C   UNL     1      34.864 -15.873 -20.833  0.00  0.00    +0.018 C 
ATOM     10  C   UNL     1      35.217 -17.109 -23.310  0.00  0.00    +0.176 C 
ATOM     11  C   UNL     1      35.458 -17.133 -20.906  0.00  0.00    +0.041 C 
BRANCH   7  12
ATOM     12  O   UNL     1      36.223 -18.999 -22.216  0.00  0.00    -0.451 OA
BRANCH  12  16
ATOM     13  N   UNL     1      33.181 -21.456 -19.690  0.00  0.00    -0.297 N 
ATOM     14  N   UNL     1      35.492 -21.709 -19.061  0.00  0.00    -0.229 NA
ATOM     15  C   UNL     1      34.665 -20.290 -20.882  0.00  0.00    +0.067 C 
ATOM     16  C   UNL     1      35.969 -19.875 -21.199  0.00  0.00    +0.150 C 
ATOM     17  C   UNL     1      34.517 -21.185 -19.828  0.00  0.00    +0.135 C 
ATOM     18  C   UNL     1      33.363 -20.025 -21.383  0.00  0.00    +0.022 C 
ATOM     19  C   UNL     1      32.470 -20.755 -20.630  0.00  0.00    +0.063 C 
ATOM     20  C   UNL     1      37.018 -20.387 -20.436  0.00  0.00    +0.058 C 
ATOM     21  C   UNL     1      36.726 -21.275 -19.409  0.00  0.00    +0.103 C 
ATOM     22  H   UNL     1      32.789 -22.061 -19.018  0.00  0.00    +0.154 HD
ENDBRANCH  12  16
ENDBRANCH   7  12
ENDBRANCH   2   6
BRANCH   3  25
ATOM     23  O   UNL     1      33.882 -10.844 -24.021  0.00  0.00    -0.269 OA
ATOM     24  N   UNL     1      32.482  -9.542 -22.629  0.00  0.00    -0.233 N 
ATOM     25  C   UNL     1      32.597 -12.016 -22.452  0.00  0.00    +0.108 C 
ATOM     26  C   UNL     1      33.042 -10.749 -23.126  0.00  0.00    +0.261 C 
ATOM     27  C   UNL     1      31.631  -9.576 -21.525  0.00  0.00    +0.072 C 
ATOM     28  C   UNL     1      31.770 -11.969 -21.402  0.00  0.00    +0.010 C 
ATOM     29  C   UNL     1      31.279 -10.713 -20.917  0.00  0.00    +0.017 C 
BRANCH  24  31
ATOM     30  F   UNL     1      33.773  -4.683 -25.048  0.00  0.00    -0.204 F 
ATOM     31  C   UNL     1      32.818  -8.279 -23.258  0.00  0.00    +0.059 C 
ATOM     32  C   UNL     1      31.810  -7.478 -23.796  0.00  0.00    +0.018 C 
ATOM     33  C   UNL     1      34.149  -7.865 -23.325  0.00  0.00    +0.018 C 
ATOM     34  C   UNL     1      32.133  -6.263 -24.400  0.00  0.00    +0.031 C 
ATOM     35  C   UNL     1      34.472  -6.650 -23.929  0.00  0.00    +0.031 C 
ATOM     36  C   UNL     1      33.464  -5.849 -24.466  0.00  0.00    +0.140 C 
ENDBRANCH  24  31
ENDBRANCH   3  25
TORSDOF 5
ENDMDL
MODEL 4
REMARK VINA RESULT:     -12.5      2.656     10.877
REMARK  Name = 21081761
REMARK  5 active torsions:
REMARK  status: ('A' for Active; 'I' for Inactive)
REMARK    1  A    between atoms: N_2  and  C_6
REMARK    2  A    between atoms: C_3  and  C_25
REMARK    3  A    between atoms: C_7  and  O_12
REMARK    4  A    between atoms: O_12  and  C_16
REMARK    5  A    between atoms: N_24  and  C_31
REMARK                            x       y       z     vdW  Elec       q    Type
REMARK                         _______ _______ _______ _____ _____    ______ ____
ROOT
ATOM      1  O   UNL     1      36.470 -18.080 -22.473  0.00  0.00    -0.270 OA
ATOM      2  N   UNL     1      34.291 -18.889 -22.070  0.00  0.00    -0.280 N 
ATOM      3  C   UNL     1      35.257 -18.058 -22.641  0.00  0.00    +0.254 C 
ATOM      4  H   UNL     1      33.358 -18.712 -22.331  0.00  0.00    +0.155 HD
ENDROOT
BRANCH   2   6
ATOM      5  F   UNL     1      37.221 -21.743 -19.593  0.00  0.00    -0.201 F 
ATOM      6  C   UNL     1      34.486 -19.940 -21.174  0.00  0.00    +0.053 C 
ATOM      7  C   UNL     1      34.877 -22.043 -19.383  0.00  0.00    +0.173 C 
ATOM      8  C   UNL     1      35.780 -20.326 -20.822  0.00  0.00    +0.047 C 
ATOM      9  C   UNL     1      33.388 -20.605 -20.628  0.00  0.00    +0.018 C 
ATOM     10  C   UNL     1      35.976 -21.378 -19.927  0.00  0.00    +0.176 C 
ATOM     11  C   UNL     1      33.583 -21.657 -19.734  0.00  0.00    +0.041 C 
BRANCH   7  12
ATOM     12  O   UNL     1      35.070 -23.086 -18.497  0.00  0.00    -0.451 OA
BRANCH  12  16
ATOM     13  N   UNL     1      34.379 -23.546 -13.916  0.00  0.00    -0.297 N 
ATOM     14  N   UNL     1      32.383 -23.370 -15.252  0.00  0.00    -0.229 NA
ATOM     15  C   UNL     1      34.677 -23.324 -16.117  0.00  0.00    +0.067 C 
ATOM     16  C   UNL     1      34.214 -23.179 -17.436  0.00  0.00    +0.150 C 
ATOM     17  C   UNL     1      33.721 -23.410 -15.110  0.00  0.00    +0.135 C 
ATOM     18  C   UNL     1      35.947 -23.414 -15.489  0.00  0.00    +0.022 C 
ATOM     19  C   UNL     1      35.733 -23.549 -14.134  0.00  0.00    +0.063 C 
ATOM     20  C   UNL     1      32.836 -23.132 -17.640  0.00  0.00    +0.058 C 
ATOM     21  C   UNL     1      31.994 -23.230 -16.540  0.00  0.00    +0.103 C 
ATOM     22  H   UNL     1      33.947 -23.628 -13.034  0.00  0.00    +0.154 HD
ENDBRANCH  12  16
ENDBRANCH   7  12
ENDBRANCH   2   6
BRANCH   3  25
ATOM     23  O   UNL     1      34.550 -15.368 -21.929  0.00  0.00    -0.269 OA
ATOM     24  N   UNL     1      33.854 -14.784 -24.112  0.00  0.00    -0.233 N 
ATOM     25  C   UNL     1      34.674 -17.059 -23.544  0.00  0.00    +0.108 C 
ATOM     26  C   UNL     1      34.371 -15.652 -23.113  0.00  0.00    +0.261 C 
ATOM     27  C   UNL     1      33.586 -15.280 -25.389  0.00  0.00    +0.072 C 
ATOM     28  C   UNL     1      34.397 -17.458 -24.791  0.00  0.00    +0.010 C 
ATOM     29  C   UNL     1      33.828 -16.547 -25.739  0.00  0.00    +0.017 C 
BRANCH  24  31
ATOM     30  F   UNL     1      32.818  -9.442 -22.884  0.00  0.00    -0.204 F 
ATOM     31  C   UNL     1      33.585 -13.396 -23.792  0.00  0.00    +0.059 C 
ATOM     32  C   UNL     1      34.179 -12.380 -24.541  0.00  0.00    +0.018 C 
ATOM     33  C   UNL     1      32.730 -13.076 -22.736  0.00  0.00    +0.018 C 
ATOM     34  C   UNL     1      33.919 -11.044 -24.235  0.00  0.00    +0.031 C 
ATOM     35  C   UNL     1      32.471 -11.740 -22.430  0.00  0.00    +0.031 C 
ATOM     36  C   UNL     1      33.065 -10.724 -23.179  0.00  0.00    +0.140 C 
ENDBRANCH  24  31
ENDBRANCH   3  25
TORSDOF 5
ENDMDL
MODEL 5
REMARK VINA RESULT:     -12.4      0.861      1.793
REMARK  Name = 21081761
REMARK  5 active torsions:
REMARK  status: ('A' for Active; 'I' for Inactive)
REMARK    1  A    between atoms: N_2  and  C_6
REMARK    2  A    between atoms: C_3  and  C_25
REMARK    3  A    between atoms: C_7  and  O_12
REMARK    4  A    between atoms: O_12  and  C_16
REMARK    5  A    between atoms: N_24  and  C_31
REMARK                            x       y       z     vdW  Elec       q    Type
REMARK                         _______ _______ _______ _____ _____    ______ ____
ROOT
ATOM      1  O   UNL     1      32.184 -22.042 -18.789  0.00  0.00    -0.270 OA
ATOM      2  N   UNL     1      34.533 -21.838 -18.716  0.00  0.00    -0.280 N 
ATOM      3  C   UNL     1      33.278 -22.280 -18.292  0.00  0.00    +0.254 C 
ATOM      4  H   UNL     1      35.302 -22.138 -18.179  0.00  0.00    +0.155 HD
ENDROOT
BRANCH   2   6
ATOM      5  F   UNL     1      37.693 -19.343 -21.296  0.00  0.00    -0.201 F 
ATOM      6  C   UNL     1      34.830 -21.021 -19.807  0.00  0.00    +0.053 C 
ATOM      7  C   UNL     1      35.424 -19.386 -21.988  0.00  0.00    +0.173 C 
ATOM      8  C   UNL     1      36.138 -20.579 -20.013  0.00  0.00    +0.047 C 
ATOM      9  C   UNL     1      33.820 -20.645 -20.693  0.00  0.00    +0.018 C 
ATOM     10  C   UNL     1      36.435 -19.762 -21.103  0.00  0.00    +0.176 C 
ATOM     11  C   UNL     1      34.117 -19.827 -21.782  0.00  0.00    +0.041 C 
BRANCH   7  12
ATOM     12  O   UNL     1      35.718 -18.575 -23.068  0.00  0.00    -0.451 OA
BRANCH  12  16
ATOM     13  N   UNL     1      33.446 -15.124 -25.214  0.00  0.00    -0.297 N 
ATOM     14  N   UNL     1      34.198 -14.636 -22.978  0.00  0.00    -0.229 NA
ATOM     15  C   UNL     1      34.539 -16.759 -24.157  0.00  0.00    +0.067 C 
ATOM     16  C   UNL     1      35.220 -17.302 -23.055  0.00  0.00    +0.150 C 
ATOM     17  C   UNL     1      34.072 -15.454 -24.040  0.00  0.00    +0.135 C 
ATOM     18  C   UNL     1      34.172 -17.214 -25.452  0.00  0.00    +0.022 C 
ATOM     19  C   UNL     1      33.501 -16.187 -26.079  0.00  0.00    +0.063 C 
ATOM     20  C   UNL     1      35.379 -16.498 -21.927  0.00  0.00    +0.058 C 
ATOM     21  C   UNL     1      34.862 -15.210 -21.948  0.00  0.00    +0.103 C 
ATOM     22  H   UNL     1      33.020 -14.257 -25.407  0.00  0.00    +0.154 HD
ENDBRANCH  12  16
ENDBRANCH   7  12
ENDBRANCH   2   6
BRANCH   3  25
ATOM     23  O   UNL     1      35.690 -23.317 -17.131  0.00  0.00    -0.269 OA
ATOM     24  N   UNL     1      34.579 -24.377 -15.333  0.00  0.00    -0.233 N 
ATOM     25  C   UNL     1      33.356 -23.130 -17.099  0.00  0.00    +0.108 C 
ATOM     26  C   UNL     1      34.660 -23.600 -16.519  0.00  0.00    +0.261 C 
ATOM     27  C   UNL     1      33.330 -24.724 -14.816  0.00  0.00    +0.072 C 
ATOM     28  C   UNL     1      32.197 -23.497 -16.540  0.00  0.00    +0.010 C 
ATOM     29  C   UNL     1      32.181 -24.326 -15.371  0.00  0.00    +0.017 C 
BRANCH  24  31
ATOM     30  F   UNL     1      39.251 -26.102 -12.820  0.00  0.00    -0.204 F 
ATOM     31  C   UNL     1      35.794 -24.826 -14.680  0.00  0.00    +0.059 C 
ATOM     32  C   UNL     1      36.412 -24.016 -13.727  0.00  0.00    +0.018 C 
ATOM     33  C   UNL     1      36.343 -26.066 -15.005  0.00  0.00    +0.018 C 
ATOM     34  C   UNL     1      37.580 -24.448 -13.098  0.00  0.00    +0.031 C 
ATOM     35  C   UNL     1      37.511 -26.498 -14.376  0.00  0.00    +0.031 C 
ATOM     36  C   UNL     1      38.129 -25.689 -13.422  0.00  0.00    +0.140 C 
ENDBRANCH  24  31
ENDBRANCH   3  25
TORSDOF 5
ENDMDL
MODEL 6
REMARK VINA RESULT:     -12.4      5.341      8.624
REMARK  Name = 21081761
REMARK  5 active torsions:
REMARK  status: ('A' for Active; 'I' for Inactive)
REMARK    1  A    between atoms: N_2  and  C_6
REMARK    2  A    between atoms: C_3  and  C_25
REMARK    3  A    between atoms: C_7  and  O_12
REMARK    4  A    between atoms: O_12  and  C_16
REMARK    5  A    between atoms: N_24  and  C_31
REMARK                            x       y       z     vdW  Elec       q    Type
REMARK                         _______ _______ _______ _____ _____    ______ ____
ROOT
ATOM      1  O   UNL     1      35.324 -14.450 -21.540  0.00  0.00    -0.270 OA
ATOM      2  N   UNL     1      33.864 -14.305 -23.388  0.00  0.00    -0.280 N 
ATOM      3  C   UNL     1      34.716 -14.942 -22.483  0.00  0.00    +0.254 C 
ATOM      4  H   UNL     1      33.467 -14.876 -24.085  0.00  0.00    +0.155 HD
ENDROOT
BRANCH   2   6
ATOM      5  F   UNL     1      34.544  -9.872 -25.047  0.00  0.00    -0.201 F 
ATOM      6  C   UNL     1      33.506 -12.957 -23.424  0.00  0.00    +0.053 C 
ATOM      7  C   UNL     1      32.792 -10.261 -23.495  0.00  0.00    +0.173 C 
ATOM      8  C   UNL     1      34.216 -12.068 -24.232  0.00  0.00    +0.047 C 
ATOM      9  C   UNL     1      32.439 -12.497 -22.652  0.00  0.00    +0.018 C 
ATOM     10  C   UNL     1      33.859 -10.720 -24.268  0.00  0.00    +0.176 C 
ATOM     11  C   UNL     1      32.083 -11.149 -22.687  0.00  0.00    +0.041 C 
BRANCH   7  12
ATOM     12  O   UNL     1      32.439  -8.925 -23.529  0.00  0.00    -0.451 OA
BRANCH  12  16
ATOM     13  N   UNL     1      31.159  -5.171 -21.091  0.00  0.00    -0.297 N 
ATOM     14  N   UNL     1      32.220  -6.920 -19.819  0.00  0.00    -0.229 NA
ATOM     15  C   UNL     1      31.785  -6.986 -22.231  0.00  0.00    +0.067 C 
ATOM     16  C   UNL     1      32.360  -8.263 -22.336  0.00  0.00    +0.150 C 
ATOM     17  C   UNL     1      31.755  -6.399 -20.970  0.00  0.00    +0.135 C 
ATOM     18  C   UNL     1      31.183  -6.064 -23.129  0.00  0.00    +0.022 C 
ATOM     19  C   UNL     1      30.808  -4.957 -22.399  0.00  0.00    +0.063 C 
ATOM     20  C   UNL     1      32.858  -8.850 -21.174  0.00  0.00    +0.058 C 
ATOM     21  C   UNL     1      32.763  -8.149 -19.979  0.00  0.00    +0.103 C 
ATOM     22  H   UNL     1      31.006  -4.538 -20.352  0.00  0.00    +0.154 HD
ENDBRANCH  12  16
ENDBRANCH   7  12
ENDBRANCH   2   6
BRANCH   3  25
ATOM     23  O   UNL     1      35.137 -16.990 -20.515  0.00  0.00    -0.269 OA
ATOM     24  N   UNL     1      35.097 -18.755 -22.088  0.00  0.00    -0.233 N 
ATOM     25  C   UNL     1      34.854 -16.377 -22.758  0.00  0.00    +0.108 C 
ATOM     26  C   UNL     1      35.027 -17.399 -21.671  0.00  0.00    +0.261 C 
ATOM     27  C   UNL     1      35.080 -19.064 -23.449  0.00  0.00    +0.072 C 
ATOM     28  C   UNL     1      34.837 -16.751 -24.042  0.00  0.00    +0.010 C 
ATOM     29  C   UNL     1      34.964 -18.133 -24.400  0.00  0.00    +0.017 C 
BRANCH  24  31
ATOM     30  F   UNL     1      35.534 -22.811 -18.281  0.00  0.00    -0.204 F 
ATOM     31  C   UNL     1      35.211 -19.809 -21.098  0.00  0.00    +0.059 C 
ATOM     32  C   UNL     1      34.065 -20.455 -20.632  0.00  0.00    +0.018 C 
ATOM     33  C   UNL     1      36.466 -20.178 -20.613  0.00  0.00    +0.018 C 
ATOM     34  C   UNL     1      34.175 -21.469 -19.681  0.00  0.00    +0.031 C 
ATOM     35  C   UNL     1      36.576 -21.192 -19.662  0.00  0.00    +0.031 C 
ATOM     36  C   UNL     1      35.430 -21.838 -19.196  0.00  0.00    +0.140 C 
ENDBRANCH  24  31
ENDBRANCH   3  25
TORSDOF 5
ENDMDL
MODEL 7
REMARK VINA RESULT:     -12.2      2.381      3.597
REMARK  Name = 21081761
REMARK  5 active torsions:
REMARK  status: ('A' for Active; 'I' for Inactive)
REMARK    1  A    between atoms: N_2  and  C_6
REMARK    2  A    between atoms: C_3  and  C_25
REMARK    3  A    between atoms: C_7  and  O_12
REMARK    4  A    between atoms: O_12  and  C_16
REMARK    5  A    between atoms: N_24  and  C_31
REMARK                            x       y       z     vdW  Elec       q    Type
REMARK                         _______ _______ _______ _____ _____    ______ ____
ROOT
ATOM      1  O   UNL     1      35.369 -22.994 -20.289  0.00  0.00    -0.270 OA
ATOM      2  N   UNL     1      35.054 -20.768 -19.575  0.00  0.00    -0.280 N 
ATOM      3  C   UNL     1      35.137 -22.154 -19.428  0.00  0.00    +0.254 C 
ATOM      4  H   UNL     1      34.856 -20.256 -18.757  0.00  0.00    +0.155 HD
ENDROOT
BRANCH   2   6
ATOM      5  F   UNL     1      33.402 -19.236 -23.793  0.00  0.00    -0.201 F 
ATOM      6  C   UNL     1      35.218 -20.018 -20.740  0.00  0.00    +0.053 C 
ATOM      7  C   UNL     1      35.546 -18.521 -23.071  0.00  0.00    +0.173 C 
ATOM      8  C   UNL     1      34.210 -19.999 -21.705  0.00  0.00    +0.047 C 
ATOM      9  C   UNL     1      36.389 -19.288 -20.941  0.00  0.00    +0.018 C 
ATOM     10  C   UNL     1      34.374 -19.251 -22.871  0.00  0.00    +0.176 C 
ATOM     11  C   UNL     1      36.554 -18.540 -22.107  0.00  0.00    +0.041 C 
BRANCH   7  12
ATOM     12  O   UNL     1      35.710 -17.781 -24.227  0.00  0.00    -0.451 OA
BRANCH  12  16
ATOM     13  N   UNL     1      33.610 -13.925 -22.677  0.00  0.00    -0.297 N 
ATOM     14  N   UNL     1      33.042 -14.582 -24.924  0.00  0.00    -0.229 NA
ATOM     15  C   UNL     1      34.601 -15.771 -23.450  0.00  0.00    +0.067 C 
ATOM     16  C   UNL     1      34.850 -16.739 -24.436  0.00  0.00    +0.150 C 
ATOM     17  C   UNL     1      33.707 -14.752 -23.765  0.00  0.00    +0.135 C 
ATOM     18  C   UNL     1      35.045 -15.533 -22.122  0.00  0.00    +0.022 C 
ATOM     19  C   UNL     1      34.418 -14.391 -21.672  0.00  0.00    +0.063 C 
ATOM     20  C   UNL     1      34.187 -16.611 -25.656  0.00  0.00    +0.058 C 
ATOM     21  C   UNL     1      33.320 -15.543 -25.836  0.00  0.00    +0.103 C 
ATOM     22  H   UNL     1      33.045 -13.120 -22.623  0.00  0.00    +0.154 HD
ENDBRANCH  12  16
ENDBRANCH   7  12
ENDBRANCH   2   6
BRANCH   3  25
ATOM     23  O   UNL     1      32.605 -22.920 -18.312  0.00  0.00    -0.269 OA
ATOM     24  N   UNL     1      33.503 -23.456 -16.191  0.00  0.00    -0.233 N 
ATOM     25  C   UNL     1      34.907 -22.586 -18.045  0.00  0.00    +0.108 C 
ATOM     26  C   UNL     1      33.560 -23.018 -17.541  0.00  0.00    +0.261 C 
ATOM     27  C   UNL     1      34.647 -23.396 -15.394  0.00  0.00    +0.072 C 
ATOM     28  C   UNL     1      35.962 -22.565 -17.222  0.00  0.00    +0.010 C 
ATOM     29  C   UNL     1      35.828 -22.972 -15.854  0.00  0.00    +0.017 C 
BRANCH  24  31
ATOM     30  F   UNL     1      28.686 -25.314 -14.076  0.00  0.00    -0.204 F 
ATOM     31  C   UNL     1      32.251 -23.939 -15.641  0.00  0.00    +0.059 C 
ATOM     32  C   UNL     1      32.258 -24.865 -14.598  0.00  0.00    +0.018 C 
ATOM     33  C   UNL     1      31.039 -23.477 -16.156  0.00  0.00    +0.018 C 
ATOM     34  C   UNL     1      31.054 -25.329 -14.069  0.00  0.00    +0.031 C 
ATOM     35  C   UNL     1      29.834 -23.941 -15.627  0.00  0.00    +0.031 C 
ATOM     36  C   UNL     1      29.842 -24.867 -14.584  0.00  0.00    +0.140 C 
ENDBRANCH  24  31
ENDBRANCH   3  25
TORSDOF 5
ENDMDL
MODEL 8
REMARK VINA RESULT:     -12.2      2.946     10.977
REMARK  Name = 21081761
REMARK  5 active torsions:
REMARK  status: ('A' for Active; 'I' for Inactive)
REMARK    1  A    between atoms: N_2  and  C_6
REMARK    2  A    between atoms: C_3  and  C_25
REMARK    3  A    between atoms: C_7  and  O_12
REMARK    4  A    between atoms: O_12  and  C_16
REMARK    5  A    between atoms: N_24  and  C_31
REMARK                            x       y       z     vdW  Elec       q    Type
REMARK                         _______ _______ _______ _____ _____    ______ ____
ROOT
ATOM      1  O   UNL     1      36.459 -17.953 -22.554  0.00  0.00    -0.270 OA
ATOM      2  N   UNL     1      34.292 -18.817 -22.199  0.00  0.00    -0.280 N 
ATOM      3  C   UNL     1      35.248 -17.954 -22.740  0.00  0.00    +0.254 C 
ATOM      4  H   UNL     1      33.360 -18.655 -22.471  0.00  0.00    +0.155 HD
ENDROOT
BRANCH   2   6
ATOM      5  F   UNL     1      32.584 -22.018 -19.084  0.00  0.00    -0.201 F 
ATOM      6  C   UNL     1      34.498 -19.879 -21.318  0.00  0.00    +0.053 C 
ATOM      7  C   UNL     1      34.909 -22.003 -19.557  0.00  0.00    +0.173 C 
ATOM      8  C   UNL     1      33.419 -20.431 -20.626  0.00  0.00    +0.047 C 
ATOM      9  C   UNL     1      35.782 -20.391 -21.130  0.00  0.00    +0.018 C 
ATOM     10  C   UNL     1      33.624 -21.492 -19.745  0.00  0.00    +0.176 C 
ATOM     11  C   UNL     1      35.988 -21.452 -20.249  0.00  0.00    +0.041 C 
BRANCH   7  12
ATOM     12  O   UNL     1      35.113 -23.054 -18.683  0.00  0.00    -0.451 OA
BRANCH  12  16
ATOM     13  N   UNL     1      34.951 -23.330 -14.038  0.00  0.00    -0.297 N 
ATOM     14  N   UNL     1      36.836 -22.132 -14.939  0.00  0.00    -0.229 NA
ATOM     15  C   UNL     1      35.058 -23.180 -16.263  0.00  0.00    +0.067 C 
ATOM     16  C   UNL     1      35.658 -22.764 -17.463  0.00  0.00    +0.150 C 
ATOM     17  C   UNL     1      35.694 -22.832 -15.076  0.00  0.00    +0.135 C 
ATOM     18  C   UNL     1      33.893 -23.911 -15.907  0.00  0.00    +0.022 C 
ATOM     19  C   UNL     1      33.854 -23.987 -14.532  0.00  0.00    +0.063 C 
ATOM     20  C   UNL     1      36.844 -22.036 -17.380  0.00  0.00    +0.058 C 
ATOM     21  C   UNL     1      37.370 -21.757 -16.126  0.00  0.00    +0.103 C 
ATOM     22  H   UNL     1      35.170 -23.231 -13.083  0.00  0.00    +0.154 HD
ENDBRANCH  12  16
ENDBRANCH   7  12
ENDBRANCH   2   6
BRANCH   3  25
ATOM     23  O   UNL     1      34.557 -15.264 -22.013  0.00  0.00    -0.269 OA
ATOM     24  N   UNL     1      33.836 -14.674 -24.187  0.00  0.00    -0.233 N 
ATOM     25  C   UNL     1      34.657 -16.952 -23.633  0.00  0.00    +0.108 C 
ATOM     26  C   UNL     1      34.363 -15.545 -23.196  0.00  0.00    +0.261 C 
ATOM     27  C   UNL     1      33.551 -15.166 -25.461  0.00  0.00    +0.072 C 
ATOM     28  C   UNL     1      34.364 -17.348 -24.877  0.00  0.00    +0.010 C 
ATOM     29  C   UNL     1      33.786 -16.433 -25.817  0.00  0.00    +0.017 C 
BRANCH  24  31
ATOM     30  F   UNL     1      32.828  -9.332 -22.935  0.00  0.00    -0.204 F 
ATOM     31  C   UNL     1      33.574 -13.285 -23.861  0.00  0.00    +0.059 C 
ATOM     32  C   UNL     1      34.191 -12.270 -24.591  0.00  0.00    +0.018 C 
ATOM     33  C   UNL     1      32.704 -12.966 -22.817  0.00  0.00    +0.018 C 
ATOM     34  C   UNL     1      33.938 -10.934 -24.279  0.00  0.00    +0.031 C 
ATOM     35  C   UNL     1      32.452 -11.630 -22.505  0.00  0.00    +0.031 C 
ATOM     36  C   UNL     1      33.069 -10.614 -23.235  0.00  0.00    +0.140 C 
ENDBRANCH  24  31
ENDBRANCH   3  25
TORSDOF 5
ENDMDL
MODEL 9
REMARK VINA RESULT:     -12.1      5.582      8.706
REMARK  Name = 21081761
REMARK  5 active torsions:
REMARK  status: ('A' for Active; 'I' for Inactive)
REMARK    1  A    between atoms: N_2  and  C_6
REMARK    2  A    between atoms: C_3  and  C_25
REMARK    3  A    between atoms: C_7  and  O_12
REMARK    4  A    between atoms: O_12  and  C_16
REMARK    5  A    between atoms: N_24  and  C_31
REMARK                            x       y       z     vdW  Elec       q    Type
REMARK                         _______ _______ _______ _____ _____    ______ ____
ROOT
ATOM      1  O   UNL     1      35.355 -14.283 -21.402  0.00  0.00    -0.270 OA
ATOM      2  N   UNL     1      33.561 -14.196 -22.933  0.00  0.00    -0.280 N 
ATOM      3  C   UNL     1      34.613 -14.792 -22.233  0.00  0.00    +0.254 C 
ATOM      4  H   UNL     1      33.078 -14.776 -23.565  0.00  0.00    +0.155 HD
ENDROOT
BRANCH   2   6
ATOM      5  F   UNL     1      30.899 -10.851 -20.789  0.00  0.00    -0.201 F 
ATOM      6  C   UNL     1      33.112 -12.879 -22.845  0.00  0.00    +0.053 C 
ATOM      7  C   UNL     1      32.211 -10.244 -22.671  0.00  0.00    +0.173 C 
ATOM      8  C   UNL     1      32.213 -12.513 -21.843  0.00  0.00    +0.047 C 
ATOM      9  C   UNL     1      33.561 -11.926 -23.759  0.00  0.00    +0.018 C 
ATOM     10  C   UNL     1      31.762 -11.196 -21.755  0.00  0.00    +0.176 C 
ATOM     11  C   UNL     1      33.110 -10.609 -23.673  0.00  0.00    +0.041 C 
BRANCH   7  12
ATOM     12  O   UNL     1      31.764  -8.939 -22.586  0.00  0.00    -0.451 OA
BRANCH  12  16
ATOM     13  N   UNL     1      32.334  -4.596 -24.164  0.00  0.00    -0.297 N 
ATOM     14  N   UNL     1      34.328  -5.945 -24.100  0.00  0.00    -0.229 NA
ATOM     15  C   UNL     1      32.094  -6.685 -23.412  0.00  0.00    +0.067 C 
ATOM     16  C   UNL     1      32.580  -7.959 -23.077  0.00  0.00    +0.150 C 
ATOM     17  C   UNL     1      33.009  -5.760 -23.904  0.00  0.00    +0.135 C 
ATOM     18  C   UNL     1      30.830  -6.037 -23.382  0.00  0.00    +0.022 C 
ATOM     19  C   UNL     1      31.008  -4.754 -23.851  0.00  0.00    +0.063 C 
ATOM     20  C   UNL     1      33.940  -8.206 -23.260  0.00  0.00    +0.058 C 
ATOM     21  C   UNL     1      34.741  -7.189 -23.762  0.00  0.00    +0.103 C 
ATOM     22  H   UNL     1      32.738  -3.772 -24.521  0.00  0.00    +0.154 HD
ENDBRANCH  12  16
ENDBRANCH   7  12
ENDBRANCH   2   6
BRANCH   3  25
ATOM     23  O   UNL     1      35.055 -16.941 -20.381  0.00  0.00    -0.269 OA
ATOM     24  N   UNL     1      35.089 -18.611 -22.054  0.00  0.00    -0.233 N 
ATOM     25  C   UNL     1      34.793 -16.204 -22.588  0.00  0.00    +0.108 C 
ATOM     26  C   UNL     1      34.975 -17.285 -21.560  0.00  0.00    +0.261 C 
ATOM     27  C   UNL     1      35.103 -18.840 -23.431  0.00  0.00    +0.072 C 
ATOM     28  C   UNL     1      34.809 -16.503 -23.893  0.00  0.00    +0.010 C 
ATOM     29  C   UNL     1      34.978 -17.857 -24.328  0.00  0.00    +0.017 C 
BRANCH  24  31
ATOM     30  F   UNL     1      35.568 -22.871 -18.483  0.00  0.00    -0.204 F 
ATOM     31  C   UNL     1      35.214 -19.718 -21.126  0.00  0.00    +0.059 C 
ATOM     32  C   UNL     1      34.074 -20.394 -20.690  0.00  0.00    +0.018 C 
ATOM     33  C   UNL     1      36.473 -20.107 -20.669  0.00  0.00    +0.018 C 
ATOM     34  C   UNL     1      34.194 -21.460 -19.797  0.00  0.00    +0.031 C 
ATOM     35  C   UNL     1      36.594 -21.173 -19.777  0.00  0.00    +0.031 C 
ATOM     36  C   UNL     1      35.454 -21.849 -19.341  0.00  0.00    +0.140 C 
ENDBRANCH  24  31
ENDBRANCH   3  25
TORSDOF 5
ENDMDL
