MODEL 1
REMARK VINA RESULT:     -12.5      0.000      0.000
REMARK  Name = 11560856
REMARK  5 active torsions:
REMARK  status: ('A' for Active; 'I' for Inactive)
REMARK    1  A    between atoms: C_2  and  O_24
REMARK    2  A    between atoms: C_3  and  N_10
REMARK    3  A    between atoms: C_12  and  C_16
REMARK    4  A    between atoms: C_16  and  C_18
REMARK    5  A    between atoms: O_24  and  C_28
REMARK                            x       y       z     vdW  Elec       q    Type
REMARK                         _______ _______ _______ _____ _____    ______ ____
ROOT
ATOM      1  F   UNL     1      34.931 -18.622 -24.686  0.00  0.00    -0.201 F 
ATOM      2  C   UNL     1      35.315 -18.105 -22.403  0.00  0.00    +0.173 C 
ATOM      3  C   UNL     1      34.693 -15.456 -22.914  0.00  0.00    +0.054 C 
ATOM      4  C   UNL     1      34.968 -17.727 -23.690  0.00  0.00    +0.176 C 
ATOM      5  C   UNL     1      35.359 -17.188 -21.366  0.00  0.00    +0.041 C 
ATOM      6  C   UNL     1      34.654 -16.393 -23.946  0.00  0.00    +0.047 C 
ATOM      7  C   UNL     1      35.045 -15.854 -21.624  0.00  0.00    +0.018 C 
ENDROOT
BRANCH   3  10
ATOM      8  O   UNL     1      31.556 -11.107 -21.993  0.00  0.00    -0.274 OA
ATOM      9  O   UNL     1      32.523 -13.719 -21.779  0.00  0.00    -0.252 OA
ATOM     10  N   UNL     1      34.377 -14.122 -23.171  0.00  0.00    -0.268 N 
ATOM     11  N   UNL     1      33.364 -12.036 -23.139  0.00  0.00    -0.239 N 
ATOM     12  C   UNL     1      32.478 -11.010 -22.800  0.00  0.00    +0.234 C 
ATOM     13  C   UNL     1      33.343 -13.342 -22.611  0.00  0.00    +0.310 C 
ATOM     14  H   UNL     1      34.949 -13.665 -23.828  0.00  0.00    +0.156 HD
ATOM     15  H   UNL     1      34.061 -11.828 -23.802  0.00  0.00    +0.159 HD
BRANCH  12  16
ATOM     16  C   UNL     1      32.793  -9.736 -23.561  0.00  0.00    +0.112 C 
BRANCH  16  18
ATOM     17  F   UNL     1      30.868  -5.100 -21.032  0.00  0.00    -0.204 F 
ATOM     18  C   UNL     1      32.278  -8.493 -22.884  0.00  0.00    -0.013 C 
ATOM     19  C   UNL     1      31.304  -7.728 -23.510  0.00  0.00    -0.001 C 
ATOM     20  C   UNL     1      32.784  -8.132 -21.643  0.00  0.00    -0.001 C 
ATOM     21  C   UNL     1      30.826  -6.577 -22.882  0.00  0.00    +0.029 C 
ATOM     22  C   UNL     1      32.306  -6.981 -21.016  0.00  0.00    +0.029 C 
ATOM     23  C   UNL     1      31.327  -6.205 -21.634  0.00  0.00    +0.140 C 
ENDBRANCH  16  18
ENDBRANCH  12  16
ENDBRANCH   3  10
BRANCH   2  24
ATOM     24  O   UNL     1      35.626 -19.427 -22.148  0.00  0.00    -0.451 OA
BRANCH  24  28
ATOM     25  N   UNL     1      35.108 -22.258 -18.488  0.00  0.00    -0.297 N 
ATOM     26  N   UNL     1      33.062 -21.528 -19.531  0.00  0.00    -0.229 NA
ATOM     27  C   UNL     1      35.321 -20.899 -20.247  0.00  0.00    +0.067 C 
ATOM     28  C   UNL     1      34.810 -20.113 -21.293  0.00  0.00    +0.150 C 
ATOM     29  C   UNL     1      34.404 -21.557 -19.432  0.00  0.00    +0.135 C 
ATOM     30  C   UNL     1      36.614 -21.228 -19.761  0.00  0.00    +0.022 C 
ATOM     31  C   UNL     1      36.451 -22.065 -18.677  0.00  0.00    +0.063 C 
ATOM     32  C   UNL     1      33.425 -20.048 -21.440  0.00  0.00    +0.058 C 
ATOM     33  C   UNL     1      32.625 -20.758 -20.555  0.00  0.00    +0.103 C 
ATOM     34  H   UNL     1      34.708 -22.814 -17.780  0.00  0.00    +0.154 HD
ENDBRANCH  24  28
ENDBRANCH   2  24
TORSDOF 5
ENDMDL
MODEL 2
REMARK VINA RESULT:     -12.1      2.734     11.481
REMARK  Name = 11560856
REMARK  5 active torsions:
REMARK  status: ('A' for Active; 'I' for Inactive)
REMARK    1  A    between atoms: C_2  and  O_24
REMARK    2  A    between atoms: C_3  and  N_10
REMARK    3  A    between atoms: C_12  and  C_16
REMARK    4  A    between atoms: C_16  and  C_18
REMARK    5  A    between atoms: O_24  and  C_28
REMARK                            x       y       z     vdW  Elec       q    Type
REMARK                         _______ _______ _______ _____ _____    ______ ____
ROOT
ATOM      1  F   UNL     1      33.398 -10.661 -24.242  0.00  0.00    -0.201 F 
ATOM      2  C   UNL     1      31.991 -11.198 -22.410  0.00  0.00    +0.173 C 
ATOM      3  C   UNL     1      33.453 -13.511 -21.985  0.00  0.00    +0.054 C 
ATOM      4  C   UNL     1      33.063 -11.484 -23.240  0.00  0.00    +0.176 C 
ATOM      5  C   UNL     1      31.635 -12.043 -21.372  0.00  0.00    +0.041 C 
ATOM      6  C   UNL     1      33.799 -12.649 -23.025  0.00  0.00    +0.047 C 
ATOM      7  C   UNL     1      32.371 -13.207 -21.158  0.00  0.00    +0.018 C 
ENDROOT
BRANCH   3  10
ATOM      8  O   UNL     1      35.561 -18.157 -23.875  0.00  0.00    -0.274 OA
ATOM      9  O   UNL     1      34.166 -15.737 -23.870  0.00  0.00    -0.252 OA
ATOM     10  N   UNL     1      34.191 -14.675 -21.769  0.00  0.00    -0.268 N 
ATOM     11  N   UNL     1      35.272 -16.705 -22.072  0.00  0.00    -0.239 N 
ATOM     12  C   UNL     1      35.748 -17.860 -22.698  0.00  0.00    +0.234 C 
ATOM     13  C   UNL     1      34.503 -15.699 -22.689  0.00  0.00    +0.310 C 
ATOM     14  H   UNL     1      34.539 -14.799 -20.858  0.00  0.00    +0.156 HD
ATOM     15  H   UNL     1      35.492 -16.584 -21.120  0.00  0.00    +0.159 HD
BRANCH  12  16
ATOM     16  C   UNL     1      36.539 -18.722 -21.732  0.00  0.00    +0.112 C 
BRANCH  16  18
ATOM     17  F   UNL     1      33.405 -22.581 -19.110  0.00  0.00    -0.204 F 
ATOM     18  C   UNL     1      35.699 -19.757 -21.031  0.00  0.00    -0.013 C 
ATOM     19  C   UNL     1      36.314 -20.697 -20.215  0.00  0.00    -0.001 C 
ATOM     20  C   UNL     1      34.324 -19.754 -21.209  0.00  0.00    -0.001 C 
ATOM     21  C   UNL     1      35.536 -21.655 -19.564  0.00  0.00    +0.029 C 
ATOM     22  C   UNL     1      33.545 -20.712 -20.558  0.00  0.00    +0.029 C 
ATOM     23  C   UNL     1      34.151 -21.661 -19.735  0.00  0.00    +0.140 C 
ENDBRANCH  16  18
ENDBRANCH  12  16
ENDBRANCH   3  10
BRANCH   2  24
ATOM     24  O   UNL     1      31.262 -10.044 -22.621  0.00  0.00    -0.451 OA
BRANCH  24  28
ATOM     25  N   UNL     1      32.006  -5.453 -22.837  0.00  0.00    -0.297 N 
ATOM     26  N   UNL     1      32.686  -6.517 -20.786  0.00  0.00    -0.229 NA
ATOM     27  C   UNL     1      31.664  -7.655 -22.702  0.00  0.00    +0.067 C 
ATOM     28  C   UNL     1      31.719  -8.894 -22.042  0.00  0.00    +0.150 C 
ATOM     29  C   UNL     1      32.154  -6.544 -22.022  0.00  0.00    +0.135 C 
ATOM     30  C   UNL     1      31.209  -7.197 -23.966  0.00  0.00    +0.022 C 
ATOM     31  C   UNL     1      31.432  -5.837 -24.021  0.00  0.00    +0.063 C 
ATOM     32  C   UNL     1      32.260  -8.923 -20.758  0.00  0.00    +0.058 C 
ATOM     33  C   UNL     1      32.716  -7.736 -20.198  0.00  0.00    +0.103 C 
ATOM     34  H   UNL     1      32.270  -4.532 -22.607  0.00  0.00    +0.154 HD
ENDBRANCH  24  28
ENDBRANCH   2  24
TORSDOF 5
ENDMDL
MODEL 3
REMARK VINA RESULT:     -12.0      6.144     11.715
REMARK  Name = 11560856
REMARK  5 active torsions:
REMARK  status: ('A' for Active; 'I' for Inactive)
REMARK    1  A    between atoms: C_2  and  O_24
REMARK    2  A    between atoms: C_3  and  N_10
REMARK    3  A    between atoms: C_12  and  C_16
REMARK    4  A    between atoms: C_16  and  C_18
REMARK    5  A    between atoms: O_24  and  C_28
REMARK                            x       y       z     vdW  Elec       q    Type
REMARK                         _______ _______ _______ _____ _____    ______ ____
ROOT
ATOM      1  F   UNL     1      37.179 -21.316 -20.310  0.00  0.00    -0.201 F 
ATOM      2  C   UNL     1      35.068 -20.523 -21.048  0.00  0.00    +0.173 C 
ATOM      3  C   UNL     1      33.841 -21.929 -19.003  0.00  0.00    +0.054 C 
ATOM      4  C   UNL     1      35.846 -21.267 -20.176  0.00  0.00    +0.176 C 
ATOM      5  C   UNL     1      33.691 -20.467 -20.921  0.00  0.00    +0.041 C 
ATOM      6  C   UNL     1      35.228 -21.974 -19.146  0.00  0.00    +0.047 C 
ATOM      7  C   UNL     1      33.073 -21.175 -19.890  0.00  0.00    +0.018 C 
ENDROOT
BRANCH   3  10
ATOM      8  O   UNL     1      34.197 -24.708 -14.339  0.00  0.00    -0.274 OA
ATOM      9  O   UNL     1      35.016 -23.245 -16.573  0.00  0.00    -0.252 OA
ATOM     10  N   UNL     1      33.223 -22.636 -17.971  0.00  0.00    -0.268 N 
ATOM     11  N   UNL     1      32.841 -23.857 -16.036  0.00  0.00    -0.239 N 
ATOM     12  C   UNL     1      33.090 -24.546 -14.846  0.00  0.00    +0.234 C 
ATOM     13  C   UNL     1      33.818 -23.240 -16.843  0.00  0.00    +0.310 C 
ATOM     14  H   UNL     1      32.246 -22.725 -18.038  0.00  0.00    +0.156 HD
ATOM     15  H   UNL     1      31.906 -23.799 -16.337  0.00  0.00    +0.159 HD
BRANCH  12  16
ATOM     16  C   UNL     1      31.806 -25.082 -14.242  0.00  0.00    +0.112 C 
BRANCH  16  18
ATOM     17  F   UNL     1      27.171 -22.866 -16.524  0.00  0.00    -0.204 F 
ATOM     18  C   UNL     1      30.564 -24.487 -14.855  0.00  0.00    -0.013 C 
ATOM     19  C   UNL     1      29.781 -25.262 -15.698  0.00  0.00    -0.001 C 
ATOM     20  C   UNL     1      30.222 -23.175 -14.565  0.00  0.00    -0.001 C 
ATOM     21  C   UNL     1      28.631 -24.712 -16.265  0.00  0.00    +0.029 C 
ATOM     22  C   UNL     1      29.071 -22.625 -15.131  0.00  0.00    +0.029 C 
ATOM     23  C   UNL     1      28.276 -23.393 -15.980  0.00  0.00    +0.140 C 
ENDBRANCH  16  18
ENDBRANCH  12  16
ENDBRANCH   3  10
BRANCH   2  24
ATOM     24  O   UNL     1      35.681 -19.822 -22.069  0.00  0.00    -0.451 OA
BRANCH  24  28
ATOM     25  N   UNL     1      34.268 -16.220 -24.659  0.00  0.00    -0.297 N 
ATOM     26  N   UNL     1      34.799 -15.703 -22.366  0.00  0.00    -0.229 NA
ATOM     27  C   UNL     1      34.950 -17.926 -23.389  0.00  0.00    +0.067 C 
ATOM     28  C   UNL     1      35.391 -18.491 -22.182  0.00  0.00    +0.150 C 
ATOM     29  C   UNL     1      34.681 -16.560 -23.397  0.00  0.00    +0.135 C 
ATOM     30  C   UNL     1      34.683 -18.405 -24.699  0.00  0.00    +0.022 C 
ATOM     31  C   UNL     1      34.265 -17.333 -25.458  0.00  0.00    +0.063 C 
ATOM     32  C   UNL     1      35.530 -17.647 -21.081  0.00  0.00    +0.058 C 
ATOM     33  C   UNL     1      35.228 -16.300 -21.230  0.00  0.00    +0.103 C 
ATOM     34  H   UNL     1      34.012 -15.313 -24.946  0.00  0.00    +0.154 HD
ENDBRANCH  24  28
ENDBRANCH   2  24
TORSDOF 5
ENDMDL
MODEL 4
REMARK VINA RESULT:     -12.0      5.269      8.750
REMARK  Name = 11560856
REMARK  5 active torsions:
REMARK  status: ('A' for Active; 'I' for Inactive)
REMARK    1  A    between atoms: C_2  and  O_24
REMARK    2  A    between atoms: C_3  and  N_10
REMARK    3  A    between atoms: C_12  and  C_16
REMARK    4  A    between atoms: C_16  and  C_18
REMARK    5  A    between atoms: O_24  and  C_28
REMARK                            x       y       z     vdW  Elec       q    Type
REMARK                         _______ _______ _______ _____ _____    ______ ____
ROOT
ATOM      1  F   UNL     1      33.013 -24.139 -16.814  0.00  0.00    -0.201 F 
ATOM      2  C   UNL     1      35.213 -23.614 -16.100  0.00  0.00    +0.173 C 
ATOM      3  C   UNL     1      35.540 -22.013 -18.336  0.00  0.00    +0.054 C 
ATOM      4  C   UNL     1      34.171 -23.493 -17.005  0.00  0.00    +0.176 C 
ATOM      5  C   UNL     1      36.415 -22.953 -16.289  0.00  0.00    +0.041 C 
ATOM      6  C   UNL     1      34.336 -22.686 -18.130  0.00  0.00    +0.047 C 
ATOM      7  C   UNL     1      36.579 -22.146 -17.415  0.00  0.00    +0.018 C 
ENDROOT
BRANCH   3  10
ATOM      8  O   UNL     1      33.433 -19.577 -22.720  0.00  0.00    -0.274 OA
ATOM      9  O   UNL     1      33.547 -21.127 -20.399  0.00  0.00    -0.252 OA
ATOM     10  N   UNL     1      35.704 -21.205 -19.461  0.00  0.00    -0.268 N 
ATOM     11  N   UNL     1      35.309 -19.989 -21.396  0.00  0.00    -0.239 N 
ATOM     12  C   UNL     1      34.628 -19.429 -22.481  0.00  0.00    +0.234 C 
ATOM     13  C   UNL     1      34.734 -20.812 -20.408  0.00  0.00    +0.310 C 
ATOM     14  H   UNL     1      36.614 -20.864 -19.614  0.00  0.00    +0.156 HD
ATOM     15  H   UNL     1      36.270 -19.793 -21.317  0.00  0.00    +0.159 HD
BRANCH  12  16
ATOM     16  C   UNL     1      35.559 -18.599 -23.345  0.00  0.00    +0.112 C 
BRANCH  16  18
ATOM     17  F   UNL     1      33.123 -13.989 -25.444  0.00  0.00    -0.204 F 
ATOM     18  C   UNL     1      34.907 -17.364 -23.908  0.00  0.00    -0.013 C 
ATOM     19  C   UNL     1      34.336 -17.409 -25.172  0.00  0.00    -0.001 C 
ATOM     20  C   UNL     1      34.886 -16.200 -23.154  0.00  0.00    -0.001 C 
ATOM     21  C   UNL     1      33.732 -16.264 -25.693  0.00  0.00    +0.029 C 
ATOM     22  C   UNL     1      34.281 -15.055 -23.675  0.00  0.00    +0.029 C 
ATOM     23  C   UNL     1      33.704 -15.088 -24.944  0.00  0.00    +0.140 C 
ENDBRANCH  16  18
ENDBRANCH  12  16
ENDBRANCH   3  10
BRANCH   2  24
ATOM     24  O   UNL     1      35.050 -24.413 -14.985  0.00  0.00    -0.451 OA
BRANCH  24  28
ATOM     25  N   UNL     1      38.549 -24.594 -11.919  0.00  0.00    -0.297 N 
ATOM     26  N   UNL     1      38.466 -26.406 -13.505  0.00  0.00    -0.229 NA
ATOM     27  C   UNL     1      36.883 -24.536 -13.405  0.00  0.00    +0.067 C 
ATOM     28  C   UNL     1      36.157 -25.045 -14.494  0.00  0.00    +0.150 C 
ATOM     29  C   UNL     1      37.995 -25.259 -12.982  0.00  0.00    +0.135 C 
ATOM     30  C   UNL     1      36.781 -23.403 -12.556  0.00  0.00    +0.022 C 
ATOM     31  C   UNL     1      37.820 -23.465 -11.651  0.00  0.00    +0.063 C 
ATOM     32  C   UNL     1      36.601 -26.233 -15.074  0.00  0.00    +0.058 C 
ATOM     33  C   UNL     1      37.731 -26.849 -14.551  0.00  0.00    +0.103 C 
ATOM     34  H   UNL     1      39.350 -24.884 -11.424  0.00  0.00    +0.154 HD
ENDBRANCH  24  28
ENDBRANCH   2  24
TORSDOF 5
ENDMDL
MODEL 5
REMARK VINA RESULT:     -11.8      4.283      6.027
REMARK  Name = 11560856
REMARK  5 active torsions:
REMARK  status: ('A' for Active; 'I' for Inactive)
REMARK    1  A    between atoms: C_2  and  O_24
REMARK    2  A    between atoms: C_3  and  N_10
REMARK    3  A    between atoms: C_12  and  C_16
REMARK    4  A    between atoms: C_16  and  C_18
REMARK    5  A    between atoms: O_24  and  C_28
REMARK                            x       y       z     vdW  Elec       q    Type
REMARK                         _______ _______ _______ _____ _____    ______ ____
ROOT
ATOM      1  F   UNL     1      36.894 -22.319 -19.184  0.00  0.00    -0.201 F 
ATOM      2  C   UNL     1      34.529 -22.378 -19.357  0.00  0.00    +0.173 C 
ATOM      3  C   UNL     1      34.602 -20.091 -20.915  0.00  0.00    +0.054 C 
ATOM      4  C   UNL     1      35.752 -21.795 -19.647  0.00  0.00    +0.176 C 
ATOM      5  C   UNL     1      33.343 -21.844 -19.829  0.00  0.00    +0.041 C 
ATOM      6  C   UNL     1      35.788 -20.643 -20.432  0.00  0.00    +0.047 C 
ATOM      7  C   UNL     1      33.379 -20.691 -20.614  0.00  0.00    +0.018 C 
ENDROOT
BRANCH   3  10
ATOM      8  O   UNL     1      34.577 -17.752 -25.828  0.00  0.00    -0.274 OA
ATOM      9  O   UNL     1      34.528 -19.773 -23.900  0.00  0.00    -0.252 OA
ATOM     10  N   UNL     1      34.638 -18.939 -21.702  0.00  0.00    -0.268 N 
ATOM     11  N   UNL     1      34.659 -17.488 -23.511  0.00  0.00    -0.239 N 
ATOM     12  C   UNL     1      34.644 -17.034 -24.833  0.00  0.00    +0.234 C 
ATOM     13  C   UNL     1      34.601 -18.837 -23.109  0.00  0.00    +0.310 C 
ATOM     14  H   UNL     1      34.698 -18.088 -21.213  0.00  0.00    +0.156 HD
ATOM     15  H   UNL     1      34.717 -16.808 -22.801  0.00  0.00    +0.159 HD
BRANCH  12  16
ATOM     16  C   UNL     1      34.722 -15.521 -24.896  0.00  0.00    +0.112 C 
BRANCH  16  18
ATOM     17  F   UNL     1      32.497 -12.988 -20.399  0.00  0.00    -0.204 F 
ATOM     18  C   UNL     1      34.127 -14.841 -23.691  0.00  0.00    -0.013 C 
ATOM     19  C   UNL     1      33.055 -13.974 -23.856  0.00  0.00    -0.001 C 
ATOM     20  C   UNL     1      34.656 -15.094 -22.434  0.00  0.00    -0.001 C 
ATOM     21  C   UNL     1      32.504 -13.345 -22.739  0.00  0.00    +0.029 C 
ATOM     22  C   UNL     1      34.105 -14.465 -21.318  0.00  0.00    +0.029 C 
ATOM     23  C   UNL     1      33.028 -13.592 -21.470  0.00  0.00    +0.140 C 
ENDBRANCH  16  18
ENDBRANCH  12  16
ENDBRANCH   3  10
BRANCH   2  24
ATOM     24  O   UNL     1      34.493 -23.520 -18.580  0.00  0.00    -0.451 OA
BRANCH  24  28
ATOM     25  N   UNL     1      35.121 -23.194 -13.978  0.00  0.00    -0.297 N 
ATOM     26  N   UNL     1      32.827 -23.183 -14.715  0.00  0.00    -0.229 NA
ATOM     27  C   UNL     1      34.786 -23.350 -16.180  0.00  0.00    +0.067 C 
ATOM     28  C   UNL     1      33.970 -23.411 -17.322  0.00  0.00    +0.150 C 
ATOM     29  C   UNL     1      34.152 -23.238 -14.946  0.00  0.00    +0.135 C 
ATOM     30  C   UNL     1      36.182 -23.371 -15.926  0.00  0.00    +0.022 C 
ATOM     31  C   UNL     1      36.358 -23.274 -14.562  0.00  0.00    +0.063 C 
ATOM     32  C   UNL     1      32.589 -23.357 -17.139  0.00  0.00    +0.058 C 
ATOM     33  C   UNL     1      32.091 -23.248 -15.848  0.00  0.00    +0.103 C 
ATOM     34  H   UNL     1      34.953 -23.116 -13.011  0.00  0.00    +0.154 HD
ENDBRANCH  24  28
ENDBRANCH   2  24
TORSDOF 5
ENDMDL
MODEL 6
REMARK VINA RESULT:     -11.8      5.374      8.911
REMARK  Name = 11560856
REMARK  5 active torsions:
REMARK  status: ('A' for Active; 'I' for Inactive)
REMARK    1  A    between atoms: C_2  and  O_24
REMARK    2  A    between atoms: C_3  and  N_10
REMARK    3  A    between atoms: C_12  and  C_16
REMARK    4  A    between atoms: C_16  and  C_18
REMARK    5  A    between atoms: O_24  and  C_28
REMARK                            x       y       z     vdW  Elec       q    Type
REMARK                         _______ _______ _______ _____ _____    ______ ____
ROOT
ATOM      1  F   UNL     1      33.358 -24.124 -16.456  0.00  0.00    -0.201 F 
ATOM      2  C   UNL     1      35.564 -23.498 -15.849  0.00  0.00    +0.173 C 
ATOM      3  C   UNL     1      35.772 -22.023 -18.183  0.00  0.00    +0.054 C 
ATOM      4  C   UNL     1      34.490 -23.459 -16.724  0.00  0.00    +0.176 C 
ATOM      5  C   UNL     1      36.739 -22.817 -16.116  0.00  0.00    +0.041 C 
ATOM      6  C   UNL     1      34.595 -22.715 -17.898  0.00  0.00    +0.047 C 
ATOM      7  C   UNL     1      36.844 -22.074 -17.292  0.00  0.00    +0.018 C 
ENDROOT
BRANCH   3  10
ATOM      8  O   UNL     1      33.408 -19.676 -22.484  0.00  0.00    -0.274 OA
ATOM      9  O   UNL     1      33.650 -21.121 -20.106  0.00  0.00    -0.252 OA
ATOM     10  N   UNL     1      35.876 -21.278 -19.358  0.00  0.00    -0.268 N 
ATOM     11  N   UNL     1      35.372 -20.133 -21.311  0.00  0.00    -0.239 N 
ATOM     12  C   UNL     1      34.627 -19.585 -22.359  0.00  0.00    +0.234 C 
ATOM     13  C   UNL     1      34.846 -20.875 -20.235  0.00  0.00    +0.310 C 
ATOM     14  H   UNL     1      36.785 -20.998 -19.609  0.00  0.00    +0.156 HD
ATOM     15  H   UNL     1      36.345 -19.989 -21.327  0.00  0.00    +0.159 HD
BRANCH  12  16
ATOM     16  C   UNL     1      35.517 -18.851 -23.342  0.00  0.00    +0.112 C 
BRANCH  16  18
ATOM     17  F   UNL     1      33.189 -14.164 -25.394  0.00  0.00    -0.204 F 
ATOM     18  C   UNL     1      34.892 -17.595 -23.892  0.00  0.00    -0.013 C 
ATOM     19  C   UNL     1      34.962 -16.420 -23.157  0.00  0.00    -0.001 C 
ATOM     20  C   UNL     1      34.259 -17.632 -25.125  0.00  0.00    -0.001 C 
ATOM     21  C   UNL     1      34.383 -15.257 -23.666  0.00  0.00    +0.029 C 
ATOM     22  C   UNL     1      33.680 -16.469 -25.634  0.00  0.00    +0.029 C 
ATOM     23  C   UNL     1      33.744 -15.282 -24.905  0.00  0.00    +0.140 C 
ENDBRANCH  16  18
ENDBRANCH  12  16
ENDBRANCH   3  10
BRANCH   2  24
ATOM     24  O   UNL     1      35.460 -24.234 -14.685  0.00  0.00    -0.451 OA
BRANCH  24  28
ATOM     25  N   UNL     1      39.578 -26.023 -13.451  0.00  0.00    -0.297 N 
ATOM     26  N   UNL     1      38.772 -24.224 -12.066  0.00  0.00    -0.229 NA
ATOM     27  C   UNL     1      37.605 -25.143 -14.016  0.00  0.00    +0.067 C 
ATOM     28  C   UNL     1      36.539 -24.244 -13.846  0.00  0.00    +0.150 C 
ATOM     29  C   UNL     1      38.656 -25.069 -13.106  0.00  0.00    +0.135 C 
ATOM     30  C   UNL     1      37.923 -26.182 -14.930  0.00  0.00    +0.022 C 
ATOM     31  C   UNL     1      39.144 -26.705 -14.558  0.00  0.00    +0.063 C 
ATOM     32  C   UNL     1      36.609 -23.346 -12.783  0.00  0.00    +0.058 C 
ATOM     33  C   UNL     1      37.719 -23.383 -11.949  0.00  0.00    +0.103 C 
ATOM     34  H   UNL     1      40.424 -26.192 -12.976  0.00  0.00    +0.154 HD
ENDBRANCH  24  28
ENDBRANCH   2  24
TORSDOF 5
ENDMDL
MODEL 7
REMARK VINA RESULT:     -11.7      2.860     11.106
REMARK  Name = 11560856
REMARK  5 active torsions:
REMARK  status: ('A' for Active; 'I' for Inactive)
REMARK    1  A    between atoms: C_2  and  O_24
REMARK    2  A    between atoms: C_3  and  N_10
REMARK    3  A    between atoms: C_12  and  C_16
REMARK    4  A    between atoms: C_16  and  C_18
REMARK    5  A    between atoms: O_24  and  C_28
REMARK                            x       y       z     vdW  Elec       q    Type
REMARK                         _______ _______ _______ _____ _____    ______ ____
ROOT
ATOM      1  F   UNL     1      34.018 -11.682 -24.772  0.00  0.00    -0.201 F 
ATOM      2  C   UNL     1      32.654 -11.813 -22.836  0.00  0.00    +0.173 C 
ATOM      3  C   UNL     1      33.922 -14.168 -22.120  0.00  0.00    +0.054 C 
ATOM      4  C   UNL     1      33.656 -12.317 -23.649  0.00  0.00    +0.176 C 
ATOM      5  C   UNL     1      32.271 -12.461 -21.674  0.00  0.00    +0.041 C 
ATOM      6  C   UNL     1      34.295 -13.502 -23.287  0.00  0.00    +0.047 C 
ATOM      7  C   UNL     1      32.910 -13.647 -21.313  0.00  0.00    +0.018 C 
ENDROOT
BRANCH   3  10
ATOM      8  O   UNL     1      35.991 -19.005 -23.507  0.00  0.00    -0.274 OA
ATOM      9  O   UNL     1      34.740 -16.524 -23.792  0.00  0.00    -0.252 OA
ATOM     10  N   UNL     1      34.563 -15.353 -21.758  0.00  0.00    -0.268 N 
ATOM     11  N   UNL     1      35.560 -17.446 -21.825  0.00  0.00    -0.239 N 
ATOM     12  C   UNL     1      36.046 -18.655 -22.330  0.00  0.00    +0.234 C 
ATOM     13  C   UNL     1      34.930 -16.439 -22.582  0.00  0.00    +0.310 C 
ATOM     14  H   UNL     1      34.788 -15.445 -20.805  0.00  0.00    +0.156 HD
ATOM     15  H   UNL     1      35.666 -17.286 -20.860  0.00  0.00    +0.159 HD
BRANCH  12  16
ATOM     16  C   UNL     1      36.662 -19.502 -21.233  0.00  0.00    +0.112 C 
BRANCH  16  18
ATOM     17  F   UNL     1      32.956 -22.848 -18.652  0.00  0.00    -0.204 F 
ATOM     18  C   UNL     1      35.669 -20.400 -20.543  0.00  0.00    -0.013 C 
ATOM     19  C   UNL     1      36.122 -21.350 -19.638  0.00  0.00    -0.001 C 
ATOM     20  C   UNL     1      34.317 -20.261 -20.820  0.00  0.00    -0.001 C 
ATOM     21  C   UNL     1      35.202 -22.181 -18.998  0.00  0.00    +0.029 C 
ATOM     22  C   UNL     1      33.397 -21.092 -20.179  0.00  0.00    +0.029 C 
ATOM     23  C   UNL     1      33.839 -22.051 -19.268  0.00  0.00    +0.140 C 
ENDBRANCH  16  18
ENDBRANCH  12  16
ENDBRANCH   3  10
BRANCH   2  24
ATOM     24  O   UNL     1      32.021 -10.638 -23.193  0.00  0.00    -0.451 OA
BRANCH  24  28
ATOM     25  N   UNL     1      32.859  -7.336 -20.019  0.00  0.00    -0.297 N 
ATOM     26  N   UNL     1      33.914  -7.007 -22.161  0.00  0.00    -0.229 NA
ATOM     27  C   UNL     1      32.477  -8.902 -21.564  0.00  0.00    +0.067 C 
ATOM     28  C   UNL     1      32.627  -9.464 -22.843  0.00  0.00    +0.150 C 
ATOM     29  C   UNL     1      33.137  -7.703 -21.310  0.00  0.00    +0.135 C 
ATOM     30  C   UNL     1      31.784  -9.251 -20.375  0.00  0.00    +0.022 C 
ATOM     31  C   UNL     1      32.039  -8.269 -19.441  0.00  0.00    +0.063 C 
ATOM     32  C   UNL     1      33.422  -8.783 -23.763  0.00  0.00    +0.058 C 
ATOM     33  C   UNL     1      34.022  -7.592 -23.375  0.00  0.00    +0.103 C 
ATOM     34  H   UNL     1      33.199  -6.524 -19.575  0.00  0.00    +0.154 HD
ENDBRANCH  24  28
ENDBRANCH   2  24
TORSDOF 5
ENDMDL
MODEL 8
REMARK VINA RESULT:     -11.7      2.891     11.708
REMARK  Name = 11560856
REMARK  5 active torsions:
REMARK  status: ('A' for Active; 'I' for Inactive)
REMARK    1  A    between atoms: C_2  and  O_24
REMARK    2  A    between atoms: C_3  and  N_10
REMARK    3  A    between atoms: C_12  and  C_16
REMARK    4  A    between atoms: C_16  and  C_18
REMARK    5  A    between atoms: O_24  and  C_28
REMARK                            x       y       z     vdW  Elec       q    Type
REMARK                         _______ _______ _______ _____ _____    ______ ____
ROOT
ATOM      1  F   UNL     1      34.847  -9.662 -25.074  0.00  0.00    -0.201 F 
ATOM      2  C   UNL     1      32.982 -10.073 -23.668  0.00  0.00    +0.173 C 
ATOM      3  C   UNL     1      33.764 -12.718 -23.429  0.00  0.00    +0.054 C 
ATOM      4  C   UNL     1      34.122 -10.504 -24.326  0.00  0.00    +0.176 C 
ATOM      5  C   UNL     1      32.224 -10.935 -22.893  0.00  0.00    +0.041 C 
ATOM      6  C   UNL     1      34.516 -11.836 -24.205  0.00  0.00    +0.047 C 
ATOM      7  C   UNL     1      32.618 -12.267 -22.773  0.00  0.00    +0.018 C 
ENDROOT
BRANCH   3  10
ATOM      8  O   UNL     1      35.370 -16.877 -20.311  0.00  0.00    -0.274 OA
ATOM      9  O   UNL     1      34.543 -14.299 -20.998  0.00  0.00    -0.252 OA
ATOM     10  N   UNL     1      34.159 -14.051 -23.307  0.00  0.00    -0.268 N 
ATOM     11  N   UNL     1      34.855 -16.088 -22.445  0.00  0.00    -0.239 N 
ATOM     12  C   UNL     1      35.256 -17.057 -21.521  0.00  0.00    +0.234 C 
ATOM     13  C   UNL     1      34.518 -14.755 -22.138  0.00  0.00    +0.310 C 
ATOM     14  H   UNL     1      34.192 -14.566 -24.144  0.00  0.00    +0.156 HD
ATOM     15  H   UNL     1      34.804 -16.360 -23.390  0.00  0.00    +0.159 HD
BRANCH  12  16
ATOM     16  C   UNL     1      35.541 -18.382 -22.201  0.00  0.00    +0.112 C 
BRANCH  16  18
ATOM     17  F   UNL     1      34.931 -22.814 -18.799  0.00  0.00    -0.204 F 
ATOM     18  C   UNL     1      35.378 -19.569 -21.288  0.00  0.00    -0.013 C 
ATOM     19  C   UNL     1      34.106 -20.058 -21.025  0.00  0.00    -0.001 C 
ATOM     20  C   UNL     1      36.501 -20.157 -20.726  0.00  0.00    -0.001 C 
ATOM     21  C   UNL     1      33.955 -21.158 -20.180  0.00  0.00    +0.029 C 
ATOM     22  C   UNL     1      36.350 -21.257 -19.881  0.00  0.00    +0.029 C 
ATOM     23  C   UNL     1      35.077 -21.758 -19.609  0.00  0.00    +0.140 C 
ENDBRANCH  16  18
ENDBRANCH  12  16
ENDBRANCH   3  10
BRANCH   2  24
ATOM     24  O   UNL     1      32.592  -8.753 -23.787  0.00  0.00    -0.451 OA
BRANCH  24  28
ATOM     25  N   UNL     1      31.191  -4.893 -21.593  0.00  0.00    -0.297 N 
ATOM     26  N   UNL     1      32.301  -6.525 -20.212  0.00  0.00    -0.229 NA
ATOM     27  C   UNL     1      31.876  -6.756 -22.615  0.00  0.00    +0.067 C 
ATOM     28  C   UNL     1      32.490  -8.019 -22.638  0.00  0.00    +0.150 C 
ATOM     29  C   UNL     1      31.823  -6.092 -21.393  0.00  0.00    +0.135 C 
ATOM     30  C   UNL     1      31.249  -5.913 -23.570  0.00  0.00    +0.022 C 
ATOM     31  C   UNL     1      30.837  -4.773 -22.911  0.00  0.00    +0.063 C 
ATOM     32  C   UNL     1      33.002  -8.516 -21.441  0.00  0.00    +0.058 C 
ATOM     33  C   UNL     1      32.882  -7.744 -20.292  0.00  0.00    +0.103 C 
ATOM     34  H   UNL     1      31.016  -4.220 -20.895  0.00  0.00    +0.154 HD
ENDBRANCH  24  28
ENDBRANCH   2  24
TORSDOF 5
ENDMDL
MODEL 9
REMARK VINA RESULT:     -11.7      5.191     11.442
REMARK  Name = 11560856
REMARK  5 active torsions:
REMARK  status: ('A' for Active; 'I' for Inactive)
REMARK    1  A    between atoms: C_2  and  O_24
REMARK    2  A    between atoms: C_3  and  N_10
REMARK    3  A    between atoms: C_12  and  C_16
REMARK    4  A    between atoms: C_16  and  C_18
REMARK    5  A    between atoms: O_24  and  C_28
REMARK                            x       y       z     vdW  Elec       q    Type
REMARK                         _______ _______ _______ _____ _____    ______ ____
ROOT
ATOM      1  F   UNL     1      37.931 -18.802 -21.640  0.00  0.00    -0.201 F 
ATOM      2  C   UNL     1      35.642 -18.972 -22.240  0.00  0.00    +0.173 C 
ATOM      3  C   UNL     1      35.253 -20.782 -20.181  0.00  0.00    +0.054 C 
ATOM      4  C   UNL     1      36.714 -19.323 -21.435  0.00  0.00    +0.176 C 
ATOM      5  C   UNL     1      34.381 -19.505 -22.038  0.00  0.00    +0.041 C 
ATOM      6  C   UNL     1      36.516 -20.234 -20.398  0.00  0.00    +0.047 C 
ATOM      7  C   UNL     1      34.184 -20.417 -21.001  0.00  0.00    +0.018 C 
ENDROOT
BRANCH   3  10
ATOM      8  O   UNL     1      36.956 -23.063 -15.545  0.00  0.00    -0.274 OA
ATOM      9  O   UNL     1      36.955 -21.393 -17.784  0.00  0.00    -0.252 OA
ATOM     10  N   UNL     1      35.056 -21.692 -19.142  0.00  0.00    -0.268 N 
ATOM     11  N   UNL     1      35.326 -22.946 -17.210  0.00  0.00    -0.239 N 
ATOM     12  C   UNL     1      35.891 -23.437 -16.029  0.00  0.00    +0.234 C 
ATOM     13  C   UNL     1      35.887 -21.947 -18.030  0.00  0.00    +0.310 C 
ATOM     14  H   UNL     1      34.231 -22.226 -19.190  0.00  0.00    +0.156 HD
ATOM     15  H   UNL     1      34.465 -23.330 -17.491  0.00  0.00    +0.159 HD
BRANCH  12  16
ATOM     16  C   UNL     1      35.017 -24.507 -15.404  0.00  0.00    +0.112 C 
BRANCH  16  18
ATOM     17  F   UNL     1      29.753 -22.796 -14.423  0.00  0.00    -0.204 F 
ATOM     18  C   UNL     1      33.606 -24.047 -15.141  0.00  0.00    -0.013 C 
ATOM     19  C   UNL     1      32.766 -23.776 -16.212  0.00  0.00    -0.001 C 
ATOM     20  C   UNL     1      33.169 -23.903 -13.833  0.00  0.00    -0.001 C 
ATOM     21  C   UNL     1      31.459 -23.351 -15.968  0.00  0.00    +0.029 C 
ATOM     22  C   UNL     1      31.862 -23.478 -13.589  0.00  0.00    +0.029 C 
ATOM     23  C   UNL     1      31.008 -23.203 -14.656  0.00  0.00    +0.140 C 
ENDBRANCH  16  18
ENDBRANCH  12  16
ENDBRANCH   3  10
BRANCH   2  24
ATOM     24  O   UNL     1      35.836 -18.068 -23.266  0.00  0.00    -0.451 OA
BRANCH  24  28
ATOM     25  N   UNL     1      33.148 -14.801 -25.209  0.00  0.00    -0.297 N 
ATOM     26  N   UNL     1      33.860 -14.350 -22.952  0.00  0.00    -0.229 NA
ATOM     27  C   UNL     1      34.440 -16.348 -24.248  0.00  0.00    +0.067 C 
ATOM     28  C   UNL     1      35.191 -16.867 -23.181  0.00  0.00    +0.150 C 
ATOM     29  C   UNL     1      33.821 -15.116 -24.057  0.00  0.00    +0.135 C 
ATOM     30  C   UNL     1      34.117 -16.772 -25.564  0.00  0.00    +0.022 C 
ATOM     31  C   UNL     1      33.320 -15.799 -26.131  0.00  0.00    +0.063 C 
ATOM     32  C   UNL     1      35.264 -16.113 -22.011  0.00  0.00    +0.058 C 
ATOM     33  C   UNL     1      34.597 -14.896 -21.957  0.00  0.00    +0.103 C 
ATOM     34  H   UNL     1      32.621 -13.981 -25.351  0.00  0.00    +0.154 HD
ENDBRANCH  24  28
ENDBRANCH   2  24
TORSDOF 5
ENDMDL
