MODEL 1
REMARK VINA RESULT:     -11.9      0.000      0.000
REMARK  Name = 448841
REMARK  3 active torsions:
REMARK  status: ('A' for Active; 'I' for Inactive)
REMARK    1  A    between atoms: C_1  and  C_17
REMARK    2  A    between atoms: C_9  and  C_13
REMARK    3  A    between atoms: C_18  and  C_20
REMARK                            x       y       z     vdW  Elec       q    Type
REMARK                         _______ _______ _______ _____ _____    ______ ____
ROOT
ATOM      1  C   UNL     1      35.371 -21.327 -19.853  0.00  0.00    -0.022 C 
ATOM      2  C   UNL     1      36.272 -21.621 -18.830  0.00  0.00    -0.004 C 
ATOM      3  C   UNL     1      34.052 -21.763 -19.768  0.00  0.00    -0.004 C 
ATOM      4  C   UNL     1      35.864 -22.355 -17.704  0.00  0.00    -0.000 C 
ATOM      5  C   UNL     1      33.629 -22.495 -18.656  0.00  0.00    -0.000 C 
ATOM      6  C   UNL     1      34.522 -22.799 -17.616  0.00  0.00    +0.000 C 
ATOM      7  C   UNL     1      36.757 -22.661 -16.665  0.00  0.00    +0.000 C 
ATOM      8  C   UNL     1      34.114 -23.534 -16.492  0.00  0.00    +0.003 C 
ATOM      9  C   UNL     1      35.015 -23.827 -15.467  0.00  0.00    +0.031 C 
ATOM     10  C   UNL     1      36.333 -23.391 -15.554  0.00  0.00    +0.003 C 
ENDROOT
BRANCH   9  13
ATOM     11  N   UNL     1      33.240 -24.953 -14.144  0.00  0.00    -0.343 N 
ATOM     12  N   UNL     1      35.451 -24.945 -13.385  0.00  0.00    -0.285 NA
ATOM     13  C   UNL     1      34.576 -24.588 -14.309  0.00  0.00    +0.117 C 
ATOM     14  H   UNL     1      32.965 -25.468 -13.352  0.00  0.00    +0.144 HD
ATOM     15  H   UNL     1      32.573 -24.694 -14.820  0.00  0.00    +0.144 HD
ATOM     16  H   UNL     1      35.155 -25.461 -12.600  0.00  0.00    +0.188 HD
ENDBRANCH   9  13
BRANCH   1  17
ATOM     17  C   UNL     1      35.821 -20.547 -21.040  0.00  0.00    +0.027 C 
ATOM     18  C   UNL     1      35.459 -19.098 -21.144  0.00  0.00    +0.027 C 
ATOM     19  C   UNL     1      36.879 -19.501 -20.869  0.00  0.00    +0.009 C 
BRANCH  18  20
ATOM     20  C   UNL     1      35.108 -18.531 -22.470  0.00  0.00    -0.022 C 
ATOM     21  C   UNL     1      35.347 -17.181 -22.743  0.00  0.00    -0.004 C 
ATOM     22  C   UNL     1      34.536 -19.342 -23.454  0.00  0.00    -0.004 C 
ATOM     23  C   UNL     1      35.015 -16.646 -23.988  0.00  0.00    -0.000 C 
ATOM     24  C   UNL     1      34.204 -18.808 -24.699  0.00  0.00    -0.000 C 
ATOM     25  C   UNL     1      34.443 -17.460 -24.965  0.00  0.00    -0.000 C 
ENDBRANCH  18  20
ENDBRANCH   1  17
TORSDOF 3
ENDMDL
MODEL 2
REMARK VINA RESULT:     -11.3      0.885      1.919
REMARK  Name = 448841
REMARK  3 active torsions:
REMARK  status: ('A' for Active; 'I' for Inactive)
REMARK    1  A    between atoms: C_1  and  C_17
REMARK    2  A    between atoms: C_9  and  C_13
REMARK    3  A    between atoms: C_18  and  C_20
REMARK                            x       y       z     vdW  Elec       q    Type
REMARK                         _______ _______ _______ _____ _____    ______ ____
ROOT
ATOM      1  C   UNL     1      35.820 -21.024 -20.109  0.00  0.00    -0.022 C 
ATOM      2  C   UNL     1      34.520 -21.438 -19.823  0.00  0.00    -0.004 C 
ATOM      3  C   UNL     1      36.856 -21.317 -19.226  0.00  0.00    -0.004 C 
ATOM      4  C   UNL     1      34.237 -22.152 -18.647  0.00  0.00    -0.000 C 
ATOM      5  C   UNL     1      36.592 -22.026 -18.052  0.00  0.00    -0.000 C 
ATOM      6  C   UNL     1      35.289 -22.451 -17.748  0.00  0.00    +0.000 C 
ATOM      7  C   UNL     1      32.934 -22.576 -18.343  0.00  0.00    +0.000 C 
ATOM      8  C   UNL     1      35.007 -23.164 -16.573  0.00  0.00    +0.003 C 
ATOM      9  C   UNL     1      33.706 -23.579 -16.286  0.00  0.00    +0.031 C 
ATOM     10  C   UNL     1      32.671 -23.285 -17.170  0.00  0.00    +0.003 C 
ENDROOT
BRANCH   9  13
ATOM     11  N   UNL     1      34.443 -24.978 -14.372  0.00  0.00    -0.343 N 
ATOM     12  N   UNL     1      32.196 -24.375 -14.594  0.00  0.00    -0.285 NA
ATOM     13  C   UNL     1      33.430 -24.317 -15.065  0.00  0.00    +0.117 C 
ATOM     14  H   UNL     1      34.234 -25.473 -13.547  0.00  0.00    +0.144 HD
ATOM     15  H   UNL     1      35.368 -24.950 -14.709  0.00  0.00    +0.144 HD
ATOM     16  H   UNL     1      32.008 -24.875 -13.767  0.00  0.00    +0.188 HD
ENDBRANCH   9  13
BRANCH   1  17
ATOM     17  C   UNL     1      36.103 -20.267 -21.361  0.00  0.00    +0.027 C 
ATOM     18  C   UNL     1      35.584 -18.870 -21.504  0.00  0.00    +0.027 C 
ATOM     19  C   UNL     1      37.054 -19.111 -21.316  0.00  0.00    +0.009 C 
BRANCH  18  20
ATOM     20  C   UNL     1      35.085 -18.413 -22.825  0.00  0.00    -0.022 C 
ATOM     21  C   UNL     1      35.188 -17.067 -23.189  0.00  0.00    -0.004 C 
ATOM     22  C   UNL     1      34.506 -19.324 -23.713  0.00  0.00    -0.004 C 
ATOM     23  C   UNL     1      34.717 -16.636 -24.429  0.00  0.00    -0.000 C 
ATOM     24  C   UNL     1      34.034 -18.894 -24.953  0.00  0.00    -0.000 C 
ATOM     25  C   UNL     1      34.140 -17.550 -25.311  0.00  0.00    -0.000 C 
ENDBRANCH  18  20
ENDBRANCH   1  17
TORSDOF 3
ENDMDL
MODEL 3
REMARK VINA RESULT:     -11.3      0.923      2.195
REMARK  Name = 448841
REMARK  3 active torsions:
REMARK  status: ('A' for Active; 'I' for Inactive)
REMARK    1  A    between atoms: C_1  and  C_17
REMARK    2  A    between atoms: C_9  and  C_13
REMARK    3  A    between atoms: C_18  and  C_20
REMARK                            x       y       z     vdW  Elec       q    Type
REMARK                         _______ _______ _______ _____ _____    ______ ____
ROOT
ATOM      1  C   UNL     1      35.798 -20.997 -20.161  0.00  0.00    -0.022 C 
ATOM      2  C   UNL     1      34.497 -21.404 -19.869  0.00  0.00    -0.004 C 
ATOM      3  C   UNL     1      36.838 -21.302 -19.287  0.00  0.00    -0.004 C 
ATOM      4  C   UNL     1      34.217 -22.123 -18.695  0.00  0.00    -0.000 C 
ATOM      5  C   UNL     1      36.577 -22.015 -18.115  0.00  0.00    -0.000 C 
ATOM      6  C   UNL     1      35.273 -22.433 -17.804  0.00  0.00    +0.000 C 
ATOM      7  C   UNL     1      32.913 -22.540 -18.383  0.00  0.00    +0.000 C 
ATOM      8  C   UNL     1      34.995 -23.151 -16.631  0.00  0.00    +0.003 C 
ATOM      9  C   UNL     1      33.692 -23.558 -16.338  0.00  0.00    +0.031 C 
ATOM     10  C   UNL     1      32.654 -23.253 -17.213  0.00  0.00    +0.003 C 
ENDROOT
BRANCH   9  13
ATOM     11  N   UNL     1      34.433 -24.975 -14.438  0.00  0.00    -0.343 N 
ATOM     12  N   UNL     1      32.190 -24.351 -14.638  0.00  0.00    -0.285 NA
ATOM     13  C   UNL     1      33.420 -24.302 -15.119  0.00  0.00    +0.117 C 
ATOM     14  H   UNL     1      34.226 -25.473 -13.614  0.00  0.00    +0.144 HD
ATOM     15  H   UNL     1      35.355 -24.953 -14.781  0.00  0.00    +0.144 HD
ATOM     16  H   UNL     1      32.004 -24.854 -13.812  0.00  0.00    +0.188 HD
ENDBRANCH   9  13
BRANCH   1  17
ATOM     17  C   UNL     1      36.077 -20.236 -21.411  0.00  0.00    +0.027 C 
ATOM     18  C   UNL     1      35.527 -18.852 -21.563  0.00  0.00    +0.027 C 
ATOM     19  C   UNL     1      36.999 -19.057 -21.357  0.00  0.00    +0.009 C 
BRANCH  18  20
ATOM     20  C   UNL     1      35.032 -18.409 -22.890  0.00  0.00    -0.022 C 
ATOM     21  C   UNL     1      34.453 -19.330 -23.769  0.00  0.00    -0.004 C 
ATOM     22  C   UNL     1      35.143 -17.069 -23.272  0.00  0.00    -0.004 C 
ATOM     23  C   UNL     1      33.990 -18.915 -25.018  0.00  0.00    -0.000 C 
ATOM     24  C   UNL     1      34.681 -16.653 -24.520  0.00  0.00    -0.000 C 
ATOM     25  C   UNL     1      34.105 -17.576 -25.393  0.00  0.00    -0.000 C 
ENDBRANCH  18  20
ENDBRANCH   1  17
TORSDOF 3
ENDMDL
MODEL 4
REMARK VINA RESULT:     -11.0      3.735      8.670
REMARK  Name = 448841
REMARK  3 active torsions:
REMARK  status: ('A' for Active; 'I' for Inactive)
REMARK    1  A    between atoms: C_1  and  C_17
REMARK    2  A    between atoms: C_9  and  C_13
REMARK    3  A    between atoms: C_18  and  C_20
REMARK                            x       y       z     vdW  Elec       q    Type
REMARK                         _______ _______ _______ _____ _____    ______ ____
ROOT
ATOM      1  C   UNL     1      34.180 -22.902 -17.725  0.00  0.00    -0.022 C 
ATOM      2  C   UNL     1      35.371 -22.411 -18.260  0.00  0.00    -0.004 C 
ATOM      3  C   UNL     1      32.959 -22.519 -18.274  0.00  0.00    -0.004 C 
ATOM      4  C   UNL     1      35.357 -21.529 -19.353  0.00  0.00    -0.000 C 
ATOM      5  C   UNL     1      32.927 -21.644 -19.361  0.00  0.00    -0.000 C 
ATOM      6  C   UNL     1      34.116 -21.140 -19.912  0.00  0.00    +0.000 C 
ATOM      7  C   UNL     1      36.546 -21.025 -19.904  0.00  0.00    +0.000 C 
ATOM      8  C   UNL     1      34.100 -20.258 -21.004  0.00  0.00    +0.003 C 
ATOM      9  C   UNL     1      35.292 -19.767 -21.540  0.00  0.00    +0.031 C 
ATOM     10  C   UNL     1      36.512 -20.150 -20.990  0.00  0.00    +0.003 C 
ENDROOT
BRANCH   9  13
ATOM     11  N   UNL     1      34.345 -19.022 -23.711  0.00  0.00    -0.343 N 
ATOM     12  N   UNL     1      36.111 -17.847 -22.730  0.00  0.00    -0.285 NA
ATOM     13  C   UNL     1      35.259 -18.855 -22.671  0.00  0.00    +0.117 C 
ATOM     14  H   UNL     1      34.341 -18.392 -24.468  0.00  0.00    +0.144 HD
ATOM     15  H   UNL     1      33.704 -19.768 -23.688  0.00  0.00    +0.144 HD
ATOM     16  H   UNL     1      36.090 -17.228 -23.496  0.00  0.00    +0.188 HD
ENDBRANCH   9  13
BRANCH   1  17
ATOM     17  C   UNL     1      34.214 -23.836 -16.566  0.00  0.00    +0.027 C 
ATOM     18  C   UNL     1      34.767 -23.361 -15.258  0.00  0.00    +0.027 C 
ATOM     19  C   UNL     1      33.293 -23.599 -15.409  0.00  0.00    +0.009 C 
BRANCH  18  20
ATOM     20  C   UNL     1      35.573 -24.291 -14.429  0.00  0.00    -0.022 C 
ATOM     21  C   UNL     1      36.281 -25.336 -15.030  0.00  0.00    -0.004 C 
ATOM     22  C   UNL     1      35.629 -24.130 -13.042  0.00  0.00    -0.004 C 
ATOM     23  C   UNL     1      37.036 -26.213 -14.251  0.00  0.00    -0.000 C 
ATOM     24  C   UNL     1      36.384 -25.006 -12.262  0.00  0.00    -0.000 C 
ATOM     25  C   UNL     1      37.088 -26.047 -12.867  0.00  0.00    -0.000 C 
ENDBRANCH  18  20
ENDBRANCH   1  17
TORSDOF 3
ENDMDL
MODEL 5
REMARK VINA RESULT:     -10.9      1.443      2.935
REMARK  Name = 448841
REMARK  3 active torsions:
REMARK  status: ('A' for Active; 'I' for Inactive)
REMARK    1  A    between atoms: C_1  and  C_17
REMARK    2  A    between atoms: C_9  and  C_13
REMARK    3  A    between atoms: C_18  and  C_20
REMARK                            x       y       z     vdW  Elec       q    Type
REMARK                         _______ _______ _______ _____ _____    ______ ____
ROOT
ATOM      1  C   UNL     1      34.779 -19.961 -21.648  0.00  0.00    -0.022 C 
ATOM      2  C   UNL     1      33.849 -20.663 -20.881  0.00  0.00    -0.004 C 
ATOM      3  C   UNL     1      36.125 -19.972 -21.292  0.00  0.00    -0.004 C 
ATOM      4  C   UNL     1      34.253 -21.386 -19.747  0.00  0.00    -0.000 C 
ATOM      5  C   UNL     1      36.544 -20.685 -20.168  0.00  0.00    -0.000 C 
ATOM      6  C   UNL     1      35.622 -21.397 -19.385  0.00  0.00    +0.000 C 
ATOM      7  C   UNL     1      33.330 -22.097 -18.963  0.00  0.00    +0.000 C 
ATOM      8  C   UNL     1      36.027 -22.119 -18.252  0.00  0.00    +0.003 C 
ATOM      9  C   UNL     1      35.096 -22.822 -17.484  0.00  0.00    +0.031 C 
ATOM     10  C   UNL     1      33.751 -22.810 -17.840  0.00  0.00    +0.003 C 
ENDROOT
BRANCH   9  13
ATOM     11  N   UNL     1      34.619 -24.229 -15.495  0.00  0.00    -0.343 N 
ATOM     12  N   UNL     1      36.816 -23.617 -16.006  0.00  0.00    -0.285 NA
ATOM     13  C   UNL     1      35.531 -23.565 -16.314  0.00  0.00    +0.117 C 
ATOM     14  H   UNL     1      34.936 -24.726 -14.707  0.00  0.00    +0.144 HD
ATOM     15  H   UNL     1      33.658 -24.199 -15.705  0.00  0.00    +0.144 HD
ATOM     16  H   UNL     1      37.112 -24.121 -15.214  0.00  0.00    +0.188 HD
ENDBRANCH   9  13
BRANCH   1  17
ATOM     17  C   UNL     1      34.333 -19.199 -22.847  0.00  0.00    +0.027 C 
ATOM     18  C   UNL     1      35.232 -18.152 -23.426  0.00  0.00    +0.027 C 
ATOM     19  C   UNL     1      35.009 -19.442 -24.161  0.00  0.00    +0.009 C 
BRANCH  18  20
ATOM     20  C   UNL     1      34.641 -16.900 -23.959  0.00  0.00    -0.022 C 
ATOM     21  C   UNL     1      34.635 -15.738 -23.182  0.00  0.00    -0.004 C 
ATOM     22  C   UNL     1      34.084 -16.874 -25.241  0.00  0.00    -0.004 C 
ATOM     23  C   UNL     1      34.076 -14.561 -23.681  0.00  0.00    -0.000 C 
ATOM     24  C   UNL     1      33.525 -15.698 -25.741  0.00  0.00    -0.000 C 
ATOM     25  C   UNL     1      33.522 -14.542 -24.961  0.00  0.00    -0.000 C 
ENDBRANCH  18  20
ENDBRANCH   1  17
TORSDOF 3
ENDMDL
MODEL 6
REMARK VINA RESULT:     -10.7      1.822      2.858
REMARK  Name = 448841
REMARK  3 active torsions:
REMARK  status: ('A' for Active; 'I' for Inactive)
REMARK    1  A    between atoms: C_1  and  C_17
REMARK    2  A    between atoms: C_9  and  C_13
REMARK    3  A    between atoms: C_18  and  C_20
REMARK                            x       y       z     vdW  Elec       q    Type
REMARK                         _______ _______ _______ _____ _____    ______ ____
ROOT
ATOM      1  C   UNL     1      34.570 -22.203 -18.826  0.00  0.00    -0.022 C 
ATOM      2  C   UNL     1      33.187 -22.299 -18.667  0.00  0.00    -0.004 C 
ATOM      3  C   UNL     1      35.419 -22.627 -17.807  0.00  0.00    -0.004 C 
ATOM      4  C   UNL     1      32.635 -22.821 -17.486  0.00  0.00    -0.000 C 
ATOM      5  C   UNL     1      34.888 -23.148 -16.626  0.00  0.00    -0.000 C 
ATOM      6  C   UNL     1      33.499 -23.252 -16.449  0.00  0.00    +0.000 C 
ATOM      7  C   UNL     1      31.246 -22.924 -17.308  0.00  0.00    +0.000 C 
ATOM      8  C   UNL     1      32.948 -23.774 -15.269  0.00  0.00    +0.003 C 
ATOM      9  C   UNL     1      31.565 -23.870 -15.109  0.00  0.00    +0.031 C 
ATOM     10  C   UNL     1      30.716 -23.446 -16.128  0.00  0.00    +0.003 C 
ENDROOT
BRANCH   9  13
ATOM     11  N   UNL     1      30.125 -25.490 -13.898  0.00  0.00    -0.343 N 
ATOM     12  N   UNL     1      31.340 -23.881 -12.717  0.00  0.00    -0.285 NA
ATOM     13  C   UNL     1      31.010 -24.413 -13.881  0.00  0.00    +0.117 C 
ATOM     14  H   UNL     1      29.761 -25.842 -13.054  0.00  0.00    +0.144 HD
ATOM     15  H   UNL     1      29.864 -25.898 -14.755  0.00  0.00    +0.144 HD
ATOM     16  H   UNL     1      30.965 -24.248 -11.884  0.00  0.00    +0.188 HD
ENDBRANCH   9  13
BRANCH   1  17
ATOM     17  C   UNL     1      35.138 -21.647 -20.085  0.00  0.00    +0.027 C 
ATOM     18  C   UNL     1      35.608 -20.226 -20.111  0.00  0.00    +0.027 C 
ATOM     19  C   UNL     1      36.604 -21.348 -20.155  0.00  0.00    +0.009 C 
BRANCH  18  20
ATOM     20  C   UNL     1      35.379 -19.407 -21.327  0.00  0.00    -0.022 C 
ATOM     21  C   UNL     1      35.856 -18.094 -21.392  0.00  0.00    -0.004 C 
ATOM     22  C   UNL     1      34.684 -19.942 -22.416  0.00  0.00    -0.004 C 
ATOM     23  C   UNL     1      35.639 -17.324 -22.535  0.00  0.00    -0.000 C 
ATOM     24  C   UNL     1      34.467 -19.172 -23.558  0.00  0.00    -0.000 C 
ATOM     25  C   UNL     1      34.945 -17.863 -23.617  0.00  0.00    -0.000 C 
ENDBRANCH  18  20
ENDBRANCH   1  17
TORSDOF 3
ENDMDL
MODEL 7
REMARK VINA RESULT:     -10.6      1.280      2.080
REMARK  Name = 448841
REMARK  3 active torsions:
REMARK  status: ('A' for Active; 'I' for Inactive)
REMARK    1  A    between atoms: C_1  and  C_17
REMARK    2  A    between atoms: C_9  and  C_13
REMARK    3  A    between atoms: C_18  and  C_20
REMARK                            x       y       z     vdW  Elec       q    Type
REMARK                         _______ _______ _______ _____ _____    ______ ____
ROOT
ATOM      1  C   UNL     1      34.709 -20.100 -21.358  0.00  0.00    -0.022 C 
ATOM      2  C   UNL     1      35.722 -20.559 -20.517  0.00  0.00    -0.004 C 
ATOM      3  C   UNL     1      33.385 -20.458 -21.114  0.00  0.00    -0.004 C 
ATOM      4  C   UNL     1      35.426 -21.383 -19.419  0.00  0.00    -0.000 C 
ATOM      5  C   UNL     1      33.073 -21.277 -20.027  0.00  0.00    -0.000 C 
ATOM      6  C   UNL     1      34.080 -21.748 -19.170  0.00  0.00    +0.000 C 
ATOM      7  C   UNL     1      36.434 -21.855 -18.563  0.00  0.00    +0.000 C 
ATOM      8  C   UNL     1      33.783 -22.571 -18.074  0.00  0.00    +0.003 C 
ATOM      9  C   UNL     1      34.798 -23.030 -17.232  0.00  0.00    +0.031 C 
ATOM     10  C   UNL     1      36.120 -22.672 -17.477  0.00  0.00    +0.003 C 
ENDROOT
BRANCH   9  13
ATOM     11  N   UNL     1      33.242 -23.792 -15.453  0.00  0.00    -0.343 N 
ATOM     12  N   UNL     1      35.358 -24.761 -15.662  0.00  0.00    -0.285 NA
ATOM     13  C   UNL     1      34.474 -23.882 -16.100  0.00  0.00    +0.117 C 
ATOM     14  H   UNL     1      33.043 -24.379 -14.688  0.00  0.00    +0.144 HD
ATOM     15  H   UNL     1      32.570 -23.141 -15.762  0.00  0.00    +0.144 HD
ATOM     16  H   UNL     1      35.140 -25.339 -14.895  0.00  0.00    +0.188 HD
ENDBRANCH   9  13
BRANCH   1  17
ATOM     17  C   UNL     1      35.041 -19.228 -22.518  0.00  0.00    +0.027 C 
ATOM     18  C   UNL     1      35.206 -17.755 -22.303  0.00  0.00    +0.027 C 
ATOM     19  C   UNL     1      36.403 -18.611 -22.602  0.00  0.00    +0.009 C 
BRANCH  18  20
ATOM     20  C   UNL     1      34.712 -16.811 -23.335  0.00  0.00    -0.022 C 
ATOM     21  C   UNL     1      34.570 -15.452 -23.036  0.00  0.00    -0.004 C 
ATOM     22  C   UNL     1      34.383 -17.273 -24.613  0.00  0.00    -0.004 C 
ATOM     23  C   UNL     1      34.103 -14.564 -24.005  0.00  0.00    -0.000 C 
ATOM     24  C   UNL     1      33.916 -16.386 -25.583  0.00  0.00    -0.000 C 
ATOM     25  C   UNL     1      33.776 -15.031 -25.278  0.00  0.00    -0.000 C 
ENDBRANCH  18  20
ENDBRANCH   1  17
TORSDOF 3
ENDMDL
MODEL 8
REMARK VINA RESULT:     -10.6      5.676      8.969
REMARK  Name = 448841
REMARK  3 active torsions:
REMARK  status: ('A' for Active; 'I' for Inactive)
REMARK    1  A    between atoms: C_1  and  C_17
REMARK    2  A    between atoms: C_9  and  C_13
REMARK    3  A    between atoms: C_18  and  C_20
REMARK                            x       y       z     vdW  Elec       q    Type
REMARK                         _______ _______ _______ _____ _____    ______ ____
ROOT
ATOM      1  C   UNL     1      33.921 -13.579 -22.993  0.00  0.00    -0.022 C 
ATOM      2  C   UNL     1      34.269 -14.713 -23.727  0.00  0.00    -0.004 C 
ATOM      3  C   UNL     1      34.026 -13.588 -21.605  0.00  0.00    -0.004 C 
ATOM      4  C   UNL     1      34.728 -15.873 -23.081  0.00  0.00    -0.000 C 
ATOM      5  C   UNL     1      34.481 -14.733 -20.947  0.00  0.00    -0.000 C 
ATOM      6  C   UNL     1      34.835 -15.883 -21.670  0.00  0.00    +0.000 C 
ATOM      7  C   UNL     1      35.082 -17.023 -23.804  0.00  0.00    +0.000 C 
ATOM      8  C   UNL     1      35.294 -17.041 -21.024  0.00  0.00    +0.003 C 
ATOM      9  C   UNL     1      35.643 -18.176 -21.758  0.00  0.00    +0.031 C 
ATOM     10  C   UNL     1      35.537 -18.166 -23.146  0.00  0.00    +0.003 C 
ENDROOT
BRANCH   9  13
ATOM     11  N   UNL     1      35.330 -20.516 -20.989  0.00  0.00    -0.343 N 
ATOM     12  N   UNL     1      37.313 -19.375 -20.515  0.00  0.00    -0.285 NA
ATOM     13  C   UNL     1      36.116 -19.368 -21.074  0.00  0.00    +0.117 C 
ATOM     14  H   UNL     1      35.670 -21.312 -20.520  0.00  0.00    +0.144 HD
ATOM     15  H   UNL     1      34.434 -20.530 -21.396  0.00  0.00    +0.144 HD
ATOM     16  H   UNL     1      37.635 -20.181 -20.051  0.00  0.00    +0.188 HD
ENDBRANCH   9  13
BRANCH   1  17
ATOM     17  C   UNL     1      33.436 -12.358 -23.694  0.00  0.00    +0.027 C 
ATOM     18  C   UNL     1      34.363 -11.196 -23.868  0.00  0.00    +0.027 C 
ATOM     19  C   UNL     1      33.975 -12.032 -25.052  0.00  0.00    +0.009 C 
BRANCH  18  20
ATOM     20  C   UNL     1      33.830  -9.816 -23.745  0.00  0.00    -0.022 C 
ATOM     21  C   UNL     1      32.484  -9.608 -23.431  0.00  0.00    -0.004 C 
ATOM     22  C   UNL     1      34.670  -8.717 -23.944  0.00  0.00    -0.004 C 
ATOM     23  C   UNL     1      31.981  -8.311 -23.318  0.00  0.00    -0.000 C 
ATOM     24  C   UNL     1      34.168  -7.420 -23.832  0.00  0.00    -0.000 C 
ATOM     25  C   UNL     1      32.824  -7.218 -23.519  0.00  0.00    -0.000 C 
ENDBRANCH  18  20
ENDBRANCH   1  17
TORSDOF 3
ENDMDL
MODEL 9
REMARK VINA RESULT:     -10.5      4.119      8.552
REMARK  Name = 448841
REMARK  3 active torsions:
REMARK  status: ('A' for Active; 'I' for Inactive)
REMARK    1  A    between atoms: C_1  and  C_17
REMARK    2  A    between atoms: C_9  and  C_13
REMARK    3  A    between atoms: C_18  and  C_20
REMARK                            x       y       z     vdW  Elec       q    Type
REMARK                         _______ _______ _______ _____ _____    ______ ____
ROOT
ATOM      1  C   UNL     1      34.565 -21.988 -19.174  0.00  0.00    -0.022 C 
ATOM      2  C   UNL     1      35.698 -21.322 -19.641  0.00  0.00    -0.004 C 
ATOM      3  C   UNL     1      33.309 -21.667 -19.681  0.00  0.00    -0.004 C 
ATOM      4  C   UNL     1      35.589 -20.324 -20.623  0.00  0.00    -0.000 C 
ATOM      5  C   UNL     1      33.182 -20.678 -20.658  0.00  0.00    -0.000 C 
ATOM      6  C   UNL     1      34.312 -19.997 -21.140  0.00  0.00    +0.000 C 
ATOM      7  C   UNL     1      36.718 -19.642 -21.105  0.00  0.00    +0.000 C 
ATOM      8  C   UNL     1      34.202 -19.000 -22.121  0.00  0.00    +0.003 C 
ATOM      9  C   UNL     1      35.335 -18.333 -22.589  0.00  0.00    +0.031 C 
ATOM     10  C   UNL     1      36.591 -18.654 -22.081  0.00  0.00    +0.003 C 
ENDROOT
BRANCH   9  13
ATOM     11  N   UNL     1      34.676 -17.588 -24.864  0.00  0.00    -0.343 N 
ATOM     12  N   UNL     1      35.597 -16.067 -23.348  0.00  0.00    -0.285 NA
ATOM     13  C   UNL     1      35.205 -17.303 -23.607  0.00  0.00    +0.117 C 
ATOM     14  H   UNL     1      34.597 -16.875 -25.539  0.00  0.00    +0.144 HD
ATOM     15  H   UNL     1      34.381 -18.503 -25.078  0.00  0.00    +0.144 HD
ATOM     16  H   UNL     1      35.509 -15.369 -24.036  0.00  0.00    +0.188 HD
ENDBRANCH   9  13
BRANCH   1  17
ATOM     17  C   UNL     1      34.699 -23.043 -18.132  0.00  0.00    +0.027 C 
ATOM     18  C   UNL     1      33.673 -23.133 -17.045  0.00  0.00    +0.027 C 
ATOM     19  C   UNL     1      33.727 -24.182 -18.116  0.00  0.00    +0.009 C 
BRANCH  18  20
ATOM     20  C   UNL     1      34.104 -23.477 -15.667  0.00  0.00    -0.022 C 
ATOM     21  C   UNL     1      35.444 -23.340 -15.293  0.00  0.00    -0.004 C 
ATOM     22  C   UNL     1      33.173 -23.943 -14.734  0.00  0.00    -0.004 C 
ATOM     23  C   UNL     1      35.850 -23.666 -13.999  0.00  0.00    -0.000 C 
ATOM     24  C   UNL     1      33.577 -24.269 -13.440  0.00  0.00    -0.000 C 
ATOM     25  C   UNL     1      34.916 -24.131 -13.072  0.00  0.00    -0.000 C 
ENDBRANCH  18  20
ENDBRANCH   1  17
TORSDOF 3
ENDMDL
