MODEL 1
REMARK VINA RESULT:     -12.6      0.000      0.000
REMARK  Name = 22479942
REMARK  4 active torsions:
REMARK  status: ('A' for Active; 'I' for Inactive)
REMARK    1  A    between atoms: C_4  and  C_17
REMARK    2  A    between atoms: C_7  and  C_14
REMARK    3  A    between atoms: C_20  and  N_24
REMARK    4  A    between atoms: C_25  and  C_28
REMARK                            x       y       z     vdW  Elec       q    Type
REMARK                         _______ _______ _______ _____ _____    ______ ____
ROOT
ATOM      1  N   UNL     1      31.208 -23.113 -17.209  0.00  0.00    -0.276 N 
ATOM      2  N   UNL     1      31.975 -22.560 -18.164  0.00  0.00    -0.173 NA
ATOM      3  C   UNL     1      33.239 -23.279 -16.397  0.00  0.00    +0.036 A 
ATOM      4  C   UNL     1      33.209 -22.663 -17.667  0.00  0.00    +0.102 A 
ATOM      5  C   UNL     1      31.907 -23.565 -16.121  0.00  0.00    +0.075 A 
ATOM      6  C   UNL     1      34.226 -23.624 -15.459  0.00  0.00    +0.006 C 
ATOM      7  C   UNL     1      33.828 -24.250 -14.270  0.00  0.00    +0.033 C 
ATOM      8  C   UNL     1      31.489 -24.187 -14.943  0.00  0.00    +0.019 C 
ATOM      9  C   UNL     1      32.483 -24.525 -14.019  0.00  0.00    +0.004 C 
ATOM     10  H   UNL     1      30.230 -23.188 -17.286  0.00  0.00    +0.189 HD
ENDROOT
BRANCH   7  14
ATOM     11  N   UNL     1      35.873 -25.434 -13.569  0.00  0.00    -0.218 N 
ATOM     12  N   UNL     1      34.884 -24.231 -12.037  0.00  0.00    -0.206 NA
ATOM     13  N   UNL     1      36.651 -25.612 -12.490  0.00  0.00    -0.157 NA
ATOM     14  C   UNL     1      34.825 -24.612 -13.292  0.00  0.00    +0.149 C 
ATOM     15  C   UNL     1      36.009 -24.863 -11.590  0.00  0.00    +0.218 C 
ATOM     16  H   UNL     1      36.040 -25.846 -14.448  0.00  0.00    +0.176 HD
ENDBRANCH   7  14
BRANCH   4  17
ATOM     17  C   UNL     1      34.335 -22.170 -18.420  0.00  0.00    +0.021 C 
ATOM     18  C   UNL     1      34.125 -21.450 -19.597  0.00  0.00    +0.016 C 
ATOM     19  C   UNL     1      35.632 -22.411 -17.971  0.00  0.00    +0.002 C 
ATOM     20  C   UNL     1      35.214 -20.973 -20.325  0.00  0.00    +0.051 C 
ATOM     21  C   UNL     1      36.722 -21.933 -18.701  0.00  0.00    +0.001 C 
ATOM     22  C   UNL     1      36.513 -21.215 -19.877  0.00  0.00    +0.015 C 
BRANCH  20  24
ATOM     23  O   UNL     1      35.858 -18.152 -20.966  0.00  0.00    -0.266 OA
ATOM     24  N   UNL     1      35.006 -20.253 -21.502  0.00  0.00    -0.278 N 
ATOM     25  C   UNL     1      35.325 -18.908 -21.776  0.00  0.00    +0.284 C 
ATOM     26  H   UNL     1      34.582 -20.751 -22.238  0.00  0.00    +0.155 HD
BRANCH  25  28
ATOM     27  O   UNL     1      35.176 -17.131 -23.421  0.00  0.00    -0.446 OA
ATOM     28  C   UNL     1      34.936 -18.432 -23.114  0.00  0.00    +0.199 C 
ATOM     29  C   UNL     1      34.344 -19.077 -24.175  0.00  0.00    +0.045 C 
ATOM     30  C   UNL     1      34.213 -18.110 -25.200  0.00  0.00    +0.044 C 
ATOM     31  C   UNL     1      34.734 -16.942 -24.692  0.00  0.00    +0.180 C 
ENDBRANCH  25  28
ENDBRANCH  20  24
ENDBRANCH   4  17
TORSDOF 4
ENDMDL
MODEL 2
REMARK VINA RESULT:     -10.8      4.954      6.999
REMARK  Name = 22479942
REMARK  4 active torsions:
REMARK  status: ('A' for Active; 'I' for Inactive)
REMARK    1  A    between atoms: C_4  and  C_17
REMARK    2  A    between atoms: C_7  and  C_14
REMARK    3  A    between atoms: C_20  and  N_24
REMARK    4  A    between atoms: C_25  and  C_28
REMARK                            x       y       z     vdW  Elec       q    Type
REMARK                         _______ _______ _______ _____ _____    ______ ____
ROOT
ATOM      1  N   UNL     1      34.415 -23.997 -11.687  0.00  0.00    -0.276 N 
ATOM      2  N   UNL     1      33.608 -23.657 -12.706  0.00  0.00    -0.173 NA
ATOM      3  C   UNL     1      35.629 -24.413 -13.465  0.00  0.00    +0.036 A 
ATOM      4  C   UNL     1      34.350 -23.911 -13.785  0.00  0.00    +0.102 A 
ATOM      5  C   UNL     1      35.644 -24.459 -12.076  0.00  0.00    +0.075 A 
ATOM      6  C   UNL     1      36.765 -24.829 -14.180  0.00  0.00    +0.006 C 
ATOM      7  C   UNL     1      37.880 -25.279 -13.460  0.00  0.00    +0.033 C 
ATOM      8  C   UNL     1      36.744 -24.903 -11.339  0.00  0.00    +0.019 C 
ATOM      9  C   UNL     1      37.867 -25.314 -12.064  0.00  0.00    +0.004 C 
ATOM     10  H   UNL     1      34.145 -23.922 -10.744  0.00  0.00    +0.189 HD
ENDROOT
BRANCH   7  14
ATOM     11  N   UNL     1      39.341 -25.318 -15.444  0.00  0.00    -0.218 N 
ATOM     12  N   UNL     1      40.002 -26.513 -13.738  0.00  0.00    -0.206 NA
ATOM     13  N   UNL     1      40.490 -25.860 -15.876  0.00  0.00    -0.157 NA
ATOM     14  C   UNL     1      39.058 -25.711 -14.173  0.00  0.00    +0.149 C 
ATOM     15  C   UNL     1      40.850 -26.574 -14.806  0.00  0.00    +0.218 C 
ATOM     16  H   UNL     1      38.776 -24.714 -15.979  0.00  0.00    +0.176 HD
ENDBRANCH   7  14
BRANCH   4  17
ATOM     17  C   UNL     1      33.816 -23.670 -15.102  0.00  0.00    +0.021 C 
ATOM     18  C   UNL     1      32.464 -23.362 -15.261  0.00  0.00    +0.016 C 
ATOM     19  C   UNL     1      34.650 -23.744 -16.217  0.00  0.00    +0.002 C 
ATOM     20  C   UNL     1      31.948 -23.129 -16.536  0.00  0.00    +0.051 C 
ATOM     21  C   UNL     1      34.134 -23.511 -17.492  0.00  0.00    +0.001 C 
ATOM     22  C   UNL     1      32.783 -23.203 -17.652  0.00  0.00    +0.015 C 
BRANCH  20  24
ATOM     23  O   UNL     1      29.541 -24.724 -15.870  0.00  0.00    -0.266 OA
ATOM     24  N   UNL     1      30.597 -22.819 -16.696  0.00  0.00    -0.278 N 
ATOM     25  C   UNL     1      29.472 -23.603 -16.368  0.00  0.00    +0.284 C 
ATOM     26  H   UNL     1      30.405 -21.937 -17.090  0.00  0.00    +0.155 HD
BRANCH  25  28
ATOM     27  O   UNL     1      27.838 -22.898 -18.017  0.00  0.00    -0.446 OA
ATOM     28  C   UNL     1      28.171 -23.000 -16.704  0.00  0.00    +0.199 C 
ATOM     29  C   UNL     1      27.169 -22.493 -15.911  0.00  0.00    +0.045 C 
ATOM     30  C   UNL     1      26.155 -22.050 -16.793  0.00  0.00    +0.044 C 
ATOM     31  C   UNL     1      26.610 -22.319 -18.064  0.00  0.00    +0.180 C 
ENDBRANCH  25  28
ENDBRANCH  20  24
ENDBRANCH   4  17
TORSDOF 4
ENDMDL
MODEL 3
REMARK VINA RESULT:     -10.7      3.706     10.408
REMARK  Name = 22479942
REMARK  4 active torsions:
REMARK  status: ('A' for Active; 'I' for Inactive)
REMARK    1  A    between atoms: C_4  and  C_17
REMARK    2  A    between atoms: C_7  and  C_14
REMARK    3  A    between atoms: C_20  and  N_24
REMARK    4  A    between atoms: C_25  and  C_28
REMARK                            x       y       z     vdW  Elec       q    Type
REMARK                         _______ _______ _______ _____ _____    ______ ____
ROOT
ATOM      1  N   UNL     1      33.873 -19.050 -25.815  0.00  0.00    -0.276 N 
ATOM      2  N   UNL     1      34.509 -19.733 -24.847  0.00  0.00    -0.173 NA
ATOM      3  C   UNL     1      34.303 -17.519 -24.304  0.00  0.00    +0.036 A 
ATOM      4  C   UNL     1      34.769 -18.798 -23.931  0.00  0.00    +0.102 A 
ATOM      5  C   UNL     1      33.718 -17.716 -25.550  0.00  0.00    +0.075 A 
ATOM      6  C   UNL     1      34.308 -16.232 -23.741  0.00  0.00    +0.006 C 
ATOM      7  C   UNL     1      33.718 -15.185 -24.461  0.00  0.00    +0.033 C 
ATOM      8  C   UNL     1      33.124 -16.687 -26.284  0.00  0.00    +0.019 C 
ATOM      9  C   UNL     1      33.137 -15.411 -25.711  0.00  0.00    +0.004 C 
ATOM     10  H   UNL     1      33.547 -19.473 -26.641  0.00  0.00    +0.189 HD
ENDROOT
BRANCH   7  14
ATOM     11  N   UNL     1      34.011 -12.744 -24.628  0.00  0.00    -0.218 N 
ATOM     12  N   UNL     1      33.435 -13.513 -22.665  0.00  0.00    -0.206 NA
ATOM     13  N   UNL     1      33.935 -11.636 -23.875  0.00  0.00    -0.157 NA
ATOM     14  C   UNL     1      33.713 -13.855 -23.902  0.00  0.00    +0.149 C 
ATOM     15  C   UNL     1      33.583 -12.156 -22.696  0.00  0.00    +0.218 C 
ATOM     16  H   UNL     1      34.252 -12.751 -25.583  0.00  0.00    +0.176 HD
ENDBRANCH   7  14
BRANCH   4  17
ATOM     17  C   UNL     1      35.457 -19.151 -22.714  0.00  0.00    +0.021 C 
ATOM     18  C   UNL     1      34.832 -19.969 -21.772  0.00  0.00    +0.016 C 
ATOM     19  C   UNL     1      36.746 -18.676 -22.480  0.00  0.00    +0.002 C 
ATOM     20  C   UNL     1      35.497 -20.310 -20.595  0.00  0.00    +0.051 C 
ATOM     21  C   UNL     1      37.412 -19.017 -21.302  0.00  0.00    +0.001 C 
ATOM     22  C   UNL     1      36.788 -19.835 -20.360  0.00  0.00    +0.015 C 
BRANCH  20  24
ATOM     23  O   UNL     1      32.665 -21.159 -20.390  0.00  0.00    -0.266 OA
ATOM     24  N   UNL     1      34.875 -21.129 -19.653  0.00  0.00    -0.278 N 
ATOM     25  C   UNL     1      33.521 -21.515 -19.583  0.00  0.00    +0.284 C 
ATOM     26  H   UNL     1      35.458 -21.485 -18.944  0.00  0.00    +0.155 HD
BRANCH  25  28
ATOM     27  O   UNL     1      31.868 -22.404 -18.046  0.00  0.00    -0.446 OA
ATOM     28  C   UNL     1      33.170 -22.362 -18.431  0.00  0.00    +0.199 C 
ATOM     29  C   UNL     1      33.939 -23.164 -17.620  0.00  0.00    +0.045 C 
ATOM     30  C   UNL     1      33.052 -23.736 -16.676  0.00  0.00    +0.044 C 
ATOM     31  C   UNL     1      31.804 -23.242 -16.979  0.00  0.00    +0.180 C 
ENDBRANCH  25  28
ENDBRANCH  20  24
ENDBRANCH   4  17
TORSDOF 4
ENDMDL
MODEL 4
REMARK VINA RESULT:     -10.6      3.843      8.113
REMARK  Name = 22479942
REMARK  4 active torsions:
REMARK  status: ('A' for Active; 'I' for Inactive)
REMARK    1  A    between atoms: C_4  and  C_17
REMARK    2  A    between atoms: C_7  and  C_14
REMARK    3  A    between atoms: C_20  and  N_24
REMARK    4  A    between atoms: C_25  and  C_28
REMARK                            x       y       z     vdW  Elec       q    Type
REMARK                         _______ _______ _______ _____ _____    ______ ____
ROOT
ATOM      1  N   UNL     1      36.288 -23.843 -15.080  0.00  0.00    -0.276 N 
ATOM      2  N   UNL     1      35.221 -24.297 -14.401  0.00  0.00    -0.173 NA
ATOM      3  C   UNL     1      34.588 -23.231 -16.324  0.00  0.00    +0.036 A 
ATOM      4  C   UNL     1      34.190 -23.923 -15.161  0.00  0.00    +0.102 A 
ATOM      5  C   UNL     1      35.976 -23.193 -16.244  0.00  0.00    +0.075 A 
ATOM      6  C   UNL     1      33.945 -22.637 -17.423  0.00  0.00    +0.006 C 
ATOM      7  C   UNL     1      34.733 -22.025 -18.407  0.00  0.00    +0.033 C 
ATOM      8  C   UNL     1      36.779 -22.588 -17.213  0.00  0.00    +0.019 C 
ATOM      9  C   UNL     1      36.125 -22.002 -18.301  0.00  0.00    +0.004 C 
ATOM     10  H   UNL     1      37.212 -23.968 -14.768  0.00  0.00    +0.189 HD
ENDROOT
BRANCH   7  14
ATOM     11  N   UNL     1      32.764 -21.526 -19.803  0.00  0.00    -0.218 N 
ATOM     12  N   UNL     1      34.660 -20.670 -20.472  0.00  0.00    -0.206 NA
ATOM     13  N   UNL     1      32.423 -20.861 -20.917  0.00  0.00    -0.157 NA
ATOM     14  C   UNL     1      34.093 -21.408 -19.545  0.00  0.00    +0.149 C 
ATOM     15  C   UNL     1      33.606 -20.361 -21.284  0.00  0.00    +0.218 C 
ATOM     16  H   UNL     1      32.131 -22.033 -19.244  0.00  0.00    +0.176 HD
ENDBRANCH   7  14
BRANCH   4  17
ATOM     17  C   UNL     1      32.842 -24.239 -14.757  0.00  0.00    +0.021 C 
ATOM     18  C   UNL     1      31.762 -23.621 -15.388  0.00  0.00    +0.016 C 
ATOM     19  C   UNL     1      32.619 -25.162 -13.737  0.00  0.00    +0.002 C 
ATOM     20  C   UNL     1      30.459 -23.926 -14.997  0.00  0.00    +0.051 C 
ATOM     21  C   UNL     1      31.315 -25.467 -13.345  0.00  0.00    +0.001 C 
ATOM     22  C   UNL     1      30.235 -24.850 -13.976  0.00  0.00    +0.015 C 
BRANCH  20  24
ATOM     23  O   UNL     1      28.542 -25.014 -16.978  0.00  0.00    -0.266 OA
ATOM     24  N   UNL     1      29.378 -23.310 -15.628  0.00  0.00    -0.278 N 
ATOM     25  C   UNL     1      28.482 -23.857 -16.569  0.00  0.00    +0.284 C 
ATOM     26  H   UNL     1      29.220 -22.370 -15.383  0.00  0.00    +0.155 HD
BRANCH  25  28
ATOM     27  O   UNL     1      27.236 -22.904 -18.419  0.00  0.00    -0.446 OA
ATOM     28  C   UNL     1      27.464 -22.924 -17.080  0.00  0.00    +0.199 C 
ATOM     29  C   UNL     1      26.652 -22.018 -16.438  0.00  0.00    +0.045 C 
ATOM     30  C   UNL     1      25.875 -21.402 -17.447  0.00  0.00    +0.044 C 
ATOM     31  C   UNL     1      26.267 -21.975 -18.635  0.00  0.00    +0.180 C 
ENDBRANCH  25  28
ENDBRANCH  20  24
ENDBRANCH   4  17
TORSDOF 4
ENDMDL
MODEL 5
REMARK VINA RESULT:     -10.3     12.212     18.133
REMARK  Name = 22479942
REMARK  4 active torsions:
REMARK  status: ('A' for Active; 'I' for Inactive)
REMARK    1  A    between atoms: C_4  and  C_17
REMARK    2  A    between atoms: C_7  and  C_14
REMARK    3  A    between atoms: C_20  and  N_24
REMARK    4  A    between atoms: C_25  and  C_28
REMARK                            x       y       z     vdW  Elec       q    Type
REMARK                         _______ _______ _______ _____ _____    ______ ____
ROOT
ATOM      1  N   UNL     1      30.439  -3.372 -23.413  0.00  0.00    -0.276 N 
ATOM      2  N   UNL     1      30.510  -4.396 -22.545  0.00  0.00    -0.173 NA
ATOM      3  C   UNL     1      32.147  -4.542 -24.136  0.00  0.00    +0.036 A 
ATOM      4  C   UNL     1      31.549  -5.105 -22.988  0.00  0.00    +0.102 A 
ATOM      5  C   UNL     1      31.395  -3.402 -24.393  0.00  0.00    +0.075 A 
ATOM      6  C   UNL     1      33.225  -4.861 -24.980  0.00  0.00    +0.006 C 
ATOM      7  C   UNL     1      33.504  -4.010 -26.057  0.00  0.00    +0.033 C 
ATOM      8  C   UNL     1      31.656  -2.541 -25.461  0.00  0.00    +0.019 C 
ATOM      9  C   UNL     1      32.732  -2.871 -26.292  0.00  0.00    +0.004 C 
ATOM     10  H   UNL     1      29.760  -2.663 -23.349  0.00  0.00    +0.189 HD
ENDROOT
BRANCH   7  14
ATOM     11  N   UNL     1      34.574  -4.086 -28.277  0.00  0.00    -0.218 N 
ATOM     12  N   UNL     1      35.762  -4.848 -26.609  0.00  0.00    -0.206 NA
ATOM     13  N   UNL     1      35.720  -4.462 -28.864  0.00  0.00    -0.157 NA
ATOM     14  C   UNL     1      34.606  -4.318 -26.937  0.00  0.00    +0.149 C 
ATOM     15  C   UNL     1      36.405  -4.916 -27.811  0.00  0.00    +0.218 C 
ATOM     16  H   UNL     1      33.808  -3.692 -28.755  0.00  0.00    +0.176 HD
ENDBRANCH   7  14
BRANCH   4  17
ATOM     17  C   UNL     1      31.950  -6.306 -22.301  0.00  0.00    +0.021 C 
ATOM     18  C   UNL     1      32.119  -7.494 -23.014  0.00  0.00    +0.016 C 
ATOM     19  C   UNL     1      32.170  -6.282 -20.925  0.00  0.00    +0.002 C 
ATOM     20  C   UNL     1      32.507  -8.657 -22.348  0.00  0.00    +0.051 C 
ATOM     21  C   UNL     1      32.558  -7.445 -20.259  0.00  0.00    +0.001 C 
ATOM     22  C   UNL     1      32.727  -8.633 -20.970  0.00  0.00    +0.015 C 
BRANCH  20  24
ATOM     23  O   UNL     1      34.877  -9.675 -23.809  0.00  0.00    -0.266 OA
ATOM     24  N   UNL     1      32.678  -9.845 -23.060  0.00  0.00    -0.278 N 
ATOM     25  C   UNL     1      33.822 -10.301 -23.745  0.00  0.00    +0.284 C 
ATOM     26  H   UNL     1      31.896 -10.444 -23.085  0.00  0.00    +0.155 HD
BRANCH  25  28
ATOM     27  O   UNL     1      33.471 -12.701 -23.675  0.00  0.00    -0.446 OA
ATOM     28  C   UNL     1      33.664 -11.592 -24.436  0.00  0.00    +0.199 C 
ATOM     29  C   UNL     1      33.671 -11.918 -25.772  0.00  0.00    +0.045 C 
ATOM     30  C   UNL     1      33.471 -13.318 -25.837  0.00  0.00    +0.044 C 
ATOM     31  C   UNL     1      33.354 -13.747 -24.534  0.00  0.00    +0.180 C 
ENDBRANCH  25  28
ENDBRANCH  20  24
ENDBRANCH   4  17
TORSDOF 4
ENDMDL
MODEL 6
REMARK VINA RESULT:     -10.3      6.858     11.274
REMARK  Name = 22479942
REMARK  4 active torsions:
REMARK  status: ('A' for Active; 'I' for Inactive)
REMARK    1  A    between atoms: C_4  and  C_17
REMARK    2  A    between atoms: C_7  and  C_14
REMARK    3  A    between atoms: C_20  and  N_24
REMARK    4  A    between atoms: C_25  and  C_28
REMARK                            x       y       z     vdW  Elec       q    Type
REMARK                         _______ _______ _______ _____ _____    ______ ____
ROOT
ATOM      1  N   UNL     1      33.117 -14.891 -25.994  0.00  0.00    -0.276 N 
ATOM      2  N   UNL     1      32.645 -13.854 -25.280  0.00  0.00    -0.173 NA
ATOM      3  C   UNL     1      33.833 -15.298 -23.961  0.00  0.00    +0.036 A 
ATOM      4  C   UNL     1      33.083 -14.106 -24.045  0.00  0.00    +0.102 A 
ATOM      5  C   UNL     1      33.838 -15.794 -25.260  0.00  0.00    +0.075 A 
ATOM      6  C   UNL     1      34.500 -16.009 -22.950  0.00  0.00    +0.006 C 
ATOM      7  C   UNL     1      35.153 -17.201 -23.291  0.00  0.00    +0.033 C 
ATOM      8  C   UNL     1      34.482 -16.980 -25.621  0.00  0.00    +0.019 C 
ATOM      9  C   UNL     1      35.142 -17.676 -24.604  0.00  0.00    +0.004 C 
ATOM     10  H   UNL     1      32.958 -14.991 -26.960  0.00  0.00    +0.189 HD
ENDROOT
BRANCH   7  14
ATOM     11  N   UNL     1      37.149 -18.317 -22.371  0.00  0.00    -0.218 N 
ATOM     12  N   UNL     1      35.354 -18.376 -21.127  0.00  0.00    -0.206 NA
ATOM     13  N   UNL     1      37.549 -19.002 -21.289  0.00  0.00    -0.157 NA
ATOM     14  C   UNL     1      35.844 -17.948 -22.267  0.00  0.00    +0.149 C 
ATOM     15  C   UNL     1      36.426 -19.010 -20.566  0.00  0.00    +0.218 C 
ATOM     16  H   UNL     1      37.727 -18.108 -23.141  0.00  0.00    +0.176 HD
ENDBRANCH   7  14
BRANCH   4  17
ATOM     17  C   UNL     1      32.775 -13.196 -22.970  0.00  0.00    +0.021 C 
ATOM     18  C   UNL     1      32.623 -11.834 -23.232  0.00  0.00    +0.016 C 
ATOM     19  C   UNL     1      32.627 -13.677 -21.671  0.00  0.00    +0.002 C 
ATOM     20  C   UNL     1      32.325 -10.954 -22.192  0.00  0.00    +0.051 C 
ATOM     21  C   UNL     1      32.329 -12.797 -20.630  0.00  0.00    +0.001 C 
ATOM     22  C   UNL     1      32.177 -11.435 -20.890  0.00  0.00    +0.015 C 
BRANCH  20  24
ATOM     23  O   UNL     1      34.242  -9.012 -23.350  0.00  0.00    -0.266 OA
ATOM     24  N   UNL     1      32.172  -9.591 -22.452  0.00  0.00    -0.278 N 
ATOM     25  C   UNL     1      33.106  -8.693 -23.005  0.00  0.00    +0.284 C 
ATOM     26  H   UNL     1      31.295  -9.208 -22.218  0.00  0.00    +0.155 HD
BRANCH  25  28
ATOM     27  O   UNL     1      31.451  -6.979 -22.550  0.00  0.00    -0.446 OA
ATOM     28  C   UNL     1      32.645  -7.299 -23.113  0.00  0.00    +0.199 C 
ATOM     29  C   UNL     1      33.213  -6.193 -23.701  0.00  0.00    +0.045 C 
ATOM     30  C   UNL     1      32.309  -5.125 -23.486  0.00  0.00    +0.044 C 
ATOM     31  C   UNL     1      31.253  -5.655 -22.781  0.00  0.00    +0.180 C 
ENDBRANCH  25  28
ENDBRANCH  20  24
ENDBRANCH   4  17
TORSDOF 4
ENDMDL
MODEL 7
REMARK VINA RESULT:      -9.6      8.916     13.938
REMARK  Name = 22479942
REMARK  4 active torsions:
REMARK  status: ('A' for Active; 'I' for Inactive)
REMARK    1  A    between atoms: C_4  and  C_17
REMARK    2  A    between atoms: C_7  and  C_14
REMARK    3  A    between atoms: C_20  and  N_24
REMARK    4  A    between atoms: C_25  and  C_28
REMARK                            x       y       z     vdW  Elec       q    Type
REMARK                         _______ _______ _______ _____ _____    ______ ____
ROOT
ATOM      1  N   UNL     1      31.892 -11.142 -19.973  0.00  0.00    -0.276 N 
ATOM      2  N   UNL     1      32.261 -12.021 -20.920  0.00  0.00    -0.173 NA
ATOM      3  C   UNL     1      32.279  -9.878 -21.723  0.00  0.00    +0.036 A 
ATOM      4  C   UNL     1      32.496 -11.248 -21.983  0.00  0.00    +0.102 A 
ATOM      5  C   UNL     1      31.881  -9.838 -20.392  0.00  0.00    +0.075 A 
ATOM      6  C   UNL     1      32.370  -8.679 -22.450  0.00  0.00    +0.006 C 
ATOM      7  C   UNL     1      32.056  -7.478 -21.801  0.00  0.00    +0.033 C 
ATOM      8  C   UNL     1      31.563  -8.652 -19.726  0.00  0.00    +0.019 C 
ATOM      9  C   UNL     1      31.659  -7.468 -20.463  0.00  0.00    +0.004 C 
ATOM     10  H   UNL     1      31.650 -11.412 -19.058  0.00  0.00    +0.189 HD
ENDROOT
BRANCH   7  14
ATOM     11  N   UNL     1      31.560  -5.083 -22.103  0.00  0.00    -0.218 N 
ATOM     12  N   UNL     1      32.763  -6.021 -23.667  0.00  0.00    -0.206 NA
ATOM     13  N   UNL     1      31.789  -4.076 -22.959  0.00  0.00    -0.157 NA
ATOM     14  C   UNL     1      32.142  -6.235 -22.530  0.00  0.00    +0.149 C 
ATOM     15  C   UNL     1      32.521  -4.696 -23.888  0.00  0.00    +0.218 C 
ATOM     16  H   UNL     1      31.039  -4.997 -21.271  0.00  0.00    +0.176 HD
ENDBRANCH   7  14
BRANCH   4  17
ATOM     17  C   UNL     1      32.926 -11.839 -23.225  0.00  0.00    +0.021 C 
ATOM     18  C   UNL     1      33.066 -13.224 -23.327  0.00  0.00    +0.016 C 
ATOM     19  C   UNL     1      33.201 -11.028 -24.325  0.00  0.00    +0.002 C 
ATOM     20  C   UNL     1      33.482 -13.796 -24.529  0.00  0.00    +0.051 C 
ATOM     21  C   UNL     1      33.617 -11.600 -25.527  0.00  0.00    +0.001 C 
ATOM     22  C   UNL     1      33.757 -12.984 -25.630  0.00  0.00    +0.015 C 
BRANCH  20  24
ATOM     23  O   UNL     1      35.343 -15.629 -23.129  0.00  0.00    -0.266 OA
ATOM     24  N   UNL     1      33.621 -15.180 -24.633  0.00  0.00    -0.278 N 
ATOM     25  C   UNL     1      34.519 -16.025 -23.950  0.00  0.00    +0.284 C 
ATOM     26  H   UNL     1      33.011 -15.624 -25.265  0.00  0.00    +0.155 HD
BRANCH  25  28
ATOM     27  O   UNL     1      33.886 -17.766 -25.517  0.00  0.00    -0.446 OA
ATOM     28  C   UNL     1      34.441 -17.449 -24.318  0.00  0.00    +0.199 C 
ATOM     29  C   UNL     1      34.838 -18.586 -23.655  0.00  0.00    +0.045 C 
ATOM     30  C   UNL     1      34.507 -19.672 -24.501  0.00  0.00    +0.044 C 
ATOM     31  C   UNL     1      33.931 -19.120 -25.622  0.00  0.00    +0.180 C 
ENDBRANCH  25  28
ENDBRANCH  20  24
ENDBRANCH   4  17
TORSDOF 4
ENDMDL
MODEL 8
REMARK VINA RESULT:      -9.6      2.002      4.700
REMARK  Name = 22479942
REMARK  4 active torsions:
REMARK  status: ('A' for Active; 'I' for Inactive)
REMARK    1  A    between atoms: C_4  and  C_17
REMARK    2  A    between atoms: C_7  and  C_14
REMARK    3  A    between atoms: C_20  and  N_24
REMARK    4  A    between atoms: C_25  and  C_28
REMARK                            x       y       z     vdW  Elec       q    Type
REMARK                         _______ _______ _______ _____ _____    ______ ____
ROOT
ATOM      1  N   UNL     1      33.832 -25.045 -12.713  0.00  0.00    -0.276 N 
ATOM      2  N   UNL     1      34.927 -24.583 -13.341  0.00  0.00    -0.173 NA
ATOM      3  C   UNL     1      33.040 -24.203 -14.577  0.00  0.00    +0.036 A 
ATOM      4  C   UNL     1      34.441 -24.072 -14.473  0.00  0.00    +0.102 A 
ATOM      5  C   UNL     1      32.666 -24.848 -13.404  0.00  0.00    +0.075 A 
ATOM      6  C   UNL     1      32.054 -23.856 -15.516  0.00  0.00    +0.006 C 
ATOM      7  C   UNL     1      30.720 -24.174 -15.233  0.00  0.00    +0.033 C 
ATOM      8  C   UNL     1      31.342 -25.175 -13.102  0.00  0.00    +0.019 C 
ATOM      9  C   UNL     1      30.373 -24.823 -14.046  0.00  0.00    +0.004 C 
ATOM     10  H   UNL     1      33.866 -25.486 -11.835  0.00  0.00    +0.189 HD
ENDROOT
BRANCH   7  14
ATOM     11  N   UNL     1      28.670 -24.665 -16.511  0.00  0.00    -0.218 N 
ATOM     12  N   UNL     1      29.576 -22.707 -16.859  0.00  0.00    -0.206 NA
ATOM     13  N   UNL     1      27.853 -24.105 -17.416  0.00  0.00    -0.157 NA
ATOM     14  C   UNL     1      29.691 -23.828 -16.184  0.00  0.00    +0.149 C 
ATOM     15  C   UNL     1      28.445 -22.921 -17.593  0.00  0.00    +0.218 C 
ATOM     16  H   UNL     1      28.545 -25.565 -16.131  0.00  0.00    +0.176 HD
ENDBRANCH   7  14
BRANCH   4  17
ATOM     17  C   UNL     1      35.331 -23.466 -15.432  0.00  0.00    +0.021 C 
ATOM     18  C   UNL     1      34.812 -22.859 -16.577  0.00  0.00    +0.016 C 
ATOM     19  C   UNL     1      36.707 -23.486 -15.216  0.00  0.00    +0.002 C 
ATOM     20  C   UNL     1      35.673 -22.272 -17.504  0.00  0.00    +0.051 C 
ATOM     21  C   UNL     1      37.568 -22.899 -16.144  0.00  0.00    +0.001 C 
ATOM     22  C   UNL     1      37.051 -22.292 -17.288  0.00  0.00    +0.015 C 
BRANCH  20  24
ATOM     23  O   UNL     1      37.058 -21.352 -19.958  0.00  0.00    -0.266 OA
ATOM     24  N   UNL     1      35.156 -21.663 -18.649  0.00  0.00    -0.278 N 
ATOM     25  C   UNL     1      35.844 -21.237 -19.802  0.00  0.00    +0.284 C 
ATOM     26  H   UNL     1      34.183 -21.514 -18.651  0.00  0.00    +0.155 HD
BRANCH  25  28
ATOM     27  O   UNL     1      35.632 -20.023 -21.892  0.00  0.00    -0.446 OA
ATOM     28  C   UNL     1      35.008 -20.588 -20.826  0.00  0.00    +0.199 C 
ATOM     29  C   UNL     1      33.645 -20.431 -20.925  0.00  0.00    +0.045 C 
ATOM     30  C   UNL     1      33.416 -19.724 -22.130  0.00  0.00    +0.044 C 
ATOM     31  C   UNL     1      34.657 -19.500 -22.682  0.00  0.00    +0.180 C 
ENDBRANCH  25  28
ENDBRANCH  20  24
ENDBRANCH   4  17
TORSDOF 4
ENDMDL
