MODEL 1
REMARK VINA RESULT:     -11.3      0.000      0.000
REMARK  Name = 70798655
REMARK  2 active torsions:
REMARK  status: ('A' for Active; 'I' for Inactive)
REMARK    1  A    between atoms: C_3  and  C_29
REMARK    2  A    between atoms: C_5  and  C_13
REMARK                            x       y       z     vdW  Elec       q    Type
REMARK                         _______ _______ _______ _____ _____    ______ ____
ROOT
ATOM      1  N   UNL     1      34.004 -23.827 -15.222  0.00  0.00    -0.245 N 
ATOM      2  N   UNL     1      32.430 -24.812 -13.976  0.00  0.00    -0.227 NA
ATOM      3  C   UNL     1      34.625 -24.254 -14.076  0.00  0.00    +0.130 C 
ATOM      4  C   UNL     1      32.667 -24.191 -15.113  0.00  0.00    +0.139 C 
ATOM      5  C   UNL     1      33.738 -22.825 -17.355  0.00  0.00    +0.012 C 
ATOM      6  C   UNL     1      34.539 -23.157 -16.319  0.00  0.00    +0.071 C 
ATOM      7  C   UNL     1      33.639 -24.853 -13.329  0.00  0.00    +0.120 C 
ATOM      8  C   UNL     1      31.816 -23.848 -16.200  0.00  0.00    +0.035 C 
ATOM      9  C   UNL     1      32.323 -23.200 -17.267  0.00  0.00    +0.004 C 
ENDROOT
BRANCH   5  13
ATOM     10  O   UNL     1      35.725 -20.126 -21.786  0.00  0.00    -0.414 OA
ATOM     11  N   UNL     1      33.472 -20.090 -21.538  0.00  0.00    -0.356 NA
ATOM     12  N   UNL     1      34.540 -18.982 -23.388  0.00  0.00    -0.302 N 
ATOM     13  C   UNL     1      34.314 -22.122 -18.517  0.00  0.00    -0.014 C 
ATOM     14  C   UNL     1      33.459 -21.465 -19.415  0.00  0.00    +0.089 C 
ATOM     15  C   UNL     1      35.703 -22.122 -18.704  0.00  0.00    -0.001 C 
ATOM     16  C   UNL     1      34.035 -20.805 -20.510  0.00  0.00    +0.152 C 
ATOM     17  C   UNL     1      35.414 -20.830 -20.658  0.00  0.00    +0.175 C 
ATOM     18  C   UNL     1      36.292 -21.468 -19.792  0.00  0.00    +0.040 C 
ATOM     19  C   UNL     1      34.511 -19.717 -22.252  0.00  0.00    +0.341 C 
ATOM     20  H   UNL     1      35.400 -18.777 -23.821  0.00  0.00    +0.148 HD
ATOM     21  H   UNL     1      33.700 -18.654 -23.782  0.00  0.00    +0.148 HD
ENDBRANCH   5  13
BRANCH   3  29
ATOM     22  O   UNL     1      38.718 -27.169 -14.623  0.00  0.00    -0.350 OA
ATOM     23  O   UNL     1      36.330 -23.146 -13.008  0.00  0.00    -0.268 OA
ATOM     24  N   UNL     1      36.960 -24.993 -14.291  0.00  0.00    -0.270 N 
ATOM     25  C   UNL     1      38.385 -24.856 -13.994  0.00  0.00    +0.126 C 
ATOM     26  C   UNL     1      36.638 -26.075 -15.231  0.00  0.00    +0.126 C 
ATOM     27  C   UNL     1      37.313 -27.369 -14.795  0.00  0.00    +0.164 C 
ATOM     28  C   UNL     1      38.977 -26.202 -13.602  0.00  0.00    +0.164 C 
ATOM     29  C   UNL     1      36.047 -24.089 -13.746  0.00  0.00    +0.265 C 
ENDBRANCH   3  29
TORSDOF 2
ENDMDL
MODEL 2
REMARK VINA RESULT:     -10.8      1.232      1.849
REMARK  Name = 70798655
REMARK  2 active torsions:
REMARK  status: ('A' for Active; 'I' for Inactive)
REMARK    1  A    between atoms: C_3  and  C_29
REMARK    2  A    between atoms: C_5  and  C_13
REMARK                            x       y       z     vdW  Elec       q    Type
REMARK                         _______ _______ _______ _____ _____    ______ ____
ROOT
ATOM      1  N   UNL     1      33.726 -24.101 -15.623  0.00  0.00    -0.245 N 
ATOM      2  N   UNL     1      32.053 -24.822 -14.325  0.00  0.00    -0.227 NA
ATOM      3  C   UNL     1      34.301 -24.849 -14.627  0.00  0.00    +0.130 C 
ATOM      4  C   UNL     1      32.355 -24.116 -15.395  0.00  0.00    +0.139 C 
ATOM      5  C   UNL     1      33.565 -22.745 -17.561  0.00  0.00    +0.012 C 
ATOM      6  C   UNL     1      34.329 -23.431 -16.684  0.00  0.00    +0.071 C 
ATOM      7  C   UNL     1      33.255 -25.279 -13.845  0.00  0.00    +0.120 C 
ATOM      8  C   UNL     1      31.541 -23.397 -16.315  0.00  0.00    +0.035 C 
ATOM      9  C   UNL     1      32.114 -22.746 -17.346  0.00  0.00    +0.004 C 
ENDROOT
BRANCH   5  13
ATOM     10  O   UNL     1      35.820 -20.045 -21.863  0.00  0.00    -0.414 OA
ATOM     11  N   UNL     1      33.562 -19.926 -21.697  0.00  0.00    -0.356 NA
ATOM     12  N   UNL     1      34.741 -18.827 -23.485  0.00  0.00    -0.302 N 
ATOM     13  C   UNL     1      34.211 -22.044 -18.688  0.00  0.00    -0.014 C 
ATOM     14  C   UNL     1      33.417 -21.337 -19.603  0.00  0.00    +0.089 C 
ATOM     15  C   UNL     1      35.605 -22.095 -18.824  0.00  0.00    -0.001 C 
ATOM     16  C   UNL     1      34.058 -20.681 -20.663  0.00  0.00    +0.152 C 
ATOM     17  C   UNL     1      35.440 -20.757 -20.761  0.00  0.00    +0.175 C 
ATOM     18  C   UNL     1      36.260 -21.445 -19.875  0.00  0.00    +0.040 C 
ATOM     19  C   UNL     1      34.642 -19.581 -22.365  0.00  0.00    +0.341 C 
ATOM     20  H   UNL     1      35.625 -18.649 -23.881  0.00  0.00    +0.148 HD
ATOM     21  H   UNL     1      33.930 -18.459 -23.903  0.00  0.00    +0.148 HD
ENDBRANCH   5  13
BRANCH   3  29
ATOM     22  O   UNL     1      37.570 -24.193 -10.828  0.00  0.00    -0.350 OA
ATOM     23  O   UNL     1      36.367 -25.369 -15.483  0.00  0.00    -0.268 OA
ATOM     24  N   UNL     1      36.268 -25.065 -13.169  0.00  0.00    -0.270 N 
ATOM     25  C   UNL     1      37.690 -25.332 -12.959  0.00  0.00    +0.126 C 
ATOM     26  C   UNL     1      35.507 -24.835 -11.935  0.00  0.00    +0.126 C 
ATOM     27  C   UNL     1      36.214 -23.804 -11.064  0.00  0.00    +0.164 C 
ATOM     28  C   UNL     1      38.301 -24.273 -12.054  0.00  0.00    +0.164 C 
ATOM     29  C   UNL     1      35.736 -25.114 -14.458  0.00  0.00    +0.265 C 
ENDBRANCH   3  29
TORSDOF 2
ENDMDL
MODEL 3
REMARK VINA RESULT:      -9.9      7.944     12.850
REMARK  Name = 70798655
REMARK  2 active torsions:
REMARK  status: ('A' for Active; 'I' for Inactive)
REMARK    1  A    between atoms: C_3  and  C_29
REMARK    2  A    between atoms: C_5  and  C_13
REMARK                            x       y       z     vdW  Elec       q    Type
REMARK                         _______ _______ _______ _____ _____    ______ ____
ROOT
ATOM      1  N   UNL     1      33.873 -14.383 -24.798  0.00  0.00    -0.245 N 
ATOM      2  N   UNL     1      33.526 -15.797 -26.496  0.00  0.00    -0.227 NA
ATOM      3  C   UNL     1      34.194 -15.634 -24.335  0.00  0.00    +0.130 C 
ATOM      4  C   UNL     1      33.472 -14.536 -26.120  0.00  0.00    +0.139 C 
ATOM      5  C   UNL     1      33.550 -12.034 -24.788  0.00  0.00    +0.012 C 
ATOM      6  C   UNL     1      33.915 -13.159 -24.136  0.00  0.00    +0.071 C 
ATOM      7  C   UNL     1      33.973 -16.482 -25.394  0.00  0.00    +0.120 C 
ATOM      8  C   UNL     1      33.088 -13.356 -26.816  0.00  0.00    +0.035 C 
ATOM      9  C   UNL     1      33.124 -12.166 -26.185  0.00  0.00    +0.004 C 
ENDROOT
BRANCH   5  13
ATOM     10  O   UNL     1      33.593  -7.209 -22.033  0.00  0.00    -0.414 OA
ATOM     11  N   UNL     1      31.893  -8.619 -21.525  0.00  0.00    -0.356 NA
ATOM     12  N   UNL     1      32.100  -6.478 -20.447  0.00  0.00    -0.302 N 
ATOM     13  C   UNL     1      33.604 -10.739 -24.082  0.00  0.00    -0.014 C 
ATOM     14  C   UNL     1      32.617 -10.431 -23.135  0.00  0.00    +0.089 C 
ATOM     15  C   UNL     1      34.641  -9.841 -24.369  0.00  0.00    -0.001 C 
ATOM     16  C   UNL     1      32.695  -9.194 -22.480  0.00  0.00    +0.152 C 
ATOM     17  C   UNL     1      33.737  -8.333 -22.794  0.00  0.00    +0.175 C 
ATOM     18  C   UNL     1      34.733  -8.603 -23.724  0.00  0.00    +0.040 C 
ATOM     19  C   UNL     1      32.470  -7.459 -21.302  0.00  0.00    +0.341 C 
ATOM     20  H   UNL     1      32.633  -5.652 -20.384  0.00  0.00    +0.148 HD
ATOM     21  H   UNL     1      31.299  -6.590 -19.887  0.00  0.00    +0.148 HD
ENDBRANCH   5  13
BRANCH   3  29
ATOM     22  O   UNL     1      35.372 -19.952 -21.986  0.00  0.00    -0.350 OA
ATOM     23  O   UNL     1      34.605 -15.065 -22.148  0.00  0.00    -0.268 OA
ATOM     24  N   UNL     1      35.163 -17.250 -22.756  0.00  0.00    -0.270 N 
ATOM     25  C   UNL     1      35.655 -17.614 -21.428  0.00  0.00    +0.126 C 
ATOM     26  C   UNL     1      35.313 -18.304 -23.768  0.00  0.00    +0.126 C 
ATOM     27  C   UNL     1      34.766 -19.624 -23.239  0.00  0.00    +0.164 C 
ATOM     28  C   UNL     1      35.082 -18.957 -21.000  0.00  0.00    +0.164 C 
ATOM     29  C   UNL     1      34.671 -15.964 -22.985  0.00  0.00    +0.265 C 
ENDBRANCH   3  29
TORSDOF 2
ENDMDL
MODEL 4
REMARK VINA RESULT:      -9.3      4.753     11.647
REMARK  Name = 70798655
REMARK  2 active torsions:
REMARK  status: ('A' for Active; 'I' for Inactive)
REMARK    1  A    between atoms: C_3  and  C_29
REMARK    2  A    between atoms: C_5  and  C_13
REMARK                            x       y       z     vdW  Elec       q    Type
REMARK                         _______ _______ _______ _____ _____    ______ ____
ROOT
ATOM      1  N   UNL     1      34.197 -17.101 -24.350  0.00  0.00    -0.245 N 
ATOM      2  N   UNL     1      33.413 -17.022 -26.442  0.00  0.00    -0.227 NA
ATOM      3  C   UNL     1      33.906 -15.786 -24.607  0.00  0.00    +0.130 C 
ATOM      4  C   UNL     1      33.878 -17.815 -25.499  0.00  0.00    +0.139 C 
ATOM      5  C   UNL     1      34.924 -19.015 -23.153  0.00  0.00    +0.012 C 
ATOM      6  C   UNL     1      34.710 -17.682 -23.193  0.00  0.00    +0.071 C 
ATOM      7  C   UNL     1      33.428 -15.764 -25.896  0.00  0.00    +0.120 C 
ATOM      8  C   UNL     1      34.098 -19.220 -25.466  0.00  0.00    +0.035 C 
ATOM      9  C   UNL     1      34.594 -19.793 -24.352  0.00  0.00    +0.004 C 
ENDROOT
BRANCH   5  13
ATOM     10  O   UNL     1      36.778 -21.408 -18.494  0.00  0.00    -0.414 OA
ATOM     11  N   UNL     1      34.677 -21.977 -19.126  0.00  0.00    -0.356 NA
ATOM     12  N   UNL     1      35.673 -22.899 -17.139  0.00  0.00    -0.302 N 
ATOM     13  C   UNL     1      35.461 -19.625 -21.921  0.00  0.00    -0.014 C 
ATOM     14  C   UNL     1      34.664 -20.522 -21.196  0.00  0.00    +0.089 C 
ATOM     15  C   UNL     1      36.756 -19.298 -21.499  0.00  0.00    -0.001 C 
ATOM     16  C   UNL     1      35.202 -21.086 -20.029  0.00  0.00    +0.152 C 
ATOM     17  C   UNL     1      36.488 -20.735 -19.646  0.00  0.00    +0.175 C 
ATOM     18  C   UNL     1      37.307 -19.852 -20.338  0.00  0.00    +0.040 C 
ATOM     19  C   UNL     1      35.647 -22.127 -18.250  0.00  0.00    +0.341 C 
ATOM     20  H   UNL     1      36.476 -22.913 -16.569  0.00  0.00    +0.148 HD
ATOM     21  H   UNL     1      34.890 -23.445 -16.901  0.00  0.00    +0.148 HD
ENDBRANCH   5  13
BRANCH   3  29
ATOM     22  O   UNL     1      33.742 -10.759 -25.114  0.00  0.00    -0.350 OA
ATOM     23  O   UNL     1      34.561 -14.931 -22.579  0.00  0.00    -0.268 OA
ATOM     24  N   UNL     1      33.694 -13.389 -24.105  0.00  0.00    -0.270 N 
ATOM     25  C   UNL     1      33.844 -12.245 -23.207  0.00  0.00    +0.126 C 
ATOM     26  C   UNL     1      33.055 -13.072 -25.388  0.00  0.00    +0.126 C 
ATOM     27  C   UNL     1      33.725 -11.861 -26.026  0.00  0.00    +0.164 C 
ATOM     28  C   UNL     1      34.491 -11.078 -23.939  0.00  0.00    +0.164 C 
ATOM     29  C   UNL     1      34.083 -14.660 -23.680  0.00  0.00    +0.265 C 
ENDBRANCH   3  29
TORSDOF 2
ENDMDL
MODEL 5
REMARK VINA RESULT:      -9.3      2.968      4.833
REMARK  Name = 70798655
REMARK  2 active torsions:
REMARK  status: ('A' for Active; 'I' for Inactive)
REMARK    1  A    between atoms: C_3  and  C_29
REMARK    2  A    between atoms: C_5  and  C_13
REMARK                            x       y       z     vdW  Elec       q    Type
REMARK                         _______ _______ _______ _____ _____    ______ ____
ROOT
ATOM      1  N   UNL     1      34.641 -22.863 -17.071  0.00  0.00    -0.245 N 
ATOM      2  N   UNL     1      35.408 -23.994 -15.302  0.00  0.00    -0.227 NA
ATOM      3  C   UNL     1      33.545 -23.412 -16.455  0.00  0.00    +0.130 C 
ATOM      4  C   UNL     1      35.752 -23.246 -16.330  0.00  0.00    +0.139 C 
ATOM      5  C   UNL     1      35.905 -21.629 -18.654  0.00  0.00    +0.012 C 
ATOM      6  C   UNL     1      34.706 -22.068 -18.213  0.00  0.00    +0.071 C 
ATOM      7  C   UNL     1      34.042 -24.101 -15.375  0.00  0.00    +0.120 C 
ATOM      8  C   UNL     1      37.019 -22.787 -16.785  0.00  0.00    +0.035 C 
ATOM      9  C   UNL     1      37.095 -22.018 -17.888  0.00  0.00    +0.004 C 
ENDROOT
BRANCH   5  13
ATOM     10  O   UNL     1      35.948 -18.483 -23.233  0.00  0.00    -0.414 OA
ATOM     11  N   UNL     1      33.997 -19.547 -22.786  0.00  0.00    -0.356 NA
ATOM     12  N   UNL     1      34.231 -18.133 -24.719  0.00  0.00    -0.302 N 
ATOM     13  C   UNL     1      35.966 -20.781 -19.860  0.00  0.00    -0.014 C 
ATOM     14  C   UNL     1      34.830 -20.665 -20.675  0.00  0.00    +0.089 C 
ATOM     15  C   UNL     1      37.155 -20.107 -20.169  0.00  0.00    -0.001 C 
ATOM     16  C   UNL     1      34.918 -19.852 -21.815  0.00  0.00    +0.152 C 
ATOM     17  C   UNL     1      36.114 -19.203 -22.085  0.00  0.00    +0.175 C 
ATOM     18  C   UNL     1      37.258 -19.292 -21.302  0.00  0.00    +0.040 C 
ATOM     19  C   UNL     1      34.658 -18.741 -23.588  0.00  0.00    +0.341 C 
ATOM     20  H   UNL     1      34.842 -17.550 -25.225  0.00  0.00    +0.148 HD
ATOM     21  H   UNL     1      33.310 -18.275 -25.036  0.00  0.00    +0.148 HD
ENDBRANCH   5  13
BRANCH   3  29
ATOM     22  O   UNL     1      29.139 -25.141 -14.682  0.00  0.00    -0.350 OA
ATOM     23  O   UNL     1      31.967 -22.816 -18.013  0.00  0.00    -0.268 OA
ATOM     24  N   UNL     1      31.143 -23.661 -15.997  0.00  0.00    -0.270 N 
ATOM     25  C   UNL     1      29.739 -23.531 -16.386  0.00  0.00    +0.126 C 
ATOM     26  C   UNL     1      31.349 -24.139 -14.624  0.00  0.00    +0.126 C 
ATOM     27  C   UNL     1      30.512 -25.386 -14.369  0.00  0.00    +0.164 C 
ATOM     28  C   UNL     1      28.979 -24.809 -16.064  0.00  0.00    +0.164 C 
ATOM     29  C   UNL     1      32.147 -23.274 -16.886  0.00  0.00    +0.265 C 
ENDBRANCH   3  29
TORSDOF 2
ENDMDL
MODEL 6
REMARK VINA RESULT:      -8.7      9.991     15.711
REMARK  Name = 70798655
REMARK  2 active torsions:
REMARK  status: ('A' for Active; 'I' for Inactive)
REMARK    1  A    between atoms: C_3  and  C_29
REMARK    2  A    between atoms: C_5  and  C_13
REMARK                            x       y       z     vdW  Elec       q    Type
REMARK                         _______ _______ _______ _____ _____    ______ ____
ROOT
ATOM      1  N   UNL     1      32.710  -9.640 -22.120  0.00  0.00    -0.245 N 
ATOM      2  N   UNL     1      31.482  -8.372 -20.747  0.00  0.00    -0.227 NA
ATOM      3  C   UNL     1      33.058  -8.338 -22.377  0.00  0.00    +0.130 C 
ATOM      4  C   UNL     1      31.746  -9.608 -21.119  0.00  0.00    +0.139 C 
ATOM      5  C   UNL     1      32.698 -12.004 -22.297  0.00  0.00    +0.012 C 
ATOM      6  C   UNL     1      33.184 -10.811 -22.704  0.00  0.00    +0.071 C 
ATOM      7  C   UNL     1      32.291  -7.581 -21.523  0.00  0.00    +0.120 C 
ATOM      8  C   UNL     1      31.230 -10.859 -20.682  0.00  0.00    +0.035 C 
ATOM      9  C   UNL     1      31.681 -12.000 -21.239  0.00  0.00    +0.004 C 
ENDROOT
BRANCH   5  13
ATOM     10  O   UNL     1      34.708 -16.714 -24.452  0.00  0.00    -0.414 OA
ATOM     11  N   UNL     1      35.199 -16.340 -22.271  0.00  0.00    -0.356 NA
ATOM     12  N   UNL     1      35.971 -18.320 -23.400  0.00  0.00    -0.302 N 
ATOM     13  C   UNL     1      33.210 -13.243 -22.915  0.00  0.00    -0.014 C 
ATOM     14  C   UNL     1      33.971 -14.132 -22.142  0.00  0.00    +0.089 C 
ATOM     15  C   UNL     1      32.927 -13.509 -24.261  0.00  0.00    -0.001 C 
ATOM     16  C   UNL     1      34.444 -15.300 -22.756  0.00  0.00    +0.152 C 
ATOM     17  C   UNL     1      34.142 -15.525 -24.092  0.00  0.00    +0.175 C 
ATOM     18  C   UNL     1      33.391 -14.670 -24.888  0.00  0.00    +0.040 C 
ATOM     19  C   UNL     1      35.320 -17.137 -23.311  0.00  0.00    +0.341 C 
ATOM     20  H   UNL     1      35.979 -18.814 -24.252  0.00  0.00    +0.148 HD
ATOM     21  H   UNL     1      36.436 -18.686 -22.614  0.00  0.00    +0.148 HD
ENDBRANCH   5  13
BRANCH   3  29
ATOM     22  O   UNL     1      33.283  -4.422 -25.566  0.00  0.00    -0.350 OA
ATOM     23  O   UNL     1      34.932  -8.682 -23.658  0.00  0.00    -0.268 OA
ATOM     24  N   UNL     1      33.912  -6.592 -23.883  0.00  0.00    -0.270 N 
ATOM     25  C   UNL     1      34.879  -6.099 -24.861  0.00  0.00    +0.126 C 
ATOM     26  C   UNL     1      32.899  -5.607 -23.481  0.00  0.00    +0.126 C 
ATOM     27  C   UNL     1      32.272  -4.966 -24.712  0.00  0.00    +0.164 C 
ATOM     28  C   UNL     1      34.163  -5.448 -26.034  0.00  0.00    +0.164 C 
ATOM     29  C   UNL     1      34.045  -7.882 -23.364  0.00  0.00    +0.265 C 
ENDBRANCH   3  29
TORSDOF 2
ENDMDL
MODEL 7
REMARK VINA RESULT:      -8.6      1.374      1.969
REMARK  Name = 70798655
REMARK  2 active torsions:
REMARK  status: ('A' for Active; 'I' for Inactive)
REMARK    1  A    between atoms: C_3  and  C_29
REMARK    2  A    between atoms: C_5  and  C_13
REMARK                            x       y       z     vdW  Elec       q    Type
REMARK                         _______ _______ _______ _____ _____    ______ ____
ROOT
ATOM      1  N   UNL     1      33.395 -24.085 -15.979  0.00  0.00    -0.245 N 
ATOM      2  N   UNL     1      31.705 -24.702 -14.651  0.00  0.00    -0.227 NA
ATOM      3  C   UNL     1      33.926 -24.936 -15.044  0.00  0.00    +0.130 C 
ATOM      4  C   UNL     1      32.038 -23.975 -15.698  0.00  0.00    +0.139 C 
ATOM      5  C   UNL     1      33.303 -22.623 -17.844  0.00  0.00    +0.012 C 
ATOM      6  C   UNL     1      34.024 -23.426 -17.031  0.00  0.00    +0.071 C 
ATOM      7  C   UNL     1      32.871 -25.299 -14.241  0.00  0.00    +0.120 C 
ATOM      8  C   UNL     1      31.269 -23.134 -16.550  0.00  0.00    +0.035 C 
ATOM      9  C   UNL     1      31.868 -22.491 -17.571  0.00  0.00    +0.004 C 
ENDROOT
BRANCH   5  13
ATOM     10  O   UNL     1      35.662 -19.960 -22.112  0.00  0.00    -0.414 OA
ATOM     11  N   UNL     1      33.409 -19.766 -21.953  0.00  0.00    -0.356 NA
ATOM     12  N   UNL     1      34.630 -18.691 -23.726  0.00  0.00    -0.302 N 
ATOM     13  C   UNL     1      33.976 -21.933 -18.962  0.00  0.00    -0.014 C 
ATOM     14  C   UNL     1      33.209 -21.192 -19.873  0.00  0.00    +0.089 C 
ATOM     15  C   UNL     1      35.368 -22.030 -19.094  0.00  0.00    -0.001 C 
ATOM     16  C   UNL     1      33.876 -20.547 -20.925  0.00  0.00    +0.152 C 
ATOM     17  C   UNL     1      35.255 -20.669 -21.019  0.00  0.00    +0.175 C 
ATOM     18  C   UNL     1      36.048 -21.392 -20.137  0.00  0.00    +0.040 C 
ATOM     19  C   UNL     1      34.502 -19.451 -22.614  0.00  0.00    +0.341 C 
ATOM     20  H   UNL     1      35.521 -18.538 -24.117  0.00  0.00    +0.148 HD
ATOM     21  H   UNL     1      33.834 -18.292 -24.143  0.00  0.00    +0.148 HD
ENDBRANCH   5  13
BRANCH   3  29
ATOM     22  O   UNL     1      38.337 -22.498 -15.426  0.00  0.00    -0.350 OA
ATOM     23  O   UNL     1      35.547 -26.561 -14.968  0.00  0.00    -0.268 OA
ATOM     24  N   UNL     1      36.305 -24.355 -14.829  0.00  0.00    -0.270 N 
ATOM     25  C   UNL     1      37.715 -24.727 -14.720  0.00  0.00    +0.126 C 
ATOM     26  C   UNL     1      36.049 -22.913 -14.728  0.00  0.00    +0.126 C 
ATOM     27  C   UNL     1      36.972 -22.147 -15.667  0.00  0.00    +0.164 C 
ATOM     28  C   UNL     1      38.559 -23.890 -15.669  0.00  0.00    +0.164 C 
ATOM     29  C   UNL     1      35.332 -25.350 -14.946  0.00  0.00    +0.265 C 
ENDBRANCH   3  29
TORSDOF 2
ENDMDL
MODEL 8
REMARK VINA RESULT:      -8.6      1.858      2.702
REMARK  Name = 70798655
REMARK  2 active torsions:
REMARK  status: ('A' for Active; 'I' for Inactive)
REMARK    1  A    between atoms: C_3  and  C_29
REMARK    2  A    between atoms: C_5  and  C_13
REMARK                            x       y       z     vdW  Elec       q    Type
REMARK                         _______ _______ _______ _____ _____    ______ ____
ROOT
ATOM      1  N   UNL     1      35.640 -24.237 -13.224  0.00  0.00    -0.245 N 
ATOM      2  N   UNL     1      34.727 -25.036 -11.345  0.00  0.00    -0.227 NA
ATOM      3  C   UNL     1      36.678 -24.487 -12.362  0.00  0.00    +0.130 C 
ATOM      4  C   UNL     1      34.472 -24.589 -12.558  0.00  0.00    +0.139 C 
ATOM      5  C   UNL     1      34.516 -23.563 -15.200  0.00  0.00    +0.012 C 
ATOM      6  C   UNL     1      35.672 -23.733 -14.521  0.00  0.00    +0.071 C 
ATOM      7  C   UNL     1      36.092 -24.975 -11.218  0.00  0.00    +0.120 C 
ATOM      8  C   UNL     1      33.250 -24.415 -13.265  0.00  0.00    +0.035 C 
ATOM      9  C   UNL     1      33.268 -23.928 -14.521  0.00  0.00    +0.004 C 
ENDROOT
BRANCH   5  13
ATOM     10  O   UNL     1      34.856 -21.518 -20.355  0.00  0.00    -0.414 OA
ATOM     11  N   UNL     1      36.706 -21.263 -19.069  0.00  0.00    -0.356 NA
ATOM     12  N   UNL     1      36.641 -20.451 -21.333  0.00  0.00    -0.302 N 
ATOM     13  C   UNL     1      34.558 -23.035 -16.577  0.00  0.00    -0.014 C 
ATOM     14  C   UNL     1      35.724 -22.405 -17.037  0.00  0.00    +0.089 C 
ATOM     15  C   UNL     1      33.434 -23.174 -17.403  0.00  0.00    -0.001 C 
ATOM     16  C   UNL     1      35.734 -21.914 -18.350  0.00  0.00    +0.152 C 
ATOM     17  C   UNL     1      34.599 -22.072 -19.134  0.00  0.00    +0.175 C 
ATOM     18  C   UNL     1      33.428 -22.690 -18.716  0.00  0.00    +0.040 C 
ATOM     19  C   UNL     1      36.133 -21.058 -20.236  0.00  0.00    +0.341 C 
ATOM     20  H   UNL     1      36.092 -20.366 -22.147  0.00  0.00    +0.148 HD
ATOM     21  H   UNL     1      37.557 -20.094 -21.318  0.00  0.00    +0.148 HD
ENDBRANCH   5  13
BRANCH   3  29
ATOM     22  O   UNL     1      40.169 -26.986 -15.029  0.00  0.00    -0.350 OA
ATOM     23  O   UNL     1      38.668 -23.420 -11.942  0.00  0.00    -0.268 OA
ATOM     24  N   UNL     1      38.705 -25.015 -13.649  0.00  0.00    -0.270 N 
ATOM     25  C   UNL     1      40.120 -24.818 -13.957  0.00  0.00    +0.126 C 
ATOM     26  C   UNL     1      38.021 -25.972 -14.528  0.00  0.00    +0.126 C 
ATOM     27  C   UNL     1      38.825 -27.262 -14.628  0.00  0.00    +0.164 C 
ATOM     28  C   UNL     1      40.831 -26.158 -14.069  0.00  0.00    +0.164 C 
ATOM     29  C   UNL     1      38.104 -24.266 -12.635  0.00  0.00    +0.265 C 
ENDBRANCH   3  29
TORSDOF 2
ENDMDL
MODEL 9
REMARK VINA RESULT:      -8.4     12.009     16.216
REMARK  Name = 70798655
REMARK  2 active torsions:
REMARK  status: ('A' for Active; 'I' for Inactive)
REMARK    1  A    between atoms: C_3  and  C_29
REMARK    2  A    between atoms: C_5  and  C_13
REMARK                            x       y       z     vdW  Elec       q    Type
REMARK                         _______ _______ _______ _____ _____    ______ ____
ROOT
ATOM      1  N   UNL     1      32.374  -9.485 -21.667  0.00  0.00    -0.245 N 
ATOM      2  N   UNL     1      31.709 -10.133 -19.634  0.00  0.00    -0.227 NA
ATOM      3  C   UNL     1      32.313 -10.855 -21.696  0.00  0.00    +0.130 C 
ATOM      4  C   UNL     1      31.996  -9.093 -20.389  0.00  0.00    +0.139 C 
ATOM      5  C   UNL     1      32.726  -7.267 -22.431  0.00  0.00    +0.012 C 
ATOM      6  C   UNL     1      32.734  -8.595 -22.677  0.00  0.00    +0.071 C 
ATOM      7  C   UNL     1      31.904 -11.227 -20.438  0.00  0.00    +0.120 C 
ATOM      8  C   UNL     1      31.983  -7.696 -20.120  0.00  0.00    +0.035 C 
ATOM      9  C   UNL     1      32.328  -6.826 -21.090  0.00  0.00    +0.004 C 
ENDROOT
BRANCH   5  13
ATOM     10  O   UNL     1      33.974  -3.637 -26.448  0.00  0.00    -0.414 OA
ATOM     11  N   UNL     1      32.048  -3.237 -25.321  0.00  0.00    -0.356 NA
ATOM     12  N   UNL     1      32.776  -1.787 -27.098  0.00  0.00    -0.302 N 
ATOM     13  C   UNL     1      33.100  -6.330 -23.508  0.00  0.00    -0.014 C 
ATOM     14  C   UNL     1      32.264  -5.241 -23.792  0.00  0.00    +0.089 C 
ATOM     15  C   UNL     1      34.284  -6.544 -24.227  0.00  0.00    -0.001 C 
ATOM     16  C   UNL     1      32.646  -4.367 -24.820  0.00  0.00    +0.152 C 
ATOM     17  C   UNL     1      33.825  -4.616 -25.508  0.00  0.00    +0.175 C 
ATOM     18  C   UNL     1      34.679  -5.682 -25.255  0.00  0.00    +0.040 C 
ATOM     19  C   UNL     1      32.873  -2.854 -26.271  0.00  0.00    +0.341 C 
ATOM     20  H   UNL     1      33.476  -1.621 -27.771  0.00  0.00    +0.148 HD
ATOM     21  H   UNL     1      32.006  -1.178 -27.027  0.00  0.00    +0.148 HD
ENDBRANCH   5  13
BRANCH   3  29
ATOM     22  O   UNL     1      34.356 -15.452 -22.190  0.00  0.00    -0.350 OA
ATOM     23  O   UNL     1      32.585 -11.179 -23.954  0.00  0.00    -0.268 OA
ATOM     24  N   UNL     1      32.939 -13.052 -22.603  0.00  0.00    -0.270 N 
ATOM     25  C   UNL     1      33.248 -13.941 -23.722  0.00  0.00    +0.126 C 
ATOM     26  C   UNL     1      32.919 -13.713 -21.292  0.00  0.00    +0.126 C 
ATOM     27  C   UNL     1      34.183 -14.541 -21.101  0.00  0.00    +0.164 C 
ATOM     28  C   UNL     1      34.504 -14.748 -23.427  0.00  0.00    +0.164 C 
ATOM     29  C   UNL     1      32.628 -11.713 -22.846  0.00  0.00    +0.265 C 
ENDBRANCH   3  29
TORSDOF 2
ENDMDL
