MODEL 1
REMARK VINA RESULT:     -11.4      0.000      0.000
REMARK  Name = 11574606
REMARK  6 active torsions:
REMARK  status: ('A' for Active; 'I' for Inactive)
REMARK    1  A    between atoms: C_5  and  O_24
REMARK    2  A    between atoms: C_7  and  N_10
REMARK    3  A    between atoms: N_10  and  C_12
REMARK    4  A    between atoms: C_15  and  S_18
REMARK    5  A    between atoms: S_18  and  N_21
REMARK    6  A    between atoms: O_24  and  C_25
REMARK                            x       y       z     vdW  Elec       q    Type
REMARK                         _______ _______ _______ _____ _____    ______ ____
ROOT
ATOM      1  N   UNL     1      32.782 -23.792 -14.394  0.00  0.00    -0.299 NA
ATOM      2  N   UNL     1      32.059 -23.306 -16.636  0.00  0.00    -0.106 N 
ATOM      3  N   UNL     1      30.914 -22.941 -17.271  0.00  0.00    -0.139 NA
ATOM      4  N   UNL     1      30.530 -23.157 -15.037  0.00  0.00    -0.145 NA
ATOM      5  C   UNL     1      33.946 -24.001 -14.922  0.00  0.00    +0.291 C 
ATOM      6  C   UNL     1      34.325 -23.897 -16.348  0.00  0.00    +0.105 C 
ATOM      7  C   UNL     1      33.331 -23.540 -17.179  0.00  0.00    +0.142 C 
ATOM      8  C   UNL     1      31.798 -23.432 -15.266  0.00  0.00    +0.178 C 
ATOM      9  C   UNL     1      30.043 -22.867 -16.270  0.00  0.00    +0.230 C 
ENDROOT
BRANCH   7  10
ATOM     10  N   UNL     1      33.480 -23.389 -18.529  0.00  0.00    -0.299 N 
ATOM     11  H   UNL     1      33.132 -24.124 -19.083  0.00  0.00    +0.153 HD
BRANCH  10  12
ATOM     12  C   UNL     1      34.064 -22.325 -19.224  0.00  0.00    +0.049 C 
ATOM     13  C   UNL     1      35.455 -22.167 -19.241  0.00  0.00    +0.016 C 
ATOM     14  C   UNL     1      33.264 -21.404 -19.914  0.00  0.00    +0.016 C 
ATOM     15  C   UNL     1      35.233 -20.194 -20.618  0.00  0.00    +0.122 C 
ATOM     16  C   UNL     1      36.038 -21.106 -19.935  0.00  0.00    +0.021 C 
ATOM     17  C   UNL     1      33.846 -20.344 -20.606  0.00  0.00    +0.021 C 
BRANCH  15  18
ATOM     18  S   UNL     1      35.960 -18.866 -21.485  0.00  0.00    +0.057 S 
ATOM     19  O   UNL     1      35.737 -19.071 -22.911  0.00  0.00    -0.153 OA
ATOM     20  O   UNL     1      35.542 -17.619 -20.860  0.00  0.00    -0.153 OA
BRANCH  18  21
ATOM     21  N   UNL     1      37.615 -19.121 -21.144  0.00  0.00    -0.203 NA
ATOM     22  H   UNL     1      38.182 -18.519 -21.742  0.00  0.00    +0.144 HD
ATOM     23  H   UNL     1      37.852 -20.097 -21.323  0.00  0.00    +0.144 HD
ENDBRANCH  18  21
ENDBRANCH  15  18
ENDBRANCH  10  12
ENDBRANCH   7  10
BRANCH   5  24
ATOM     24  O   UNL     1      34.989 -24.364 -14.138  0.00  0.00    -0.455 OA
BRANCH  24  25
ATOM     25  C   UNL     1      36.221 -24.345 -14.857  0.00  0.00    +0.169 C 
ATOM     26  C   UNL     1      37.181 -23.344 -14.212  0.00  0.00    +0.044 C 
ATOM     27  C   UNL     1      36.804 -25.758 -14.869  0.00  0.00    +0.044 C 
ATOM     28  C   UNL     1      37.635 -23.795 -12.823  0.00  0.00    +0.004 C 
ATOM     29  C   UNL     1      37.261 -26.204 -13.480  0.00  0.00    +0.004 C 
ATOM     30  C   UNL     1      38.226 -25.202 -12.855  0.00  0.00    +0.000 C 
ENDBRANCH  24  25
ENDBRANCH   5  24
TORSDOF 6
ENDMDL
MODEL 2
REMARK VINA RESULT:     -10.9      5.319     10.691
REMARK  Name = 11574606
REMARK  6 active torsions:
REMARK  status: ('A' for Active; 'I' for Inactive)
REMARK    1  A    between atoms: C_5  and  O_24
REMARK    2  A    between atoms: C_7  and  N_10
REMARK    3  A    between atoms: N_10  and  C_12
REMARK    4  A    between atoms: C_15  and  S_18
REMARK    5  A    between atoms: S_18  and  N_21
REMARK    6  A    between atoms: O_24  and  C_25
REMARK                            x       y       z     vdW  Elec       q    Type
REMARK                         _______ _______ _______ _____ _____    ______ ____
ROOT
ATOM      1  N   UNL     1      34.002 -16.326 -24.865  0.00  0.00    -0.299 NA
ATOM      2  N   UNL     1      34.892 -18.396 -24.024  0.00  0.00    -0.106 N 
ATOM      3  N   UNL     1      34.918 -19.705 -24.386  0.00  0.00    -0.139 NA
ATOM      4  N   UNL     1      33.767 -18.493 -25.932  0.00  0.00    -0.145 NA
ATOM      5  C   UNL     1      34.532 -15.787 -23.815  0.00  0.00    +0.291 C 
ATOM      6  C   UNL     1      35.299 -16.457 -22.742  0.00  0.00    +0.105 C 
ATOM      7  C   UNL     1      35.455 -17.783 -22.894  0.00  0.00    +0.142 C 
ATOM      8  C   UNL     1      34.180 -17.672 -24.988  0.00  0.00    +0.178 C 
ATOM      9  C   UNL     1      34.235 -19.700 -25.526  0.00  0.00    +0.230 C 
ENDROOT
BRANCH   7  10
ATOM     10  N   UNL     1      36.131 -18.580 -22.014  0.00  0.00    -0.299 N 
ATOM     11  H   UNL     1      37.095 -18.401 -21.927  0.00  0.00    +0.153 HD
BRANCH  10  12
ATOM     12  C   UNL     1      35.630 -19.618 -21.221  0.00  0.00    +0.049 C 
ATOM     13  C   UNL     1      36.501 -20.453 -20.512  0.00  0.00    +0.016 C 
ATOM     14  C   UNL     1      34.248 -19.834 -21.126  0.00  0.00    +0.016 C 
ATOM     15  C   UNL     1      34.624 -21.697 -19.634  0.00  0.00    +0.122 C 
ATOM     16  C   UNL     1      36.001 -21.488 -19.721  0.00  0.00    +0.021 C 
ATOM     17  C   UNL     1      33.749 -20.869 -20.337  0.00  0.00    +0.021 C 
BRANCH  15  18
ATOM     18  S   UNL     1      33.998 -22.992 -18.646  0.00  0.00    +0.057 S 
ATOM     19  O   UNL     1      33.930 -24.198 -19.460  0.00  0.00    -0.153 OA
ATOM     20  O   UNL     1      34.729 -23.009 -17.387  0.00  0.00    -0.153 OA
BRANCH  18  21
ATOM     21  N   UNL     1      32.409 -22.436 -18.350  0.00  0.00    -0.203 NA
ATOM     22  H   UNL     1      32.367 -22.000 -17.428  0.00  0.00    +0.144 HD
ATOM     23  H   UNL     1      31.762 -23.224 -18.383  0.00  0.00    +0.144 HD
ENDBRANCH  18  21
ENDBRANCH  15  18
ENDBRANCH  10  12
ENDBRANCH   7  10
BRANCH   5  24
ATOM     24  O   UNL     1      34.409 -14.454 -23.603  0.00  0.00    -0.455 OA
BRANCH  24  25
ATOM     25  C   UNL     1      33.183 -13.947 -24.126  0.00  0.00    +0.169 C 
ATOM     26  C   UNL     1      32.369 -13.301 -23.004  0.00  0.00    +0.044 C 
ATOM     27  C   UNL     1      33.501 -12.948 -25.239  0.00  0.00    +0.044 C 
ATOM     28  C   UNL     1      33.033 -12.031 -22.469  0.00  0.00    +0.004 C 
ATOM     29  C   UNL     1      34.160 -11.677 -24.701  0.00  0.00    +0.004 C 
ATOM     30  C   UNL     1      33.331 -11.039 -23.591  0.00  0.00    +0.000 C 
ENDBRANCH  24  25
ENDBRANCH   5  24
TORSDOF 6
ENDMDL
MODEL 3
REMARK VINA RESULT:     -10.0      3.700      7.231
REMARK  Name = 11574606
REMARK  6 active torsions:
REMARK  status: ('A' for Active; 'I' for Inactive)
REMARK    1  A    between atoms: C_5  and  O_24
REMARK    2  A    between atoms: C_7  and  N_10
REMARK    3  A    between atoms: N_10  and  C_12
REMARK    4  A    between atoms: C_15  and  S_18
REMARK    5  A    between atoms: S_18  and  N_21
REMARK    6  A    between atoms: O_24  and  C_25
REMARK                            x       y       z     vdW  Elec       q    Type
REMARK                         _______ _______ _______ _____ _____    ______ ____
ROOT
ATOM      1  N   UNL     1      37.537 -22.787 -16.492  0.00  0.00    -0.299 NA
ATOM      2  N   UNL     1      36.281 -24.108 -14.923  0.00  0.00    -0.106 N 
ATOM      3  N   UNL     1      36.528 -24.981 -13.912  0.00  0.00    -0.139 NA
ATOM      4  N   UNL     1      38.490 -24.250 -14.808  0.00  0.00    -0.145 NA
ATOM      5  C   UNL     1      36.384 -22.390 -16.928  0.00  0.00    +0.291 C 
ATOM      6  C   UNL     1      35.046 -22.785 -16.437  0.00  0.00    +0.105 C 
ATOM      7  C   UNL     1      35.046 -23.660 -15.417  0.00  0.00    +0.142 C 
ATOM      8  C   UNL     1      37.500 -23.673 -15.457  0.00  0.00    +0.178 C 
ATOM      9  C   UNL     1      37.857 -25.024 -13.891  0.00  0.00    +0.230 C 
ENDROOT
BRANCH   7  10
ATOM     10  N   UNL     1      33.915 -24.146 -14.825  0.00  0.00    -0.299 N 
ATOM     11  H   UNL     1      34.056 -24.732 -14.047  0.00  0.00    +0.153 HD
BRANCH  10  12
ATOM     12  C   UNL     1      32.582 -23.918 -15.183  0.00  0.00    +0.049 C 
ATOM     13  C   UNL     1      31.558 -24.071 -14.241  0.00  0.00    +0.016 C 
ATOM     14  C   UNL     1      32.255 -23.533 -16.491  0.00  0.00    +0.016 C 
ATOM     15  C   UNL     1      29.912 -23.462 -15.902  0.00  0.00    +0.122 C 
ATOM     16  C   UNL     1      30.228 -23.844 -14.598  0.00  0.00    +0.021 C 
ATOM     17  C   UNL     1      30.926 -23.307 -16.848  0.00  0.00    +0.021 C 
BRANCH  15  18
ATOM     18  S   UNL     1      28.250 -23.179 -16.351  0.00  0.00    +0.057 S 
ATOM     19  O   UNL     1      27.440 -23.180 -15.139  0.00  0.00    -0.153 OA
ATOM     20  O   UNL     1      28.201 -22.036 -17.251  0.00  0.00    -0.153 OA
BRANCH  18  21
ATOM     21  N   UNL     1      27.907 -24.595 -17.244  0.00  0.00    -0.203 NA
ATOM     22  H   UNL     1      27.041 -24.466 -17.768  0.00  0.00    +0.144 HD
ATOM     23  H   UNL     1      27.803 -25.383 -16.605  0.00  0.00    +0.144 HD
ENDBRANCH  18  21
ENDBRANCH  15  18
ENDBRANCH  10  12
ENDBRANCH   7  10
BRANCH   5  24
ATOM     24  O   UNL     1      36.315 -21.508 -17.954  0.00  0.00    -0.455 OA
BRANCH  24  25
ATOM     25  C   UNL     1      36.230 -22.172 -19.214  0.00  0.00    +0.169 C 
ATOM     26  C   UNL     1      34.773 -22.529 -19.513  0.00  0.00    +0.044 C 
ATOM     27  C   UNL     1      36.819 -21.260 -20.290  0.00  0.00    +0.044 C 
ATOM     28  C   UNL     1      33.914 -21.286 -19.753  0.00  0.00    +0.004 C 
ATOM     29  C   UNL     1      35.956 -20.021 -20.531  0.00  0.00    +0.004 C 
ATOM     30  C   UNL     1      34.509 -20.393 -20.838  0.00  0.00    +0.000 C 
ENDBRANCH  24  25
ENDBRANCH   5  24
TORSDOF 6
ENDMDL
MODEL 4
REMARK VINA RESULT:      -9.8      3.745      7.458
REMARK  Name = 11574606
REMARK  6 active torsions:
REMARK  status: ('A' for Active; 'I' for Inactive)
REMARK    1  A    between atoms: C_5  and  O_24
REMARK    2  A    between atoms: C_7  and  N_10
REMARK    3  A    between atoms: N_10  and  C_12
REMARK    4  A    between atoms: C_15  and  S_18
REMARK    5  A    between atoms: S_18  and  N_21
REMARK    6  A    between atoms: O_24  and  C_25
REMARK                            x       y       z     vdW  Elec       q    Type
REMARK                         _______ _______ _______ _____ _____    ______ ____
ROOT
ATOM      1  N   UNL     1      32.636 -22.241 -19.154  0.00  0.00    -0.299 NA
ATOM      2  N   UNL     1      34.981 -21.897 -18.742  0.00  0.00    -0.106 N 
ATOM      3  N   UNL     1      36.025 -21.253 -19.326  0.00  0.00    -0.139 NA
ATOM      4  N   UNL     1      34.134 -20.949 -20.559  0.00  0.00    -0.145 NA
ATOM      5  C   UNL     1      32.649 -22.938 -18.063  0.00  0.00    +0.291 C 
ATOM      6  C   UNL     1      33.801 -23.210 -17.176  0.00  0.00    +0.105 C 
ATOM      7  C   UNL     1      34.964 -22.659 -17.565  0.00  0.00    +0.142 C 
ATOM      8  C   UNL     1      33.832 -21.697 -19.517  0.00  0.00    +0.178 C 
ATOM      9  C   UNL     1      35.460 -20.708 -20.399  0.00  0.00    +0.230 C 
ENDROOT
BRANCH   7  10
ATOM     10  N   UNL     1      36.140 -22.793 -16.882  0.00  0.00    -0.299 N 
ATOM     11  H   UNL     1      36.935 -22.409 -17.317  0.00  0.00    +0.153 HD
BRANCH  10  12
ATOM     12  C   UNL     1      36.360 -23.408 -15.645  0.00  0.00    +0.049 C 
ATOM     13  C   UNL     1      37.585 -24.028 -15.368  0.00  0.00    +0.016 C 
ATOM     14  C   UNL     1      35.357 -23.410 -14.666  0.00  0.00    +0.016 C 
ATOM     15  C   UNL     1      36.799 -24.639 -13.166  0.00  0.00    +0.122 C 
ATOM     16  C   UNL     1      37.804 -24.641 -14.134  0.00  0.00    +0.021 C 
ATOM     17  C   UNL     1      35.576 -24.023 -13.433  0.00  0.00    +0.021 C 
BRANCH  15  18
ATOM     18  S   UNL     1      37.072 -25.406 -11.622  0.00  0.00    +0.057 S 
ATOM     19  O   UNL     1      37.251 -26.835 -11.845  0.00  0.00    -0.153 OA
ATOM     20  O   UNL     1      38.091 -24.653 -10.904  0.00  0.00    -0.153 OA
BRANCH  18  21
ATOM     21  N   UNL     1      35.564 -25.151 -10.861  0.00  0.00    -0.203 NA
ATOM     22  H   UNL     1      35.344 -25.951 -10.266  0.00  0.00    +0.144 HD
ATOM     23  H   UNL     1      34.838 -25.046 -11.570  0.00  0.00    +0.144 HD
ENDBRANCH  18  21
ENDBRANCH  15  18
ENDBRANCH  10  12
ENDBRANCH   7  10
BRANCH   5  24
ATOM     24  O   UNL     1      31.509 -23.520 -17.618  0.00  0.00    -0.455 OA
BRANCH  24  25
ATOM     25  C   UNL     1      30.950 -22.809 -16.515  0.00  0.00    +0.169 C 
ATOM     26  C   UNL     1      29.423 -22.852 -16.592  0.00  0.00    +0.044 C 
ATOM     27  C   UNL     1      31.466 -23.433 -15.218  0.00  0.00    +0.044 C 
ATOM     28  C   UNL     1      28.875 -24.262 -16.369  0.00  0.00    +0.004 C 
ATOM     29  C   UNL     1      30.913 -24.840 -14.995  0.00  0.00    +0.004 C 
ATOM     30  C   UNL     1      29.389 -24.864 -15.064  0.00  0.00    +0.000 C 
ENDBRANCH  24  25
ENDBRANCH   5  24
TORSDOF 6
ENDMDL
MODEL 5
REMARK VINA RESULT:      -9.7      1.882      5.031
REMARK  Name = 11574606
REMARK  6 active torsions:
REMARK  status: ('A' for Active; 'I' for Inactive)
REMARK    1  A    between atoms: C_5  and  O_24
REMARK    2  A    between atoms: C_7  and  N_10
REMARK    3  A    between atoms: N_10  and  C_12
REMARK    4  A    between atoms: C_15  and  S_18
REMARK    5  A    between atoms: S_18  and  N_21
REMARK    6  A    between atoms: O_24  and  C_25
REMARK                            x       y       z     vdW  Elec       q    Type
REMARK                         _______ _______ _______ _____ _____    ______ ____
ROOT
ATOM      1  N   UNL     1      32.246 -23.567 -15.395  0.00  0.00    -0.299 NA
ATOM      2  N   UNL     1      34.438 -23.588 -16.384  0.00  0.00    -0.106 N 
ATOM      3  N   UNL     1      35.711 -23.885 -16.013  0.00  0.00    -0.139 NA
ATOM      4  N   UNL     1      34.293 -24.207 -14.260  0.00  0.00    -0.145 NA
ATOM      5  C   UNL     1      31.836 -23.159 -16.553  0.00  0.00    +0.291 C 
ATOM      6  C   UNL     1      32.648 -22.911 -17.764  0.00  0.00    +0.105 C 
ATOM      7  C   UNL     1      33.964 -23.144 -17.628  0.00  0.00    +0.142 C 
ATOM      8  C   UNL     1      33.586 -23.794 -15.292  0.00  0.00    +0.178 C 
ATOM      9  C   UNL     1      35.561 -24.247 -14.742  0.00  0.00    +0.230 C 
ENDROOT
BRANCH   7  10
ATOM     10  N   UNL     1      34.879 -22.976 -18.629  0.00  0.00    -0.299 N 
ATOM     11  H   UNL     1      35.489 -23.733 -18.784  0.00  0.00    +0.153 HD
BRANCH  10  12
ATOM     12  C   UNL     1      35.061 -21.866 -19.461  0.00  0.00    +0.049 C 
ATOM     13  C   UNL     1      36.341 -21.343 -19.677  0.00  0.00    +0.016 C 
ATOM     14  C   UNL     1      33.962 -21.265 -20.090  0.00  0.00    +0.016 C 
ATOM     15  C   UNL     1      35.423 -19.643 -21.128  0.00  0.00    +0.122 C 
ATOM     16  C   UNL     1      36.522 -20.236 -20.507  0.00  0.00    +0.021 C 
ATOM     17  C   UNL     1      34.143 -20.158 -20.919  0.00  0.00    +0.021 C 
BRANCH  15  18
ATOM     18  S   UNL     1      35.648 -18.258 -22.166  0.00  0.00    +0.057 S 
ATOM     19  O   UNL     1      34.923 -18.492 -23.408  0.00  0.00    -0.153 OA
ATOM     20  O   UNL     1      35.387 -17.052 -21.392  0.00  0.00    -0.153 OA
BRANCH  18  21
ATOM     21  N   UNL     1      37.325 -18.356 -22.480  0.00  0.00    -0.203 NA
ATOM     22  H   UNL     1      37.805 -18.720 -21.656  0.00  0.00    +0.144 HD
ATOM     23  H   UNL     1      37.684 -17.427 -22.700  0.00  0.00    +0.144 HD
ENDBRANCH  18  21
ENDBRANCH  15  18
ENDBRANCH  10  12
ENDBRANCH   7  10
BRANCH   5  24
ATOM     24  O   UNL     1      30.521 -22.906 -16.755  0.00  0.00    -0.455 OA
BRANCH  24  25
ATOM     25  C   UNL     1      29.694 -23.907 -16.164  0.00  0.00    +0.169 C 
ATOM     26  C   UNL     1      29.157 -23.408 -14.822  0.00  0.00    +0.044 C 
ATOM     27  C   UNL     1      28.561 -24.243 -17.135  0.00  0.00    +0.044 C 
ATOM     28  C   UNL     1      28.175 -22.248 -14.990  0.00  0.00    +0.004 C 
ATOM     29  C   UNL     1      27.579 -23.083 -17.297  0.00  0.00    +0.004 C 
ATOM     30  C   UNL     1      27.044 -22.604 -15.952  0.00  0.00    +0.000 C 
ENDBRANCH  24  25
ENDBRANCH   5  24
TORSDOF 6
ENDMDL
MODEL 6
REMARK VINA RESULT:      -9.7      3.392      6.963
REMARK  Name = 11574606
REMARK  6 active torsions:
REMARK  status: ('A' for Active; 'I' for Inactive)
REMARK    1  A    between atoms: C_5  and  O_24
REMARK    2  A    between atoms: C_7  and  N_10
REMARK    3  A    between atoms: N_10  and  C_12
REMARK    4  A    between atoms: C_15  and  S_18
REMARK    5  A    between atoms: S_18  and  N_21
REMARK    6  A    between atoms: O_24  and  C_25
REMARK                            x       y       z     vdW  Elec       q    Type
REMARK                         _______ _______ _______ _____ _____    ______ ____
ROOT
ATOM      1  N   UNL     1      31.796 -23.189 -16.793  0.00  0.00    -0.299 NA
ATOM      2  N   UNL     1      32.320 -24.679 -14.979  0.00  0.00    -0.106 N 
ATOM      3  N   UNL     1      31.657 -25.501 -14.123  0.00  0.00    -0.139 NA
ATOM      4  N   UNL     1      30.181 -24.488 -15.531  0.00  0.00    -0.145 NA
ATOM      5  C   UNL     1      33.071 -22.972 -16.851  0.00  0.00    +0.291 C 
ATOM      6  C   UNL     1      34.129 -23.562 -16.001  0.00  0.00    +0.105 C 
ATOM      7  C   UNL     1      33.697 -24.424 -15.065  0.00  0.00    +0.142 C 
ATOM      8  C   UNL     1      31.393 -24.069 -15.832  0.00  0.00    +0.178 C 
ATOM      9  C   UNL     1      30.392 -25.345 -14.501  0.00  0.00    +0.230 C 
ENDROOT
BRANCH   7  10
ATOM     10  N   UNL     1      34.516 -25.072 -14.185  0.00  0.00    -0.299 N 
ATOM     11  H   UNL     1      34.076 -25.457 -13.393  0.00  0.00    +0.153 HD
BRANCH  10  12
ATOM     12  C   UNL     1      35.900 -25.259 -14.264  0.00  0.00    +0.049 C 
ATOM     13  C   UNL     1      36.773 -24.393 -13.594  0.00  0.00    +0.016 C 
ATOM     14  C   UNL     1      36.431 -26.316 -15.015  0.00  0.00    +0.016 C 
ATOM     15  C   UNL     1      38.672 -25.634 -14.424  0.00  0.00    +0.122 C 
ATOM     16  C   UNL     1      38.153 -24.580 -13.673  0.00  0.00    +0.021 C 
ATOM     17  C   UNL     1      37.811 -26.502 -15.095  0.00  0.00    +0.021 C 
BRANCH  15  18
ATOM     18  S   UNL     1      40.399 -25.868 -14.524  0.00  0.00    +0.057 S 
ATOM     19  O   UNL     1      41.053 -24.608 -14.196  0.00  0.00    -0.153 OA
ATOM     20  O   UNL     1      40.747 -27.076 -13.789  0.00  0.00    -0.153 OA
BRANCH  18  21
ATOM     21  N   UNL     1      40.590 -26.169 -16.195  0.00  0.00    -0.203 NA
ATOM     22  H   UNL     1      41.396 -25.649 -16.544  0.00  0.00    +0.144 HD
ATOM     23  H   UNL     1      39.752 -25.870 -16.693  0.00  0.00    +0.144 HD
ENDBRANCH  18  21
ENDBRANCH  15  18
ENDBRANCH  10  12
ENDBRANCH   7  10
BRANCH   5  24
ATOM     24  O   UNL     1      33.571 -22.113 -17.772  0.00  0.00    -0.455 OA
BRANCH  24  25
ATOM     25  C   UNL     1      33.623 -22.703 -19.069  0.00  0.00    +0.169 C 
ATOM     26  C   UNL     1      32.803 -21.865 -20.052  0.00  0.00    +0.044 C 
ATOM     27  C   UNL     1      35.085 -22.809 -19.502  0.00  0.00    +0.044 C 
ATOM     28  C   UNL     1      33.433 -20.494 -20.303  0.00  0.00    +0.004 C 
ATOM     29  C   UNL     1      35.711 -21.438 -19.758  0.00  0.00    +0.004 C 
ATOM     30  C   UNL     1      34.888 -20.618 -20.747  0.00  0.00    +0.000 C 
ENDBRANCH  24  25
ENDBRANCH   5  24
TORSDOF 6
ENDMDL
MODEL 7
REMARK VINA RESULT:      -9.5      3.212      8.201
REMARK  Name = 11574606
REMARK  6 active torsions:
REMARK  status: ('A' for Active; 'I' for Inactive)
REMARK    1  A    between atoms: C_5  and  O_24
REMARK    2  A    between atoms: C_7  and  N_10
REMARK    3  A    between atoms: N_10  and  C_12
REMARK    4  A    between atoms: C_15  and  S_18
REMARK    5  A    between atoms: S_18  and  N_21
REMARK    6  A    between atoms: O_24  and  C_25
REMARK                            x       y       z     vdW  Elec       q    Type
REMARK                         _______ _______ _______ _____ _____    ______ ____
ROOT
ATOM      1  N   UNL     1      34.133 -21.848 -19.599  0.00  0.00    -0.299 NA
ATOM      2  N   UNL     1      35.034 -22.808 -17.586  0.00  0.00    -0.106 N 
ATOM      3  N   UNL     1      34.591 -23.543 -16.532  0.00  0.00    -0.139 NA
ATOM      4  N   UNL     1      32.874 -23.131 -17.970  0.00  0.00    -0.145 NA
ATOM      5  C   UNL     1      35.335 -21.417 -19.812  0.00  0.00    +0.291 C 
ATOM      6  C   UNL     1      36.531 -21.614 -18.964  0.00  0.00    +0.105 C 
ATOM      7  C   UNL     1      36.326 -22.328 -17.844  0.00  0.00    +0.142 C 
ATOM      8  C   UNL     1      33.962 -22.568 -18.455  0.00  0.00    +0.178 C 
ATOM      9  C   UNL     1      33.303 -23.703 -16.817  0.00  0.00    +0.230 C 
ENDROOT
BRANCH   7  10
ATOM     10  N   UNL     1      37.302 -22.618 -16.933  0.00  0.00    -0.299 N 
ATOM     11  H   UNL     1      38.218 -22.361 -17.188  0.00  0.00    +0.153 HD
BRANCH  10  12
ATOM     12  C   UNL     1      37.168 -23.235 -15.684  0.00  0.00    +0.049 C 
ATOM     13  C   UNL     1      37.554 -24.569 -15.507  0.00  0.00    +0.016 C 
ATOM     14  C   UNL     1      36.647 -22.524 -14.595  0.00  0.00    +0.016 C 
ATOM     15  C   UNL     1      36.899 -24.468 -13.183  0.00  0.00    +0.122 C 
ATOM     16  C   UNL     1      37.420 -25.183 -14.261  0.00  0.00    +0.021 C 
ATOM     17  C   UNL     1      36.513 -23.138 -13.351  0.00  0.00    +0.021 C 
BRANCH  15  18
ATOM     18  S   UNL     1      36.731 -25.236 -11.625  0.00  0.00    +0.057 S 
ATOM     19  O   UNL     1      37.140 -26.629 -11.753  0.00  0.00    -0.153 OA
ATOM     20  O   UNL     1      37.357 -24.389 -10.620  0.00  0.00    -0.153 OA
BRANCH  18  21
ATOM     21  N   UNL     1      35.036 -25.177 -11.414  0.00  0.00    -0.203 NA
ATOM     22  H   UNL     1      34.583 -25.102 -12.325  0.00  0.00    +0.144 HD
ATOM     23  H   UNL     1      34.792 -24.366 -10.846  0.00  0.00    +0.144 HD
ENDBRANCH  18  21
ENDBRANCH  15  18
ENDBRANCH  10  12
ENDBRANCH   7  10
BRANCH   5  24
ATOM     24  O   UNL     1      35.607 -20.691 -20.923  0.00  0.00    -0.455 OA
BRANCH  24  25
ATOM     25  C   UNL     1      34.787 -19.527 -21.007  0.00  0.00    +0.169 C 
ATOM     26  C   UNL     1      35.664 -18.275 -21.024  0.00  0.00    +0.044 C 
ATOM     27  C   UNL     1      33.921 -19.626 -22.263  0.00  0.00    +0.044 C 
ATOM     28  C   UNL     1      36.491 -18.170 -22.307  0.00  0.00    +0.004 C 
ATOM     29  C   UNL     1      34.749 -19.516 -23.543  0.00  0.00    +0.004 C 
ATOM     30  C   UNL     1      35.611 -18.258 -23.551  0.00  0.00    +0.000 C 
ENDBRANCH  24  25
ENDBRANCH   5  24
TORSDOF 6
ENDMDL
MODEL 8
REMARK VINA RESULT:      -9.3      2.317      4.560
REMARK  Name = 11574606
REMARK  6 active torsions:
REMARK  status: ('A' for Active; 'I' for Inactive)
REMARK    1  A    between atoms: C_5  and  O_24
REMARK    2  A    between atoms: C_7  and  N_10
REMARK    3  A    between atoms: N_10  and  C_12
REMARK    4  A    between atoms: C_15  and  S_18
REMARK    5  A    between atoms: S_18  and  N_21
REMARK    6  A    between atoms: O_24  and  C_25
REMARK                            x       y       z     vdW  Elec       q    Type
REMARK                         _______ _______ _______ _____ _____    ______ ____
ROOT
ATOM      1  N   UNL     1      33.763 -23.408 -15.383  0.00  0.00    -0.299 NA
ATOM      2  N   UNL     1      35.532 -22.874 -16.923  0.00  0.00    -0.106 N 
ATOM      3  N   UNL     1      36.861 -22.596 -16.877  0.00  0.00    -0.139 NA
ATOM      4  N   UNL     1      36.073 -22.982 -14.775  0.00  0.00    -0.145 NA
ATOM      5  C   UNL     1      33.003 -23.461 -16.430  0.00  0.00    +0.291 C 
ATOM      6  C   UNL     1      33.388 -23.232 -17.840  0.00  0.00    +0.105 C 
ATOM      7  C   UNL     1      34.684 -22.937 -18.038  0.00  0.00    +0.142 C 
ATOM      8  C   UNL     1      35.071 -23.107 -15.621  0.00  0.00    +0.178 C 
ATOM      9  C   UNL     1      37.125 -22.677 -15.576  0.00  0.00    +0.230 C 
ENDROOT
BRANCH   7  10
ATOM     10  N   UNL     1      35.234 -22.694 -19.265  0.00  0.00    -0.299 N 
ATOM     11  H   UNL     1      35.618 -23.474 -19.726  0.00  0.00    +0.153 HD
BRANCH  10  12
ATOM     12  C   UNL     1      35.322 -21.478 -19.951  0.00  0.00    +0.049 C 
ATOM     13  C   UNL     1      36.557 -20.836 -20.101  0.00  0.00    +0.016 C 
ATOM     14  C   UNL     1      34.175 -20.887 -20.497  0.00  0.00    +0.016 C 
ATOM     15  C   UNL     1      35.497 -19.042 -21.324  0.00  0.00    +0.122 C 
ATOM     16  C   UNL     1      36.645 -19.623 -20.785  0.00  0.00    +0.021 C 
ATOM     17  C   UNL     1      34.262 -19.674 -21.179  0.00  0.00    +0.021 C 
BRANCH  15  18
ATOM     18  S   UNL     1      35.606 -17.524 -22.179  0.00  0.00    +0.057 S 
ATOM     19  O   UNL     1      34.980 -16.491 -21.363  0.00  0.00    -0.153 OA
ATOM     20  O   UNL     1      36.975 -17.349 -22.641  0.00  0.00    -0.153 OA
BRANCH  18  21
ATOM     21  N   UNL     1      34.608 -17.839 -23.529  0.00  0.00    -0.203 NA
ATOM     22  H   UNL     1      33.869 -17.136 -23.578  0.00  0.00    +0.144 HD
ATOM     23  H   UNL     1      34.190 -18.764 -23.435  0.00  0.00    +0.144 HD
ENDBRANCH  18  21
ENDBRANCH  15  18
ENDBRANCH  10  12
ENDBRANCH   7  10
BRANCH   5  24
ATOM     24  O   UNL     1      31.687 -23.753 -16.297  0.00  0.00    -0.455 OA
BRANCH  24  25
ATOM     25  C   UNL     1      31.235 -23.554 -14.959  0.00  0.00    +0.169 C 
ATOM     26  C   UNL     1      29.829 -22.950 -14.972  0.00  0.00    +0.044 C 
ATOM     27  C   UNL     1      31.265 -24.895 -14.227  0.00  0.00    +0.044 C 
ATOM     28  C   UNL     1      28.787 -23.929 -15.514  0.00  0.00    +0.004 C 
ATOM     29  C   UNL     1      30.219 -25.870 -14.767  0.00  0.00    +0.004 C 
ATOM     30  C   UNL     1      28.822 -25.258 -14.764  0.00  0.00    +0.000 C 
ENDBRANCH  24  25
ENDBRANCH   5  24
TORSDOF 6
ENDMDL
MODEL 9
REMARK VINA RESULT:      -9.2     10.131     14.202
REMARK  Name = 11574606
REMARK  6 active torsions:
REMARK  status: ('A' for Active; 'I' for Inactive)
REMARK    1  A    between atoms: C_5  and  O_24
REMARK    2  A    between atoms: C_7  and  N_10
REMARK    3  A    between atoms: N_10  and  C_12
REMARK    4  A    between atoms: C_15  and  S_18
REMARK    5  A    between atoms: S_18  and  N_21
REMARK    6  A    between atoms: O_24  and  C_25
REMARK                            x       y       z     vdW  Elec       q    Type
REMARK                         _______ _______ _______ _____ _____    ______ ____
ROOT
ATOM      1  N   UNL     1      31.493 -10.043 -22.236  0.00  0.00    -0.299 NA
ATOM      2  N   UNL     1      32.708 -12.108 -22.437  0.00  0.00    -0.106 N 
ATOM      3  N   UNL     1      32.791 -13.299 -21.787  0.00  0.00    -0.139 NA
ATOM      4  N   UNL     1      31.271 -11.952 -20.756  0.00  0.00    -0.145 NA
ATOM      5  C   UNL     1      32.150  -9.669 -23.287  0.00  0.00    +0.291 C 
ATOM      6  C   UNL     1      33.157 -10.442 -24.046  0.00  0.00    +0.105 C 
ATOM      7  C   UNL     1      33.406 -11.676 -23.575  0.00  0.00    +0.142 C 
ATOM      8  C   UNL     1      31.769 -11.299 -21.786  0.00  0.00    +0.178 C 
ATOM      9  C   UNL     1      31.915 -13.146 -20.799  0.00  0.00    +0.230 C 
ENDROOT
BRANCH   7  10
ATOM     10  N   UNL     1      34.300 -12.543 -24.135  0.00  0.00    -0.299 N 
ATOM     11  H   UNL     1      35.170 -12.159 -24.388  0.00  0.00    +0.153 HD
BRANCH  10  12
ATOM     12  C   UNL     1      34.138 -13.908 -24.398  0.00  0.00    +0.049 C 
ATOM     13  C   UNL     1      33.395 -14.334 -25.506  0.00  0.00    +0.016 C 
ATOM     14  C   UNL     1      34.719 -14.866 -23.556  0.00  0.00    +0.016 C 
ATOM     15  C   UNL     1      33.815 -16.641 -24.924  0.00  0.00    +0.122 C 
ATOM     16  C   UNL     1      33.234 -15.695 -25.768  0.00  0.00    +0.021 C 
ATOM     17  C   UNL     1      34.557 -16.226 -23.818  0.00  0.00    +0.021 C 
BRANCH  15  18
ATOM     18  S   UNL     1      33.613 -18.344 -25.250  0.00  0.00    +0.057 S 
ATOM     19  O   UNL     1      34.578 -18.733 -26.270  0.00  0.00    -0.153 OA
ATOM     20  O   UNL     1      33.574 -19.057 -23.982  0.00  0.00    -0.153 OA
BRANCH  18  21
ATOM     21  N   UNL     1      32.049 -18.360 -25.937  0.00  0.00    -0.203 NA
ATOM     22  H   UNL     1      31.880 -17.477 -26.419  0.00  0.00    +0.144 HD
ATOM     23  H   UNL     1      31.355 -18.483 -25.200  0.00  0.00    +0.144 HD
ENDBRANCH  18  21
ENDBRANCH  15  18
ENDBRANCH  10  12
ENDBRANCH   7  10
BRANCH   5  24
ATOM     24  O   UNL     1      31.946  -8.437 -23.811  0.00  0.00    -0.455 OA
BRANCH  24  25
ATOM     25  C   UNL     1      32.373  -7.408 -22.921  0.00  0.00    +0.169 C 
ATOM     26  C   UNL     1      33.900  -7.323 -22.924  0.00  0.00    +0.044 C 
ATOM     27  C   UNL     1      31.734  -6.088 -23.354  0.00  0.00    +0.044 C 
ATOM     28  C   UNL     1      34.446  -6.827 -24.264  0.00  0.00    +0.004 C 
ATOM     29  C   UNL     1      32.285  -5.593 -24.692  0.00  0.00    +0.004 C 
ATOM     30  C   UNL     1      33.808  -5.503 -24.675  0.00  0.00    +0.000 C 
ENDBRANCH  24  25
ENDBRANCH   5  24
TORSDOF 6
ENDMDL
