MODEL 1
REMARK VINA RESULT:     -11.5      0.000      0.000
REMARK  Name = 46937030
REMARK  7 active torsions:
REMARK  status: ('A' for Active; 'I' for Inactive)
REMARK    1  A    between atoms: C_3  and  C_10
REMARK    2  A    between atoms: C_7  and  C_25
REMARK    3  A    between atoms: N_9  and  C_12
REMARK    4  A    between atoms: C_12  and  C_13
REMARK    5  A    between atoms: C_18  and  C_21
REMARK    6  A    between atoms: C_25  and  N_26
REMARK    7  A    between atoms: N_26  and  C_29
REMARK                            x       y       z     vdW  Elec       q    Type
REMARK                         _______ _______ _______ _____ _____    ______ ____
ROOT
ATOM      1  O   UNL     1      35.534 -25.416 -11.914  0.00  0.00    -0.277 OA
ATOM      2  N   UNL     1      36.202 -24.219 -13.773  0.00  0.00    -0.275 N 
ATOM      3  C   UNL     1      36.034 -23.177 -14.785  0.00  0.00    +0.152 C 
ATOM      4  C   UNL     1      37.457 -22.822 -15.206  0.00  0.00    +0.031 C 
ATOM      5  C   UNL     1      37.572 -24.713 -13.752  0.00  0.00    +0.094 C 
ATOM      6  C   UNL     1      38.226 -24.124 -14.992  0.00  0.00    +0.024 C 
ATOM      7  C   UNL     1      35.277 -24.626 -12.825  0.00  0.00    +0.204 C 
ENDROOT
BRANCH   3  10
ATOM      8  O   UNL     1      35.018 -24.967 -15.995  0.00  0.00    -0.273 OA
ATOM      9  N   UNL     1      34.937 -22.816 -16.882  0.00  0.00    -0.299 N 
ATOM     10  C   UNL     1      35.274 -23.767 -15.934  0.00  0.00    +0.241 C 
ATOM     11  H   UNL     1      35.198 -21.880 -16.721  0.00  0.00    +0.150 HD
BRANCH   9  12
ATOM     12  C   UNL     1      34.221 -23.130 -18.098  0.00  0.00    +0.116 C 
BRANCH  12  13
ATOM     13  C   UNL     1      34.410 -22.075 -19.150  0.00  0.00    -0.003 C 
ATOM     14  C   UNL     1      33.299 -21.484 -19.752  0.00  0.00    -0.003 C 
ATOM     15  C   UNL     1      35.696 -21.686 -19.525  0.00  0.00    -0.003 C 
ATOM     16  C   UNL     1      33.474 -20.504 -20.729  0.00  0.00    +0.002 C 
ATOM     17  C   UNL     1      35.871 -20.706 -20.502  0.00  0.00    +0.002 C 
ATOM     18  C   UNL     1      34.761 -20.115 -21.103  0.00  0.00    +0.031 C 
BRANCH  18  21
ATOM     19  N   UNL     1      34.615 -19.330 -23.455  0.00  0.00    -0.343 N 
ATOM     20  N   UNL     1      35.435 -17.912 -21.789  0.00  0.00    -0.285 NA
ATOM     21  C   UNL     1      34.944 -19.093 -22.121  0.00  0.00    +0.117 C 
ATOM     22  H   UNL     1      34.747 -18.623 -24.127  0.00  0.00    +0.144 HD
ATOM     23  H   UNL     1      34.250 -20.204 -23.724  0.00  0.00    +0.144 HD
ATOM     24  H   UNL     1      35.561 -17.219 -22.477  0.00  0.00    +0.188 HD
ENDBRANCH  18  21
ENDBRANCH  12  13
ENDBRANCH   9  12
ENDBRANCH   3  10
BRANCH   7  25
ATOM     25  C   UNL     1      33.894 -24.042 -12.954  0.00  0.00    +0.006 C 
BRANCH  25  26
ATOM     26  N   UNL     1      33.076 -25.032 -13.636  0.00  0.00    +0.391 N 
ATOM     27  H   UNL     1      33.350 -25.073 -14.619  0.00  0.00    -0.084 HD
ATOM     28  H   UNL     1      33.219 -25.939 -13.193  0.00  0.00    -0.084 HD
BRANCH  26  29
ATOM     29  C   UNL     1      31.656 -24.679 -13.545  0.00  0.00    -0.061 C 
ATOM     30  C   UNL     1      31.453 -23.192 -13.864  0.00  0.00    -0.021 C 
ATOM     31  C   UNL     1      30.841 -25.684 -14.375  0.00  0.00    -0.021 C 
ATOM     32  C   UNL     1      29.363 -25.328 -14.545  0.00  0.00    -0.002 C 
ATOM     33  C   UNL     1      31.829 -22.711 -15.266  0.00  0.00    -0.002 C 
ATOM     34  C   UNL     1      29.001 -24.760 -15.920  0.00  0.00    -0.000 C 
ATOM     35  C   UNL     1      31.050 -23.291 -16.446  0.00  0.00    -0.000 C 
ATOM     36  C   UNL     1      29.535 -23.364 -16.252  0.00  0.00    -0.000 C 
ENDBRANCH  26  29
ENDBRANCH  25  26
ENDBRANCH   7  25
TORSDOF 7
ENDMDL
MODEL 2
REMARK VINA RESULT:      -9.7      2.147      6.496
REMARK  Name = 46937030
REMARK  7 active torsions:
REMARK  status: ('A' for Active; 'I' for Inactive)
REMARK    1  A    between atoms: C_3  and  C_10
REMARK    2  A    between atoms: C_7  and  C_25
REMARK    3  A    between atoms: N_9  and  C_12
REMARK    4  A    between atoms: C_12  and  C_13
REMARK    5  A    between atoms: C_18  and  C_21
REMARK    6  A    between atoms: C_25  and  N_26
REMARK    7  A    between atoms: N_26  and  C_29
REMARK                            x       y       z     vdW  Elec       q    Type
REMARK                         _______ _______ _______ _____ _____    ______ ____
ROOT
ATOM      1  O   UNL     1      38.300 -22.633 -16.158  0.00  0.00    -0.277 OA
ATOM      2  N   UNL     1      37.374 -24.423 -15.030  0.00  0.00    -0.275 N 
ATOM      3  C   UNL     1      36.326 -25.412 -14.785  0.00  0.00    +0.152 C 
ATOM      4  C   UNL     1      37.054 -26.589 -14.144  0.00  0.00    +0.031 C 
ATOM      5  C   UNL     1      38.607 -24.787 -14.343  0.00  0.00    +0.094 C 
ATOM      6  C   UNL     1      38.224 -25.930 -13.418  0.00  0.00    +0.024 C 
ATOM      7  C   UNL     1      37.329 -23.347 -15.902  0.00  0.00    +0.204 C 
ENDROOT
BRANCH   3  10
ATOM      8  O   UNL     1      35.700 -24.179 -12.839  0.00  0.00    -0.273 OA
ATOM      9  N   UNL     1      34.031 -25.085 -14.186  0.00  0.00    -0.299 N 
ATOM     10  C   UNL     1      35.340 -24.813 -13.827  0.00  0.00    +0.241 C 
ATOM     11  H   UNL     1      33.867 -25.606 -15.005  0.00  0.00    +0.150 HD
BRANCH   9  12
ATOM     12  C   UNL     1      32.891 -24.640 -13.416  0.00  0.00    +0.116 C 
BRANCH  12  13
ATOM     13  C   UNL     1      31.688 -24.398 -14.282  0.00  0.00    -0.003 C 
ATOM     14  C   UNL     1      31.735 -23.429 -15.284  0.00  0.00    -0.003 C 
ATOM     15  C   UNL     1      30.525 -25.142 -14.084  0.00  0.00    -0.003 C 
ATOM     16  C   UNL     1      30.618 -23.203 -16.089  0.00  0.00    +0.002 C 
ATOM     17  C   UNL     1      29.408 -24.916 -14.888  0.00  0.00    +0.002 C 
ATOM     18  C   UNL     1      29.455 -23.948 -15.891  0.00  0.00    +0.031 C 
BRANCH  18  21
ATOM     19  N   UNL     1      27.690 -22.458 -16.803  0.00  0.00    -0.343 N 
ATOM     20  N   UNL     1      27.779 -24.705 -17.439  0.00  0.00    -0.285 NA
ATOM     21  C   UNL     1      28.290 -23.714 -16.730  0.00  0.00    +0.117 C 
ATOM     22  H   UNL     1      26.902 -22.322 -17.378  0.00  0.00    +0.144 HD
ATOM     23  H   UNL     1      28.053 -21.708 -16.280  0.00  0.00    +0.144 HD
ATOM     24  H   UNL     1      26.991 -24.548 -18.007  0.00  0.00    +0.188 HD
ENDBRANCH  18  21
ENDBRANCH  12  13
ENDBRANCH   9  12
ENDBRANCH   3  10
BRANCH   7  25
ATOM     25  C   UNL     1      35.995 -23.075 -16.550  0.00  0.00    +0.006 C 
BRANCH  25  26
ATOM     26  N   UNL     1      36.119 -21.815 -17.264  0.00  0.00    +0.391 N 
ATOM     27  H   UNL     1      35.369 -21.188 -16.972  0.00  0.00    -0.084 HD
ATOM     28  H   UNL     1      37.027 -21.402 -17.049  0.00  0.00    -0.084 HD
BRANCH  26  29
ATOM     29  C   UNL     1      36.029 -22.032 -18.712  0.00  0.00    -0.061 C 
ATOM     30  C   UNL     1      34.789 -22.870 -19.051  0.00  0.00    -0.021 C 
ATOM     31  C   UNL     1      36.167 -20.678 -19.426  0.00  0.00    -0.021 C 
ATOM     32  C   UNL     1      35.889 -20.714 -20.930  0.00  0.00    -0.002 C 
ATOM     33  C   UNL     1      33.420 -22.278 -18.714  0.00  0.00    -0.002 C 
ATOM     34  C   UNL     1      34.525 -20.150 -21.337  0.00  0.00    -0.000 C 
ATOM     35  C   UNL     1      33.011 -20.991 -19.431  0.00  0.00    -0.000 C 
ATOM     36  C   UNL     1      33.293 -20.965 -20.933  0.00  0.00    -0.000 C 
ENDBRANCH  26  29
ENDBRANCH  25  26
ENDBRANCH   7  25
TORSDOF 7
ENDMDL
MODEL 3
REMARK VINA RESULT:      -9.0      2.824      5.530
REMARK  Name = 46937030
REMARK  7 active torsions:
REMARK  status: ('A' for Active; 'I' for Inactive)
REMARK    1  A    between atoms: C_3  and  C_10
REMARK    2  A    between atoms: C_7  and  C_25
REMARK    3  A    between atoms: N_9  and  C_12
REMARK    4  A    between atoms: C_12  and  C_13
REMARK    5  A    between atoms: C_18  and  C_21
REMARK    6  A    between atoms: C_25  and  N_26
REMARK    7  A    between atoms: N_26  and  C_29
REMARK                            x       y       z     vdW  Elec       q    Type
REMARK                         _______ _______ _______ _____ _____    ______ ____
ROOT
ATOM      1  O   UNL     1      33.656 -23.142 -15.390  0.00  0.00    -0.277 OA
ATOM      2  N   UNL     1      34.143 -22.851 -17.629  0.00  0.00    -0.275 N 
ATOM      3  C   UNL     1      34.988 -23.003 -18.812  0.00  0.00    +0.152 C 
ATOM      4  C   UNL     1      34.012 -22.973 -19.984  0.00  0.00    +0.031 C 
ATOM      5  C   UNL     1      32.791 -22.455 -17.999  0.00  0.00    +0.094 C 
ATOM      6  C   UNL     1      32.872 -22.096 -19.474  0.00  0.00    +0.024 C 
ATOM      7  C   UNL     1      34.465 -23.169 -16.319  0.00  0.00    +0.204 C 
ENDROOT
BRANCH   3  10
ATOM      8  O   UNL     1      36.737 -21.608 -17.979  0.00  0.00    -0.273 OA
ATOM      9  N   UNL     1      35.721 -21.058 -20.000  0.00  0.00    -0.299 N 
ATOM     10  C   UNL     1      35.920 -21.830 -18.868  0.00  0.00    +0.241 C 
ATOM     11  H   UNL     1      35.033 -21.339 -20.645  0.00  0.00    +0.150 HD
BRANCH   9  12
ATOM     12  C   UNL     1      36.476 -19.857 -20.281  0.00  0.00    +0.116 C 
BRANCH  12  13
ATOM     13  C   UNL     1      35.915 -19.102 -21.452  0.00  0.00    -0.003 C 
ATOM     14  C   UNL     1      35.916 -17.708 -21.446  0.00  0.00    -0.003 C 
ATOM     15  C   UNL     1      35.392 -19.796 -22.543  0.00  0.00    -0.003 C 
ATOM     16  C   UNL     1      35.395 -17.005 -22.533  0.00  0.00    +0.002 C 
ATOM     17  C   UNL     1      34.871 -19.094 -23.631  0.00  0.00    +0.002 C 
ATOM     18  C   UNL     1      34.873 -17.699 -23.626  0.00  0.00    +0.031 C 
BRANCH  18  21
ATOM     19  N   UNL     1      33.956 -15.630 -24.647  0.00  0.00    -0.343 N 
ATOM     20  N   UNL     1      34.180 -17.574 -25.924  0.00  0.00    -0.285 NA
ATOM     21  C   UNL     1      34.330 -16.968 -24.759  0.00  0.00    +0.117 C 
ATOM     22  H   UNL     1      33.591 -15.154 -25.428  0.00  0.00    +0.144 HD
ATOM     23  H   UNL     1      34.057 -15.161 -23.788  0.00  0.00    +0.144 HD
ATOM     24  H   UNL     1      33.812 -17.081 -26.692  0.00  0.00    +0.188 HD
ENDBRANCH  18  21
ENDBRANCH  12  13
ENDBRANCH   9  12
ENDBRANCH   3  10
BRANCH   7  25
ATOM     25  C   UNL     1      35.897 -23.565 -16.065  0.00  0.00    +0.006 C 
BRANCH  25  26
ATOM     26  N   UNL     1      36.456 -22.580 -15.153  0.00  0.00    +0.391 N 
ATOM     27  H   UNL     1      36.803 -21.784 -15.690  0.00  0.00    -0.084 HD
ATOM     28  H   UNL     1      35.726 -22.277 -14.508  0.00  0.00    -0.084 HD
BRANCH  26  29
ATOM     29  C   UNL     1      37.559 -23.159 -14.381  0.00  0.00    -0.061 C 
ATOM     30  C   UNL     1      37.289 -23.022 -12.877  0.00  0.00    -0.021 C 
ATOM     31  C   UNL     1      37.845 -24.574 -14.908  0.00  0.00    -0.021 C 
ATOM     32  C   UNL     1      38.834 -25.385 -14.069  0.00  0.00    -0.002 C 
ATOM     33  C   UNL     1      36.067 -23.744 -12.308  0.00  0.00    -0.002 C 
ATOM     34  C   UNL     1      38.188 -26.456 -13.186  0.00  0.00    -0.000 C 
ATOM     35  C   UNL     1      36.045 -25.269 -12.391  0.00  0.00    -0.000 C 
ATOM     36  C   UNL     1      37.352 -25.962 -12.003  0.00  0.00    -0.000 C 
ENDBRANCH  26  29
ENDBRANCH  25  26
ENDBRANCH   7  25
TORSDOF 7
ENDMDL
MODEL 4
REMARK VINA RESULT:      -9.0      1.930      5.147
REMARK  Name = 46937030
REMARK  7 active torsions:
REMARK  status: ('A' for Active; 'I' for Inactive)
REMARK    1  A    between atoms: C_3  and  C_10
REMARK    2  A    between atoms: C_7  and  C_25
REMARK    3  A    between atoms: N_9  and  C_12
REMARK    4  A    between atoms: C_12  and  C_13
REMARK    5  A    between atoms: C_18  and  C_21
REMARK    6  A    between atoms: C_25  and  N_26
REMARK    7  A    between atoms: N_26  and  C_29
REMARK                            x       y       z     vdW  Elec       q    Type
REMARK                         _______ _______ _______ _____ _____    ______ ____
ROOT
ATOM      1  O   UNL     1      32.895 -23.838 -13.366  0.00  0.00    -0.277 OA
ATOM      2  N   UNL     1      33.349 -23.602 -15.619  0.00  0.00    -0.275 N 
ATOM      3  C   UNL     1      34.148 -23.831 -16.822  0.00  0.00    +0.152 C 
ATOM      4  C   UNL     1      33.149 -23.729 -17.969  0.00  0.00    +0.031 C 
ATOM      5  C   UNL     1      32.024 -23.099 -15.959  0.00  0.00    +0.094 C 
ATOM      6  C   UNL     1      32.098 -22.757 -17.439  0.00  0.00    +0.024 C 
ATOM      7  C   UNL     1      33.676 -23.937 -14.315  0.00  0.00    +0.204 C 
ENDROOT
BRANCH   3  10
ATOM      8  O   UNL     1      35.480 -22.059 -15.936  0.00  0.00    -0.273 OA
ATOM      9  N   UNL     1      35.678 -22.600 -18.191  0.00  0.00    -0.299 N 
ATOM     10  C   UNL     1      35.172 -22.740 -16.910  0.00  0.00    +0.241 C 
ATOM     11  H   UNL     1      35.352 -23.208 -18.894  0.00  0.00    +0.150 HD
BRANCH   9  12
ATOM     12  C   UNL     1      36.662 -21.604 -18.549  0.00  0.00    +0.116 C 
BRANCH  12  13
ATOM     13  C   UNL     1      36.233 -20.790 -19.736  0.00  0.00    -0.003 C 
ATOM     14  C   UNL     1      34.932 -20.907 -20.227  0.00  0.00    -0.003 C 
ATOM     15  C   UNL     1      37.134 -19.919 -20.348  0.00  0.00    -0.003 C 
ATOM     16  C   UNL     1      34.533 -20.152 -21.330  0.00  0.00    +0.002 C 
ATOM     17  C   UNL     1      36.735 -19.164 -21.450  0.00  0.00    +0.002 C 
ATOM     18  C   UNL     1      35.434 -19.280 -21.941  0.00  0.00    +0.031 C 
BRANCH  18  21
ATOM     19  N   UNL     1      35.506 -17.203 -23.300  0.00  0.00    -0.343 N 
ATOM     20  N   UNL     1      34.157 -18.994 -23.957  0.00  0.00    -0.285 NA
ATOM     21  C   UNL     1      35.018 -18.492 -23.090  0.00  0.00    +0.117 C 
ATOM     22  H   UNL     1      35.211 -16.688 -24.085  0.00  0.00    +0.144 HD
ATOM     23  H   UNL     1      36.146 -16.809 -22.665  0.00  0.00    +0.144 HD
ATOM     24  H   UNL     1      33.874 -18.462 -24.735  0.00  0.00    +0.188 HD
ENDBRANCH  18  21
ENDBRANCH  12  13
ENDBRANCH   9  12
ENDBRANCH   3  10
BRANCH   7  25
ATOM     25  C   UNL     1      35.077 -24.448 -14.093  0.00  0.00    +0.006 C 
BRANCH  25  26
ATOM     26  N   UNL     1      35.756 -23.475 -13.253  0.00  0.00    +0.391 N 
ATOM     27  H   UNL     1      35.334 -22.557 -13.395  0.00  0.00    -0.084 HD
ATOM     28  H   UNL     1      35.662 -23.760 -12.278  0.00  0.00    -0.084 HD
BRANCH  26  29
ATOM     29  C   UNL     1      37.181 -23.408 -13.591  0.00  0.00    -0.061 C 
ATOM     30  C   UNL     1      38.039 -23.738 -12.362  0.00  0.00    -0.021 C 
ATOM     31  C   UNL     1      37.431 -24.244 -14.855  0.00  0.00    -0.021 C 
ATOM     32  C   UNL     1      38.905 -24.438 -15.217  0.00  0.00    -0.002 C 
ATOM     33  C   UNL     1      37.902 -25.137 -11.759  0.00  0.00    -0.002 C 
ATOM     34  C   UNL     1      39.465 -25.822 -14.876  0.00  0.00    -0.000 C 
ATOM     35  C   UNL     1      38.310 -26.325 -12.630  0.00  0.00    -0.000 C 
ATOM     36  C   UNL     1      39.626 -26.154 -13.390  0.00  0.00    -0.000 C 
ENDBRANCH  26  29
ENDBRANCH  25  26
ENDBRANCH   7  25
TORSDOF 7
ENDMDL
MODEL 5
REMARK VINA RESULT:      -8.9      1.624      2.287
REMARK  Name = 46937030
REMARK  7 active torsions:
REMARK  status: ('A' for Active; 'I' for Inactive)
REMARK    1  A    between atoms: C_3  and  C_10
REMARK    2  A    between atoms: C_7  and  C_25
REMARK    3  A    between atoms: N_9  and  C_12
REMARK    4  A    between atoms: C_12  and  C_13
REMARK    5  A    between atoms: C_18  and  C_21
REMARK    6  A    between atoms: C_25  and  N_26
REMARK    7  A    between atoms: N_26  and  C_29
REMARK                            x       y       z     vdW  Elec       q    Type
REMARK                         _______ _______ _______ _____ _____    ______ ____
ROOT
ATOM      1  O   UNL     1      34.523 -25.504 -11.505  0.00  0.00    -0.277 OA
ATOM      2  N   UNL     1      36.256 -24.191 -12.288  0.00  0.00    -0.275 N 
ATOM      3  C   UNL     1      36.806 -23.088 -13.073  0.00  0.00    +0.152 C 
ATOM      4  C   UNL     1      38.092 -22.707 -12.345  0.00  0.00    +0.031 C 
ATOM      5  C   UNL     1      37.230 -24.686 -11.324  0.00  0.00    +0.094 C 
ATOM      6  C   UNL     1      38.541 -24.020 -11.709  0.00  0.00    +0.024 C 
ATOM      7  C   UNL     1      34.951 -24.658 -12.293  0.00  0.00    +0.204 C 
ENDROOT
BRANCH   3  10
ATOM      8  O   UNL     1      37.092 -24.804 -14.708  0.00  0.00    -0.273 OA
ATOM      9  N   UNL     1      37.415 -22.585 -15.333  0.00  0.00    -0.299 N 
ATOM     10  C   UNL     1      37.108 -23.604 -14.448  0.00  0.00    +0.241 C 
ATOM     11  H   UNL     1      37.393 -21.657 -15.006  0.00  0.00    +0.150 HD
BRANCH   9  12
ATOM     12  C   UNL     1      37.765 -22.817 -16.716  0.00  0.00    +0.116 C 
BRANCH  12  13
ATOM     13  C   UNL     1      36.677 -22.377 -17.653  0.00  0.00    -0.003 C 
ATOM     14  C   UNL     1      36.995 -21.636 -18.791  0.00  0.00    -0.003 C 
ATOM     15  C   UNL     1      35.349 -22.708 -17.384  0.00  0.00    -0.003 C 
ATOM     16  C   UNL     1      35.985 -21.226 -19.662  0.00  0.00    +0.002 C 
ATOM     17  C   UNL     1      34.338 -22.299 -18.255  0.00  0.00    +0.002 C 
ATOM     18  C   UNL     1      34.657 -21.558 -19.394  0.00  0.00    +0.031 C 
BRANCH  18  21
ATOM     19  N   UNL     1      32.354 -21.749 -20.302  0.00  0.00    -0.343 N 
ATOM     20  N   UNL     1      33.825 -20.144 -21.150  0.00  0.00    -0.285 NA
ATOM     21  C   UNL     1      33.603 -21.132 -20.301  0.00  0.00    +0.117 C 
ATOM     22  H   UNL     1      31.655 -21.444 -20.925  0.00  0.00    +0.144 HD
ATOM     23  H   UNL     1      32.170 -22.489 -19.679  0.00  0.00    +0.144 HD
ATOM     24  H   UNL     1      33.113 -19.855 -21.766  0.00  0.00    +0.188 HD
ENDBRANCH  18  21
ENDBRANCH  12  13
ENDBRANCH   9  12
ENDBRANCH   3  10
BRANCH   7  25
ATOM     25  C   UNL     1      34.039 -24.066 -13.337  0.00  0.00    +0.006 C 
BRANCH  25  26
ATOM     26  N   UNL     1      33.127 -25.120 -13.752  0.00  0.00    +0.391 N 
ATOM     27  H   UNL     1      33.331 -25.380 -14.717  0.00  0.00    -0.084 HD
ATOM     28  H   UNL     1      33.252 -25.924 -13.137  0.00  0.00    -0.084 HD
BRANCH  26  29
ATOM     29  C   UNL     1      31.736 -24.665 -13.658  0.00  0.00    -0.061 C 
ATOM     30  C   UNL     1      31.630 -23.186 -14.051  0.00  0.00    -0.021 C 
ATOM     31  C   UNL     1      30.839 -25.651 -14.422  0.00  0.00    -0.021 C 
ATOM     32  C   UNL     1      29.386 -25.202 -14.588  0.00  0.00    -0.002 C 
ATOM     33  C   UNL     1      32.013 -22.803 -15.481  0.00  0.00    -0.002 C 
ATOM     34  C   UNL     1      29.039 -24.681 -15.986  0.00  0.00    -0.000 C 
ATOM     35  C   UNL     1      31.174 -23.387 -16.617  0.00  0.00    -0.000 C 
ATOM     36  C   UNL     1      29.661 -23.345 -16.398  0.00  0.00    -0.000 C 
ENDBRANCH  26  29
ENDBRANCH  25  26
ENDBRANCH   7  25
TORSDOF 7
ENDMDL
MODEL 6
REMARK VINA RESULT:      -8.8      2.529      6.724
REMARK  Name = 46937030
REMARK  7 active torsions:
REMARK  status: ('A' for Active; 'I' for Inactive)
REMARK    1  A    between atoms: C_3  and  C_10
REMARK    2  A    between atoms: C_7  and  C_25
REMARK    3  A    between atoms: N_9  and  C_12
REMARK    4  A    between atoms: C_12  and  C_13
REMARK    5  A    between atoms: C_18  and  C_21
REMARK    6  A    between atoms: C_25  and  N_26
REMARK    7  A    between atoms: N_26  and  C_29
REMARK                            x       y       z     vdW  Elec       q    Type
REMARK                         _______ _______ _______ _____ _____    ______ ____
ROOT
ATOM      1  O   UNL     1      32.267 -21.484 -19.050  0.00  0.00    -0.277 OA
ATOM      2  N   UNL     1      34.403 -21.265 -19.904  0.00  0.00    -0.275 N 
ATOM      3  C   UNL     1      35.784 -21.703 -20.094  0.00  0.00    +0.152 C 
ATOM      4  C   UNL     1      36.198 -21.091 -21.428  0.00  0.00    +0.031 C 
ATOM      5  C   UNL     1      34.047 -20.224 -20.859  0.00  0.00    +0.094 C 
ATOM      6  C   UNL     1      35.360 -19.817 -21.509  0.00  0.00    +0.024 C 
ATOM      7  C   UNL     1      33.453 -21.819 -19.059  0.00  0.00    +0.204 C 
ENDROOT
BRANCH   3  10
ATOM      8  O   UNL     1      37.216 -20.080 -19.087  0.00  0.00    -0.273 OA
ATOM      9  N   UNL     1      36.597 -21.957 -17.856  0.00  0.00    -0.299 N 
ATOM     10  C   UNL     1      36.606 -21.140 -18.974  0.00  0.00    +0.241 C 
ATOM     11  H   UNL     1      36.067 -22.786 -17.885  0.00  0.00    +0.150 HD
BRANCH   9  12
ATOM     12  C   UNL     1      37.330 -21.652 -16.648  0.00  0.00    +0.116 C 
BRANCH  12  13
ATOM     13  C   UNL     1      37.250 -22.768 -15.646  0.00  0.00    -0.003 C 
ATOM     14  C   UNL     1      36.228 -22.778 -14.696  0.00  0.00    -0.003 C 
ATOM     15  C   UNL     1      38.196 -23.792 -15.665  0.00  0.00    -0.003 C 
ATOM     16  C   UNL     1      36.153 -23.815 -13.765  0.00  0.00    +0.002 C 
ATOM     17  C   UNL     1      38.121 -24.828 -14.734  0.00  0.00    +0.002 C 
ATOM     18  C   UNL     1      37.100 -24.839 -13.784  0.00  0.00    +0.031 C 
BRANCH  18  21
ATOM     19  N   UNL     1      37.219 -27.248 -13.191  0.00  0.00    -0.343 N 
ATOM     20  N   UNL     1      36.755 -25.651 -11.549  0.00  0.00    -0.285 NA
ATOM     21  C   UNL     1      37.022 -25.920 -12.815  0.00  0.00    +0.117 C 
ATOM     22  H   UNL     1      37.162 -27.963 -12.517  0.00  0.00    +0.144 HD
ATOM     23  H   UNL     1      37.416 -27.469 -14.129  0.00  0.00    +0.144 HD
ATOM     24  H   UNL     1      36.701 -26.382 -10.891  0.00  0.00    +0.188 HD
ENDBRANCH  18  21
ENDBRANCH  12  13
ENDBRANCH   9  12
ENDBRANCH   3  10
BRANCH   7  25
ATOM     25  C   UNL     1      33.946 -22.888 -18.118  0.00  0.00    +0.006 C 
BRANCH  25  26
ATOM     26  N   UNL     1      32.778 -23.623 -17.660  0.00  0.00    +0.391 N 
ATOM     27  H   UNL     1      31.981 -23.388 -18.253  0.00  0.00    -0.084 HD
ATOM     28  H   UNL     1      32.975 -24.622 -17.715  0.00  0.00    -0.084 HD
BRANCH  26  29
ATOM     29  C   UNL     1      32.464 -23.278 -16.271  0.00  0.00    -0.061 C 
ATOM     30  C   UNL     1      30.970 -22.957 -16.123  0.00  0.00    -0.021 C 
ATOM     31  C   UNL     1      33.032 -24.367 -15.348  0.00  0.00    -0.021 C 
ATOM     32  C   UNL     1      32.608 -24.253 -13.882  0.00  0.00    -0.002 C 
ATOM     33  C   UNL     1      29.972 -24.075 -16.425  0.00  0.00    -0.002 C 
ATOM     34  C   UNL     1      31.528 -25.250 -13.455  0.00  0.00    -0.000 C 
ATOM     35  C   UNL     1      30.012 -25.317 -15.536  0.00  0.00    -0.000 C 
ATOM     36  C   UNL     1      30.127 -25.041 -14.036  0.00  0.00    -0.000 C 
ENDBRANCH  26  29
ENDBRANCH  25  26
ENDBRANCH   7  25
TORSDOF 7
ENDMDL
MODEL 7
REMARK VINA RESULT:      -8.7      2.368      7.650
REMARK  Name = 46937030
REMARK  7 active torsions:
REMARK  status: ('A' for Active; 'I' for Inactive)
REMARK    1  A    between atoms: C_3  and  C_10
REMARK    2  A    between atoms: C_7  and  C_25
REMARK    3  A    between atoms: N_9  and  C_12
REMARK    4  A    between atoms: C_12  and  C_13
REMARK    5  A    between atoms: C_18  and  C_21
REMARK    6  A    between atoms: C_25  and  N_26
REMARK    7  A    between atoms: N_26  and  C_29
REMARK                            x       y       z     vdW  Elec       q    Type
REMARK                         _______ _______ _______ _____ _____    ______ ____
ROOT
ATOM      1  O   UNL     1      32.641 -24.238 -18.034  0.00  0.00    -0.277 OA
ATOM      2  N   UNL     1      32.277 -23.668 -15.825  0.00  0.00    -0.275 N 
ATOM      3  C   UNL     1      32.679 -23.097 -14.540  0.00  0.00    +0.152 C 
ATOM      4  C   UNL     1      31.369 -22.658 -13.893  0.00  0.00    +0.031 C 
ATOM      5  C   UNL     1      30.835 -23.863 -15.883  0.00  0.00    +0.094 C 
ATOM      6  C   UNL     1      30.346 -23.638 -14.462  0.00  0.00    +0.024 C 
ATOM      7  C   UNL     1      33.075 -23.878 -16.938  0.00  0.00    +0.204 C 
ENDROOT
BRANCH   3  10
ATOM      8  O   UNL     1      32.868 -25.318 -13.685  0.00  0.00    -0.273 OA
ATOM      9  N   UNL     1      34.460 -23.734 -13.074  0.00  0.00    -0.299 N 
ATOM     10  C   UNL     1      33.331 -24.181 -13.736  0.00  0.00    +0.241 C 
ATOM     11  H   UNL     1      34.734 -22.795 -13.194  0.00  0.00    +0.150 HD
BRANCH   9  12
ATOM     12  C   UNL     1      35.259 -24.577 -12.213  0.00  0.00    +0.116 C 
BRANCH  12  13
ATOM     13  C   UNL     1      36.530 -25.017 -12.880  0.00  0.00    -0.003 C 
ATOM     14  C   UNL     1      36.480 -25.660 -14.117  0.00  0.00    -0.003 C 
ATOM     15  C   UNL     1      37.759 -24.785 -12.263  0.00  0.00    -0.003 C 
ATOM     16  C   UNL     1      37.661 -26.070 -14.738  0.00  0.00    +0.002 C 
ATOM     17  C   UNL     1      38.939 -25.195 -12.884  0.00  0.00    +0.002 C 
ATOM     18  C   UNL     1      38.890 -25.837 -14.121  0.00  0.00    +0.031 C 
BRANCH  18  21
ATOM     19  N   UNL     1      41.081 -27.006 -14.082  0.00  0.00    -0.343 N 
ATOM     20  N   UNL     1      40.347 -25.942 -16.029  0.00  0.00    -0.285 NA
ATOM     21  C   UNL     1      40.121 -26.263 -14.768  0.00  0.00    +0.117 C 
ATOM     22  H   UNL     1      41.907 -27.284 -14.540  0.00  0.00    +0.144 HD
ATOM     23  H   UNL     1      40.932 -27.252 -13.141  0.00  0.00    +0.144 HD
ATOM     24  H   UNL     1      41.180 -26.230 -16.469  0.00  0.00    +0.188 HD
ENDBRANCH  18  21
ENDBRANCH  12  13
ENDBRANCH   9  12
ENDBRANCH   3  10
BRANCH   7  25
ATOM     25  C   UNL     1      34.552 -23.641 -16.750  0.00  0.00    +0.006 C 
BRANCH  25  26
ATOM     26  N   UNL     1      34.843 -22.324 -17.294  0.00  0.00    +0.391 N 
ATOM     27  H   UNL     1      33.972 -21.803 -17.395  0.00  0.00    -0.084 HD
ATOM     28  H   UNL     1      35.473 -21.837 -16.657  0.00  0.00    -0.084 HD
BRANCH  26  29
ATOM     29  C   UNL     1      35.491 -22.439 -18.604  0.00  0.00    -0.061 C 
ATOM     30  C   UNL     1      34.439 -22.621 -19.706  0.00  0.00    -0.021 C 
ATOM     31  C   UNL     1      36.479 -21.275 -18.774  0.00  0.00    -0.021 C 
ATOM     32  C   UNL     1      37.082 -21.142 -20.174  0.00  0.00    -0.002 C 
ATOM     33  C   UNL     1      33.439 -21.485 -19.925  0.00  0.00    -0.002 C 
ATOM     34  C   UNL     1      36.483 -20.014 -21.018  0.00  0.00    -0.000 C 
ATOM     35  C   UNL     1      33.992 -20.134 -20.377  0.00  0.00    -0.000 C 
ATOM     36  C   UNL     1      35.039 -20.198 -21.490  0.00  0.00    -0.000 C 
ENDBRANCH  26  29
ENDBRANCH  25  26
ENDBRANCH   7  25
TORSDOF 7
ENDMDL
MODEL 8
REMARK VINA RESULT:      -8.6     10.784     16.256
REMARK  Name = 46937030
REMARK  7 active torsions:
REMARK  status: ('A' for Active; 'I' for Inactive)
REMARK    1  A    between atoms: C_3  and  C_10
REMARK    2  A    between atoms: C_7  and  C_25
REMARK    3  A    between atoms: N_9  and  C_12
REMARK    4  A    between atoms: C_12  and  C_13
REMARK    5  A    between atoms: C_18  and  C_21
REMARK    6  A    between atoms: C_25  and  N_26
REMARK    7  A    between atoms: N_26  and  C_29
REMARK                            x       y       z     vdW  Elec       q    Type
REMARK                         _______ _______ _______ _____ _____    ______ ____
ROOT
ATOM      1  O   UNL     1      35.332  -7.724 -23.228  0.00  0.00    -0.277 OA
ATOM      2  N   UNL     1      34.127  -9.591 -23.860  0.00  0.00    -0.275 N 
ATOM      3  C   UNL     1      32.890 -10.352 -24.028  0.00  0.00    +0.152 C 
ATOM      4  C   UNL     1      33.184 -11.307 -25.181  0.00  0.00    +0.031 C 
ATOM      5  C   UNL     1      35.218 -10.192 -24.615  0.00  0.00    +0.094 C 
ATOM      6  C   UNL     1      34.689 -11.542 -25.072  0.00  0.00    +0.024 C 
ATOM      7  C   UNL     1      34.286  -8.375 -23.214  0.00  0.00    +0.204 C 
ENDROOT
BRANCH   3  10
ATOM      8  O   UNL     1      31.946 -10.653 -21.856  0.00  0.00    -0.273 OA
ATOM      9  N   UNL     1      33.286 -12.335 -22.747  0.00  0.00    -0.299 N 
ATOM     10  C   UNL     1      32.638 -11.111 -22.761  0.00  0.00    +0.241 C 
ATOM     11  H   UNL     1      33.815 -12.595 -23.536  0.00  0.00    +0.150 HD
BRANCH   9  12
ATOM     12  C   UNL     1      33.223 -13.251 -21.631  0.00  0.00    +0.116 C 
BRANCH  12  13
ATOM     13  C   UNL     1      33.950 -14.534 -21.915  0.00  0.00    -0.003 C 
ATOM     14  C   UNL     1      34.375 -15.342 -20.861  0.00  0.00    -0.003 C 
ATOM     15  C   UNL     1      34.200 -14.917 -23.233  0.00  0.00    -0.003 C 
ATOM     16  C   UNL     1      35.051 -16.534 -21.124  0.00  0.00    +0.002 C 
ATOM     17  C   UNL     1      34.875 -16.109 -23.496  0.00  0.00    +0.002 C 
ATOM     18  C   UNL     1      35.300 -16.917 -22.442  0.00  0.00    +0.031 C 
BRANCH  18  21
ATOM     19  N   UNL     1      37.306 -18.370 -22.270  0.00  0.00    -0.343 N 
ATOM     20  N   UNL     1      35.406 -19.115 -23.408  0.00  0.00    -0.285 NA
ATOM     21  C   UNL     1      36.003 -18.160 -22.717  0.00  0.00    +0.117 C 
ATOM     22  H   UNL     1      37.763 -19.220 -22.468  0.00  0.00    +0.144 HD
ATOM     23  H   UNL     1      37.769 -17.670 -21.756  0.00  0.00    +0.144 HD
ATOM     24  H   UNL     1      35.881 -19.957 -23.596  0.00  0.00    +0.188 HD
ENDBRANCH  18  21
ENDBRANCH  12  13
ENDBRANCH   9  12
ENDBRANCH   3  10
BRANCH   7  25
ATOM     25  C   UNL     1      33.082  -7.858 -22.468  0.00  0.00    +0.006 C 
BRANCH  25  26
ATOM     26  N   UNL     1      33.055  -6.416 -22.651  0.00  0.00    +0.391 N 
ATOM     27  H   UNL     1      32.511  -5.993 -21.898  0.00  0.00    -0.084 HD
ATOM     28  H   UNL     1      34.012  -6.065 -22.634  0.00  0.00    -0.084 HD
BRANCH  26  29
ATOM     29  C   UNL     1      32.446  -6.071 -23.939  0.00  0.00    -0.061 C 
ATOM     30  C   UNL     1      31.055  -5.458 -23.725  0.00  0.00    -0.021 C 
ATOM     31  C   UNL     1      33.449  -5.243 -24.756  0.00  0.00    -0.021 C 
ATOM     32  C   UNL     1      32.884  -4.634 -26.041  0.00  0.00    -0.002 C 
ATOM     33  C   UNL     1      30.972  -4.142 -22.951  0.00  0.00    -0.002 C 
ATOM     34  C   UNL     1      32.582  -3.136 -25.954  0.00  0.00    -0.000 C 
ATOM     35  C   UNL     1      31.652  -2.918 -23.562  0.00  0.00    -0.000 C 
ATOM     36  C   UNL     1      31.412  -2.719 -25.059  0.00  0.00    -0.000 C 
ENDBRANCH  26  29
ENDBRANCH  25  26
ENDBRANCH   7  25
TORSDOF 7
ENDMDL
