MODEL 1
REMARK VINA RESULT:     -12.2      0.000      0.000
REMARK  Name = 10297043
REMARK  6 active torsions:
REMARK  status: ('A' for Active; 'I' for Inactive)
REMARK    1  A    between atoms: N_2  and  C_30
REMARK    2  A    between atoms: C_5  and  C_16
REMARK    3  A    between atoms: C_13  and  C_19
REMARK    4  A    between atoms: C_19  and  N_20
REMARK    5  A    between atoms: N_21  and  C_28
REMARK    6  A    between atoms: C_30  and  C_32
REMARK                            x       y       z     vdW  Elec       q    Type
REMARK                         _______ _______ _______ _____ _____    ______ ____
ROOT
ATOM      1  N   UNL     1      34.619 -17.741 -24.298  0.00  0.00    -0.301 N 
ATOM      2  N   UNL     1      33.813 -13.216 -23.501  0.00  0.00    -0.319 N 
ATOM      3  N   UNL     1      33.785 -16.488 -26.181  0.00  0.00    -0.233 NA
ATOM      4  N   UNL     1      33.397 -14.140 -25.663  0.00  0.00    -0.233 NA
ATOM      5  C   UNL     1      34.939 -17.480 -22.990  0.00  0.00    +0.046 C 
ATOM      6  C   UNL     1      34.221 -15.572 -23.958  0.00  0.00    +0.131 C 
ATOM      7  C   UNL     1      34.702 -16.143 -22.752  0.00  0.00    +0.003 C 
ATOM      8  C   UNL     1      34.180 -16.592 -24.901  0.00  0.00    +0.117 C 
ATOM      9  C   UNL     1      33.807 -14.311 -24.384  0.00  0.00    +0.113 C 
ATOM     10  C   UNL     1      33.410 -15.225 -26.471  0.00  0.00    +0.252 C 
ATOM     11  H   UNL     1      34.694 -18.620 -24.736  0.00  0.00    +0.153 HD
ATOM     12  H   UNL     1      34.115 -13.361 -22.575  0.00  0.00    +0.148 HD
ENDROOT
BRANCH   5  16
ATOM     13  C   UNL     1      36.372 -20.485 -20.394  0.00  0.00    -0.043 C 
ATOM     14  C   UNL     1      35.030 -20.473 -20.757  0.00  0.00    -0.006 C 
ATOM     15  C   UNL     1      37.247 -19.520 -20.876  0.00  0.00    -0.006 C 
ATOM     16  C   UNL     1      35.429 -18.507 -22.104  0.00  0.00    +0.013 C 
ATOM     17  C   UNL     1      34.557 -19.480 -21.616  0.00  0.00    +0.001 C 
ATOM     18  C   UNL     1      36.773 -18.527 -21.734  0.00  0.00    +0.001 C 
BRANCH  13  19
ATOM     19  C   UNL     1      36.881 -21.554 -19.470  0.00  0.00    -0.050 C 
BRANCH  19  20
ATOM     20  N   UNL     1      35.957 -21.806 -18.366  0.00  0.00    +0.387 N 
ATOM     21  N   UNL     1      34.653 -23.527 -16.443  0.00  0.00    +0.384 N 
ATOM     22  C   UNL     1      34.903 -22.744 -18.773  0.00  0.00    -0.100 C 
ATOM     23  C   UNL     1      36.674 -22.319 -17.192  0.00  0.00    -0.100 C 
ATOM     24  C   UNL     1      33.935 -23.014 -17.616  0.00  0.00    -0.101 C 
ATOM     25  C   UNL     1      35.705 -22.588 -16.036  0.00  0.00    -0.101 C 
ATOM     26  H   UNL     1      35.518 -20.920 -18.113  0.00  0.00    -0.079 HD
ATOM     27  H   UNL     1      35.093 -24.412 -16.696  0.00  0.00    -0.080 HD
BRANCH  21  28
ATOM     28  C   UNL     1      33.729 -23.782 -15.339  0.00  0.00    -0.078 C 
ATOM     29  C   UNL     1      32.293 -23.510 -15.752  0.00  0.00    -0.025 C 
ENDBRANCH  21  28
ENDBRANCH  19  20
ENDBRANCH  13  19
ENDBRANCH   5  16
BRANCH   2  30
ATOM     30  C   UNL     1      33.398 -11.900 -23.886  0.00  0.00    +0.093 C 
ATOM     31  C   UNL     1      34.609 -11.124 -24.399  0.00  0.00    +0.026 C 
BRANCH  30  32
ATOM     32  C   UNL     1      32.697 -11.213 -22.734  0.00  0.00    -0.005 C 
ATOM     33  C   UNL     1      32.669  -9.830 -22.689  0.00  0.00    -0.003 C 
ATOM     34  C   UNL     1      32.099 -11.982 -21.751  0.00  0.00    -0.003 C 
ATOM     35  C   UNL     1      32.023  -9.196 -21.628  0.00  0.00    -0.000 C 
ATOM     36  C   UNL     1      31.453 -11.349 -20.690  0.00  0.00    -0.000 C 
ATOM     37  C   UNL     1      31.415  -9.956 -20.628  0.00  0.00    -0.000 C 
ENDBRANCH  30  32
ENDBRANCH   2  30
TORSDOF 6
ENDMDL
MODEL 2
REMARK VINA RESULT:     -12.1      2.636     12.112
REMARK  Name = 10297043
REMARK  6 active torsions:
REMARK  status: ('A' for Active; 'I' for Inactive)
REMARK    1  A    between atoms: N_2  and  C_30
REMARK    2  A    between atoms: C_5  and  C_16
REMARK    3  A    between atoms: C_13  and  C_19
REMARK    4  A    between atoms: C_19  and  N_20
REMARK    5  A    between atoms: N_21  and  C_28
REMARK    6  A    between atoms: C_30  and  C_32
REMARK                            x       y       z     vdW  Elec       q    Type
REMARK                         _______ _______ _______ _____ _____    ______ ____
ROOT
ATOM      1  N   UNL     1      32.572 -22.020 -18.722  0.00  0.00    -0.301 N 
ATOM      2  N   UNL     1      35.095 -24.197 -15.457  0.00  0.00    -0.319 N 
ATOM      3  N   UNL     1      31.304 -23.209 -17.051  0.00  0.00    -0.233 NA
ATOM      4  N   UNL     1      32.711 -24.308 -15.396  0.00  0.00    -0.233 NA
ATOM      5  C   UNL     1      33.897 -21.794 -18.994  0.00  0.00    +0.046 C 
ATOM      6  C   UNL     1      33.742 -23.074 -17.142  0.00  0.00    +0.131 C 
ATOM      7  C   UNL     1      34.646 -22.436 -18.030  0.00  0.00    +0.003 C 
ATOM      8  C   UNL     1      32.460 -22.797 -17.600  0.00  0.00    +0.117 C 
ATOM      9  C   UNL     1      33.840 -23.862 -15.996  0.00  0.00    +0.113 C 
ATOM     10  C   UNL     1      31.530 -23.960 -15.954  0.00  0.00    +0.252 C 
ATOM     11  H   UNL     1      31.817 -21.676 -19.253  0.00  0.00    +0.153 HD
ATOM     12  H   UNL     1      35.904 -23.862 -15.909  0.00  0.00    +0.148 HD
ENDROOT
BRANCH   5  16
ATOM     13  C   UNL     1      35.142 -19.487 -22.303  0.00  0.00    -0.043 C 
ATOM     14  C   UNL     1      36.093 -20.037 -21.451  0.00  0.00    -0.006 C 
ATOM     15  C   UNL     1      33.786 -19.688 -22.078  0.00  0.00    -0.006 C 
ATOM     16  C   UNL     1      34.322 -21.006 -20.125  0.00  0.00    +0.013 C 
ATOM     17  C   UNL     1      35.681 -20.800 -20.358  0.00  0.00    +0.001 C 
ATOM     18  C   UNL     1      33.375 -20.451 -20.984  0.00  0.00    +0.001 C 
BRANCH  13  19
ATOM     19  C   UNL     1      35.586 -18.665 -23.479  0.00  0.00    -0.050 C 
BRANCH  19  20
ATOM     20  N   UNL     1      34.664 -17.566 -23.756  0.00  0.00    +0.387 N 
ATOM     21  N   UNL     1      33.975 -15.019 -24.939  0.00  0.00    +0.384 N 
ATOM     22  C   UNL     1      35.176 -16.305 -23.204  0.00  0.00    -0.100 C 
ATOM     23  C   UNL     1      34.425 -17.435 -25.198  0.00  0.00    -0.100 C 
ATOM     24  C   UNL     1      34.213 -15.149 -23.496  0.00  0.00    -0.101 C 
ATOM     25  C   UNL     1      33.461 -16.279 -25.489  0.00  0.00    -0.101 C 
ATOM     26  H   UNL     1      33.775 -17.778 -23.301  0.00  0.00    -0.079 HD
ATOM     27  H   UNL     1      34.863 -14.809 -25.394  0.00  0.00    -0.080 HD
BRANCH  21  28
ATOM     28  C   UNL     1      33.054 -13.918 -25.216  0.00  0.00    -0.078 C 
ATOM     29  C   UNL     1      33.385 -13.246 -26.538  0.00  0.00    -0.025 C 
ENDBRANCH  21  28
ENDBRANCH  19  20
ENDBRANCH  13  19
ENDBRANCH   5  16
BRANCH   2  30
ATOM     30  C   UNL     1      35.252 -25.002 -14.284  0.00  0.00    +0.093 C 
ATOM     31  C   UNL     1      34.615 -24.285 -13.096  0.00  0.00    +0.026 C 
BRANCH  30  32
ATOM     32  C   UNL     1      36.713 -25.332 -14.066  0.00  0.00    -0.005 C 
ATOM     33  C   UNL     1      37.391 -24.735 -13.016  0.00  0.00    -0.003 C 
ATOM     34  C   UNL     1      37.341 -26.222 -14.920  0.00  0.00    -0.003 C 
ATOM     35  C   UNL     1      38.737 -25.037 -12.815  0.00  0.00    -0.000 C 
ATOM     36  C   UNL     1      38.687 -26.524 -14.718  0.00  0.00    -0.000 C 
ATOM     37  C   UNL     1      39.385 -25.932 -13.666  0.00  0.00    -0.000 C 
ENDBRANCH  30  32
ENDBRANCH   2  30
TORSDOF 6
ENDMDL
MODEL 3
REMARK VINA RESULT:     -11.7      1.393      2.222
REMARK  Name = 10297043
REMARK  6 active torsions:
REMARK  status: ('A' for Active; 'I' for Inactive)
REMARK    1  A    between atoms: N_2  and  C_30
REMARK    2  A    between atoms: C_5  and  C_16
REMARK    3  A    between atoms: C_13  and  C_19
REMARK    4  A    between atoms: C_19  and  N_20
REMARK    5  A    between atoms: N_21  and  C_28
REMARK    6  A    between atoms: C_30  and  C_32
REMARK                            x       y       z     vdW  Elec       q    Type
REMARK                         _______ _______ _______ _____ _____    ______ ____
ROOT
ATOM      1  N   UNL     1      34.087 -15.849 -24.961  0.00  0.00    -0.301 N 
ATOM      2  N   UNL     1      33.692 -11.457 -23.439  0.00  0.00    -0.319 N 
ATOM      3  N   UNL     1      33.293 -14.254 -26.586  0.00  0.00    -0.233 NA
ATOM      4  N   UNL     1      33.123 -11.995 -25.694  0.00  0.00    -0.233 NA
ATOM      5  C   UNL     1      34.474 -15.823 -23.646  0.00  0.00    +0.046 C 
ATOM      6  C   UNL     1      33.884 -13.736 -24.272  0.00  0.00    +0.131 C 
ATOM      7  C   UNL     1      34.359 -14.525 -23.193  0.00  0.00    +0.003 C 
ATOM      8  C   UNL     1      33.724 -14.589 -25.358  0.00  0.00    +0.117 C 
ATOM      9  C   UNL     1      33.563 -12.395 -24.478  0.00  0.00    +0.113 C 
ATOM     10  C   UNL     1      33.016 -12.936 -26.659  0.00  0.00    +0.252 C 
ATOM     11  H   UNL     1      34.071 -16.651 -25.532  0.00  0.00    +0.153 HD
ATOM     12  H   UNL     1      34.014 -11.768 -22.562  0.00  0.00    +0.148 HD
ENDROOT
BRANCH   5  16
ATOM     13  C   UNL     1      35.744 -19.299 -21.616  0.00  0.00    -0.043 C 
ATOM     14  C   UNL     1      35.729 -18.080 -20.948  0.00  0.00    -0.006 C 
ATOM     15  C   UNL     1      35.347 -19.387 -22.944  0.00  0.00    -0.006 C 
ATOM     16  C   UNL     1      34.908 -17.011 -22.953  0.00  0.00    +0.013 C 
ATOM     17  C   UNL     1      35.308 -16.932 -21.619  0.00  0.00    +0.001 C 
ATOM     18  C   UNL     1      34.927 -18.238 -23.615  0.00  0.00    +0.001 C 
BRANCH  13  19
ATOM     19  C   UNL     1      36.197 -20.536 -20.893  0.00  0.00    -0.050 C 
BRANCH  19  20
ATOM     20  N   UNL     1      35.277 -20.910 -19.821  0.00  0.00    +0.387 N 
ATOM     21  N   UNL     1      33.525 -22.765 -18.462  0.00  0.00    +0.384 N 
ATOM     22  C   UNL     1      33.954 -21.247 -20.364  0.00  0.00    -0.100 C 
ATOM     23  C   UNL     1      35.813 -22.032 -19.042  0.00  0.00    -0.100 C 
ATOM     24  C   UNL     1      32.989 -21.643 -19.242  0.00  0.00    -0.101 C 
ATOM     25  C   UNL     1      34.846 -22.427 -17.919  0.00  0.00    -0.101 C 
ATOM     26  H   UNL     1      35.174 -20.106 -19.201  0.00  0.00    -0.079 HD
ATOM     27  H   UNL     1      33.630 -23.568 -19.084  0.00  0.00    -0.080 HD
BRANCH  21  28
ATOM     28  C   UNL     1      32.605 -23.141 -17.391  0.00  0.00    -0.078 C 
ATOM     29  C   UNL     1      33.358 -23.549 -16.137  0.00  0.00    -0.025 C 
ENDBRANCH  21  28
ENDBRANCH  19  20
ENDBRANCH  13  19
ENDBRANCH   5  16
BRANCH   2  30
ATOM     30  C   UNL     1      33.377 -10.069 -23.596  0.00  0.00    +0.093 C 
ATOM     31  C   UNL     1      34.611  -9.328 -24.104  0.00  0.00    +0.026 C 
BRANCH  30  32
ATOM     32  C   UNL     1      32.836  -9.504 -22.301  0.00  0.00    -0.005 C 
ATOM     33  C   UNL     1      32.059 -10.309 -21.485  0.00  0.00    -0.003 C 
ATOM     34  C   UNL     1      33.129  -8.195 -21.959  0.00  0.00    -0.003 C 
ATOM     35  C   UNL     1      31.560  -9.788 -20.291  0.00  0.00    -0.000 C 
ATOM     36  C   UNL     1      32.631  -7.675 -20.765  0.00  0.00    -0.000 C 
ATOM     37  C   UNL     1      31.846  -8.471 -19.931  0.00  0.00    -0.000 C 
ENDBRANCH  30  32
ENDBRANCH   2  30
TORSDOF 6
ENDMDL
MODEL 4
REMARK VINA RESULT:     -10.9      2.891     11.680
REMARK  Name = 10297043
REMARK  6 active torsions:
REMARK  status: ('A' for Active; 'I' for Inactive)
REMARK    1  A    between atoms: N_2  and  C_30
REMARK    2  A    between atoms: C_5  and  C_16
REMARK    3  A    between atoms: C_13  and  C_19
REMARK    4  A    between atoms: C_19  and  N_20
REMARK    5  A    between atoms: N_21  and  C_28
REMARK    6  A    between atoms: C_30  and  C_32
REMARK                            x       y       z     vdW  Elec       q    Type
REMARK                         _______ _______ _______ _____ _____    ______ ____
ROOT
ATOM      1  N   UNL     1      33.458 -14.592 -24.549  0.00  0.00    -0.301 N 
ATOM      2  N   UNL     1      35.693 -17.581 -21.750  0.00  0.00    -0.319 N 
ATOM      3  N   UNL     1      34.015 -16.720 -25.536  0.00  0.00    -0.233 NA
ATOM      4  N   UNL     1      35.177 -18.206 -23.996  0.00  0.00    -0.233 NA
ATOM      5  C   UNL     1      33.624 -13.984 -23.331  0.00  0.00    +0.046 C 
ATOM      6  C   UNL     1      34.527 -16.050 -23.243  0.00  0.00    +0.131 C 
ATOM      7  C   UNL     1      34.284 -14.866 -22.501  0.00  0.00    +0.003 C 
ATOM      8  C   UNL     1      34.002 -15.848 -24.513  0.00  0.00    +0.117 C 
ATOM      9  C   UNL     1      35.132 -17.284 -23.006  0.00  0.00    +0.113 C 
ATOM     10  C   UNL     1      34.624 -17.871 -25.184  0.00  0.00    +0.252 C 
ATOM     11  H   UNL     1      33.016 -14.187 -25.330  0.00  0.00    +0.153 HD
ATOM     12  H   UNL     1      35.649 -16.897 -21.043  0.00  0.00    +0.148 HD
ENDROOT
BRANCH   5  16
ATOM     13  C   UNL     1      32.242 -10.067 -22.577  0.00  0.00    -0.043 C 
ATOM     14  C   UNL     1      33.164 -10.287 -23.594  0.00  0.00    -0.006 C 
ATOM     15  C   UNL     1      31.770 -11.122 -21.806  0.00  0.00    -0.006 C 
ATOM     16  C   UNL     1      33.151 -12.646 -23.074  0.00  0.00    +0.013 C 
ATOM     17  C   UNL     1      33.620 -11.582 -23.843  0.00  0.00    +0.001 C 
ATOM     18  C   UNL     1      32.226 -12.417 -22.055  0.00  0.00    +0.001 C 
BRANCH  13  19
ATOM     19  C   UNL     1      31.751  -8.674 -22.308  0.00  0.00    -0.050 C 
BRANCH  19  20
ATOM     20  N   UNL     1      32.166  -7.738 -23.350  0.00  0.00    +0.387 N 
ATOM     21  N   UNL     1      32.666  -5.081 -24.375  0.00  0.00    +0.384 N 
ATOM     22  C   UNL     1      31.062  -6.841 -23.715  0.00  0.00    -0.100 C 
ATOM     23  C   UNL     1      33.336  -6.962 -22.920  0.00  0.00    -0.100 C 
ATOM     24  C   UNL     1      31.496  -5.856 -24.805  0.00  0.00    -0.101 C 
ATOM     25  C   UNL     1      33.769  -5.978 -24.012  0.00  0.00    -0.101 C 
ATOM     26  H   UNL     1      32.425  -8.280 -24.175  0.00  0.00    -0.079 HD
ATOM     27  H   UNL     1      32.407  -4.540 -23.549  0.00  0.00    -0.080 HD
BRANCH  21  28
ATOM     28  C   UNL     1      33.080  -4.143 -25.416  0.00  0.00    -0.078 C 
ATOM     29  C   UNL     1      34.268  -4.679 -26.197  0.00  0.00    -0.025 C 
ENDBRANCH  21  28
ENDBRANCH  19  20
ENDBRANCH  13  19
ENDBRANCH   5  16
BRANCH   2  30
ATOM     30  C   UNL     1      36.325 -18.831 -21.453  0.00  0.00    +0.093 C 
ATOM     31  C   UNL     1      37.033 -19.344 -22.705  0.00  0.00    +0.026 C 
BRANCH  30  32
ATOM     32  C   UNL     1      35.315 -19.811 -20.897  0.00  0.00    -0.005 C 
ATOM     33  C   UNL     1      35.757 -20.871 -20.124  0.00  0.00    -0.003 C 
ATOM     34  C   UNL     1      33.971 -19.628 -21.174  0.00  0.00    -0.003 C 
ATOM     35  C   UNL     1      34.827 -21.775 -19.612  0.00  0.00    -0.000 C 
ATOM     36  C   UNL     1      33.041 -20.532 -20.662  0.00  0.00    -0.000 C 
ATOM     37  C   UNL     1      33.469 -21.606 -19.882  0.00  0.00    -0.000 C 
ENDBRANCH  30  32
ENDBRANCH   2  30
TORSDOF 6
ENDMDL
MODEL 5
REMARK VINA RESULT:     -10.6      2.513     11.918
REMARK  Name = 10297043
REMARK  6 active torsions:
REMARK  status: ('A' for Active; 'I' for Inactive)
REMARK    1  A    between atoms: N_2  and  C_30
REMARK    2  A    between atoms: C_5  and  C_16
REMARK    3  A    between atoms: C_13  and  C_19
REMARK    4  A    between atoms: C_19  and  N_20
REMARK    5  A    between atoms: N_21  and  C_28
REMARK    6  A    between atoms: C_30  and  C_32
REMARK                            x       y       z     vdW  Elec       q    Type
REMARK                         _______ _______ _______ _____ _____    ______ ____
ROOT
ATOM      1  N   UNL     1      34.268 -22.375 -18.082  0.00  0.00    -0.301 N 
ATOM      2  N   UNL     1      37.684 -24.125 -15.430  0.00  0.00    -0.319 N 
ATOM      3  N   UNL     1      33.553 -23.805 -16.278  0.00  0.00    -0.233 NA
ATOM      4  N   UNL     1      35.408 -24.665 -14.955  0.00  0.00    -0.233 NA
ATOM      5  C   UNL     1      35.462 -21.909 -18.571  0.00  0.00    +0.046 C 
ATOM      6  C   UNL     1      35.873 -23.232 -16.790  0.00  0.00    +0.131 C 
ATOM      7  C   UNL     1      36.474 -22.425 -17.789  0.00  0.00    +0.003 C 
ATOM      8  C   UNL     1      34.500 -23.181 -16.999  0.00  0.00    +0.117 C 
ATOM      9  C   UNL     1      36.313 -24.012 -15.721  0.00  0.00    +0.113 C 
ATOM     10  C   UNL     1      34.102 -24.524 -15.277  0.00  0.00    +0.252 C 
ATOM     11  H   UNL     1      33.382 -22.162 -18.453  0.00  0.00    +0.153 HD
ATOM     12  H   UNL     1      38.327 -23.642 -15.999  0.00  0.00    +0.148 HD
ENDROOT
BRANCH   5  16
ATOM     13  C   UNL     1      35.663 -19.351 -21.924  0.00  0.00    -0.043 C 
ATOM     14  C   UNL     1      36.814 -19.615 -21.190  0.00  0.00    -0.006 C 
ATOM     15  C   UNL     1      34.446 -19.919 -21.565  0.00  0.00    -0.006 C 
ATOM     16  C   UNL     1      35.530 -21.036 -19.717  0.00  0.00    +0.013 C 
ATOM     17  C   UNL     1      36.747 -20.461 -20.083  0.00  0.00    +0.001 C 
ATOM     18  C   UNL     1      34.380 -20.765 -20.458  0.00  0.00    +0.001 C 
BRANCH  13  19
ATOM     19  C   UNL     1      35.734 -18.441 -23.116  0.00  0.00    -0.050 C 
BRANCH  19  20
ATOM     20  N   UNL     1      34.871 -17.272 -22.962  0.00  0.00    +0.387 N 
ATOM     21  N   UNL     1      34.357 -14.427 -23.008  0.00  0.00    +0.384 N 
ATOM     22  C   UNL     1      35.373 -16.389 -21.901  0.00  0.00    -0.100 C 
ATOM     23  C   UNL     1      34.756 -16.538 -24.229  0.00  0.00    -0.100 C 
ATOM     24  C   UNL     1      34.472 -15.160 -21.741  0.00  0.00    -0.101 C 
ATOM     25  C   UNL     1      33.853 -15.310 -24.067  0.00  0.00    -0.101 C 
ATOM     26  H   UNL     1      33.942 -17.599 -22.694  0.00  0.00    -0.079 HD
ATOM     27  H   UNL     1      35.286 -14.101 -23.276  0.00  0.00    -0.080 HD
BRANCH  21  28
ATOM     28  C   UNL     1      33.495 -13.256 -22.854  0.00  0.00    -0.078 C 
ATOM     29  C   UNL     1      32.549 -13.422 -21.677  0.00  0.00    -0.025 C 
ENDBRANCH  21  28
ENDBRANCH  19  20
ENDBRANCH  13  19
ENDBRANCH   5  16
BRANCH   2  30
ATOM     30  C   UNL     1      38.191 -24.912 -14.346  0.00  0.00    +0.093 C 
ATOM     31  C   UNL     1      38.053 -26.392 -14.694  0.00  0.00    +0.026 C 
BRANCH  30  32
ATOM     32  C   UNL     1      37.494 -24.538 -13.056  0.00  0.00    -0.005 C 
ATOM     33  C   UNL     1      37.690 -23.275 -12.524  0.00  0.00    -0.003 C 
ATOM     34  C   UNL     1      36.676 -25.466 -12.435  0.00  0.00    -0.003 C 
ATOM     35  C   UNL     1      37.049 -22.930 -11.335  0.00  0.00    -0.000 C 
ATOM     36  C   UNL     1      36.035 -25.121 -11.246  0.00  0.00    -0.000 C 
ATOM     37  C   UNL     1      36.221 -23.853 -10.696  0.00  0.00    -0.000 C 
ENDBRANCH  30  32
ENDBRANCH   2  30
TORSDOF 6
ENDMDL
MODEL 6
REMARK VINA RESULT:     -10.3      1.830     11.317
REMARK  Name = 10297043
REMARK  6 active torsions:
REMARK  status: ('A' for Active; 'I' for Inactive)
REMARK    1  A    between atoms: N_2  and  C_30
REMARK    2  A    between atoms: C_5  and  C_16
REMARK    3  A    between atoms: C_13  and  C_19
REMARK    4  A    between atoms: C_19  and  N_20
REMARK    5  A    between atoms: N_21  and  C_28
REMARK    6  A    between atoms: C_30  and  C_32
REMARK                            x       y       z     vdW  Elec       q    Type
REMARK                         _______ _______ _______ _____ _____    ______ ____
ROOT
ATOM      1  N   UNL     1      36.825 -21.292 -18.977  0.00  0.00    -0.301 N 
ATOM      2  N   UNL     1      33.643 -23.372 -16.273  0.00  0.00    -0.319 N 
ATOM      3  N   UNL     1      37.695 -22.432 -17.039  0.00  0.00    -0.233 NA
ATOM      4  N   UNL     1      35.957 -23.483 -15.696  0.00  0.00    -0.233 NA
ATOM      5  C   UNL     1      35.591 -21.073 -19.534  0.00  0.00    +0.046 C 
ATOM      6  C   UNL     1      35.335 -22.300 -17.658  0.00  0.00    +0.131 C 
ATOM      7  C   UNL     1      34.648 -21.687 -18.737  0.00  0.00    +0.003 C 
ATOM      8  C   UNL     1      36.687 -22.035 -17.835  0.00  0.00    +0.117 C 
ATOM      9  C   UNL     1      34.987 -23.053 -16.537  0.00  0.00    +0.113 C 
ATOM     10  C   UNL     1      37.233 -23.149 -15.994  0.00  0.00    +0.252 C 
ATOM     11  H   UNL     1      37.678 -20.964 -19.342  0.00  0.00    +0.153 HD
ATOM     12  H   UNL     1      32.953 -23.050 -16.897  0.00  0.00    +0.148 HD
ENDROOT
BRANCH   5  16
ATOM     13  C   UNL     1      35.104 -18.848 -23.089  0.00  0.00    -0.043 C 
ATOM     14  C   UNL     1      36.347 -18.888 -22.467  0.00  0.00    -0.006 C 
ATOM     15  C   UNL     1      34.020 -19.531 -22.552  0.00  0.00    -0.006 C 
ATOM     16  C   UNL     1      35.424 -20.313 -20.749  0.00  0.00    +0.013 C 
ATOM     17  C   UNL     1      36.508 -19.625 -21.294  0.00  0.00    +0.001 C 
ATOM     18  C   UNL     1      34.181 -20.267 -21.378  0.00  0.00    +0.001 C 
BRANCH  13  19
ATOM     19  C   UNL     1      34.930 -18.055 -24.352  0.00  0.00    -0.050 C 
BRANCH  19  20
ATOM     20  N   UNL     1      34.255 -16.782 -24.110  0.00  0.00    +0.387 N 
ATOM     21  N   UNL     1      34.099 -13.896 -24.182  0.00  0.00    +0.384 N 
ATOM     22  C   UNL     1      35.026 -15.953 -23.175  0.00  0.00    -0.100 C 
ATOM     23  C   UNL     1      34.032 -16.062 -25.370  0.00  0.00    -0.100 C 
ATOM     24  C   UNL     1      34.322 -14.616 -22.922  0.00  0.00    -0.101 C 
ATOM     25  C   UNL     1      33.327 -14.725 -25.115  0.00  0.00    -0.101 C 
ATOM     26  H   UNL     1      33.348 -16.983 -23.689  0.00  0.00    -0.079 HD
ATOM     27  H   UNL     1      35.006 -13.697 -24.604  0.00  0.00    -0.080 HD
BRANCH  21  28
ATOM     28  C   UNL     1      33.425 -12.622 -23.940  0.00  0.00    -0.078 C 
ATOM     29  C   UNL     1      34.089 -11.495 -24.713  0.00  0.00    -0.025 C 
ENDBRANCH  21  28
ENDBRANCH  19  20
ENDBRANCH  13  19
ENDBRANCH   5  16
BRANCH   2  30
ATOM     30  C   UNL     1      33.231 -24.141 -15.137  0.00  0.00    +0.093 C 
ATOM     31  C   UNL     1      34.031 -25.441 -15.096  0.00  0.00    +0.026 C 
BRANCH  30  32
ATOM     32  C   UNL     1      31.735 -24.364 -15.170  0.00  0.00    -0.005 C 
ATOM     33  C   UNL     1      30.956 -23.599 -16.021  0.00  0.00    -0.003 C 
ATOM     34  C   UNL     1      31.176 -25.328 -14.348  0.00  0.00    -0.003 C 
ATOM     35  C   UNL     1      29.577 -23.805 -16.052  0.00  0.00    -0.000 C 
ATOM     36  C   UNL     1      29.798 -25.533 -14.378  0.00  0.00    -0.000 C 
ATOM     37  C   UNL     1      28.998 -24.772 -15.230  0.00  0.00    -0.000 C 
ENDBRANCH  30  32
ENDBRANCH   2  30
TORSDOF 6
ENDMDL
MODEL 7
REMARK VINA RESULT:     -10.2      2.692     11.018
REMARK  Name = 10297043
REMARK  6 active torsions:
REMARK  status: ('A' for Active; 'I' for Inactive)
REMARK    1  A    between atoms: N_2  and  C_30
REMARK    2  A    between atoms: C_5  and  C_16
REMARK    3  A    between atoms: C_13  and  C_19
REMARK    4  A    between atoms: C_19  and  N_20
REMARK    5  A    between atoms: N_21  and  C_28
REMARK    6  A    between atoms: C_30  and  C_32
REMARK                            x       y       z     vdW  Elec       q    Type
REMARK                         _______ _______ _______ _____ _____    ______ ____
ROOT
ATOM      1  N   UNL     1      34.999 -22.303 -18.429  0.00  0.00    -0.301 N 
ATOM      2  N   UNL     1      30.724 -23.153 -16.763  0.00  0.00    -0.319 N 
ATOM      3  N   UNL     1      34.901 -23.771 -16.519  0.00  0.00    -0.233 NA
ATOM      4  N   UNL     1      32.630 -24.151 -15.728  0.00  0.00    -0.233 NA
ATOM      5  C   UNL     1      34.100 -21.612 -19.202  0.00  0.00    +0.046 C 
ATOM      6  C   UNL     1      32.972 -22.735 -17.603  0.00  0.00    +0.131 C 
ATOM      7  C   UNL     1      32.835 -21.862 -18.712  0.00  0.00    +0.003 C 
ATOM      8  C   UNL     1      34.329 -22.990 -17.452  0.00  0.00    +0.117 C 
ATOM      9  C   UNL     1      32.115 -23.351 -16.691  0.00  0.00    +0.113 C 
ATOM     10  C   UNL     1      33.973 -24.308 -15.701  0.00  0.00    +0.252 C 
ATOM     11  H   UNL     1      35.975 -22.304 -18.558  0.00  0.00    +0.153 HD
ATOM     12  H   UNL     1      30.370 -22.568 -17.472  0.00  0.00    +0.148 HD
ENDROOT
BRANCH   5  16
ATOM     13  C   UNL     1      35.326 -19.211 -22.451  0.00  0.00    -0.043 C 
ATOM     14  C   UNL     1      36.272 -19.679 -21.546  0.00  0.00    -0.006 C 
ATOM     15  C   UNL     1      33.981 -19.524 -22.297  0.00  0.00    -0.006 C 
ATOM     16  C   UNL     1      34.519 -20.792 -20.312  0.00  0.00    +0.013 C 
ATOM     17  C   UNL     1      35.867 -20.474 -20.474  0.00  0.00    +0.001 C 
ATOM     18  C   UNL     1      33.576 -20.318 -21.224  0.00  0.00    +0.001 C 
BRANCH  13  19
ATOM     19  C   UNL     1      35.761 -18.356 -23.606  0.00  0.00    -0.050 C 
BRANCH  19  20
ATOM     20  N   UNL     1      34.786 -17.311 -23.911  0.00  0.00    +0.387 N 
ATOM     21  N   UNL     1      34.015 -14.750 -25.006  0.00  0.00    +0.384 N 
ATOM     22  C   UNL     1      35.140 -16.056 -23.236  0.00  0.00    -0.100 C 
ATOM     23  C   UNL     1      34.681 -17.103 -25.360  0.00  0.00    -0.100 C 
ATOM     24  C   UNL     1      34.121 -14.957 -23.557  0.00  0.00    -0.101 C 
ATOM     25  C   UNL     1      33.660 -16.004 -25.679  0.00  0.00    -0.101 C 
ATOM     26  H   UNL     1      33.877 -17.618 -23.563  0.00  0.00    -0.079 HD
ATOM     27  H   UNL     1      34.924 -14.444 -25.354  0.00  0.00    -0.080 HD
BRANCH  21  28
ATOM     28  C   UNL     1      33.041 -13.703 -25.311  0.00  0.00    -0.078 C 
ATOM     29  C   UNL     1      33.235 -13.166 -26.719  0.00  0.00    -0.025 C 
ENDBRANCH  21  28
ENDBRANCH  19  20
ENDBRANCH  13  19
ENDBRANCH   5  16
BRANCH   2  30
ATOM     30  C   UNL     1      29.800 -23.761 -15.854  0.00  0.00    +0.093 C 
ATOM     31  C   UNL     1      29.833 -25.275 -16.044  0.00  0.00    +0.026 C 
BRANCH  30  32
ATOM     32  C   UNL     1      28.419 -23.169 -16.036  0.00  0.00    -0.005 C 
ATOM     33  C   UNL     1      27.912 -23.018 -17.315  0.00  0.00    -0.003 C 
ATOM     34  C   UNL     1      27.693 -22.791 -14.920  0.00  0.00    -0.003 C 
ATOM     35  C   UNL     1      26.640 -22.472 -17.483  0.00  0.00    -0.000 C 
ATOM     36  C   UNL     1      26.421 -22.246 -15.088  0.00  0.00    -0.000 C 
ATOM     37  C   UNL     1      25.894 -22.086 -16.369  0.00  0.00    -0.000 C 
ENDBRANCH  30  32
ENDBRANCH   2  30
TORSDOF 6
ENDMDL
MODEL 8
REMARK VINA RESULT:     -10.2      4.381      8.535
REMARK  Name = 10297043
REMARK  6 active torsions:
REMARK  status: ('A' for Active; 'I' for Inactive)
REMARK    1  A    between atoms: N_2  and  C_30
REMARK    2  A    between atoms: C_5  and  C_16
REMARK    3  A    between atoms: C_13  and  C_19
REMARK    4  A    between atoms: C_19  and  N_20
REMARK    5  A    between atoms: N_21  and  C_28
REMARK    6  A    between atoms: C_30  and  C_32
REMARK                            x       y       z     vdW  Elec       q    Type
REMARK                         _______ _______ _______ _____ _____    ______ ____
ROOT
ATOM      1  N   UNL     1      32.754  -9.862 -21.654  0.00  0.00    -0.301 N 
ATOM      2  N   UNL     1      32.423  -5.719 -23.773  0.00  0.00    -0.319 N 
ATOM      3  N   UNL     1      32.432  -7.971 -20.193  0.00  0.00    -0.233 NA
ATOM      4  N   UNL     1      32.271  -5.859 -21.394  0.00  0.00    -0.233 NA
ATOM      5  C   UNL     1      32.874 -10.069 -23.005  0.00  0.00    +0.046 C 
ATOM      6  C   UNL     1      32.591  -7.862 -22.629  0.00  0.00    +0.131 C 
ATOM      7  C   UNL     1      32.776  -8.845 -23.634  0.00  0.00    +0.003 C 
ATOM      8  C   UNL     1      32.582  -8.525 -21.408  0.00  0.00    +0.117 C 
ATOM      9  C   UNL     1      32.428  -6.477 -22.589  0.00  0.00    +0.113 C 
ATOM     10  C   UNL     1      32.284  -6.634 -20.286  0.00  0.00    +0.252 C 
ATOM     11  H   UNL     1      32.787 -10.566 -20.967  0.00  0.00    +0.153 HD
ATOM     12  H   UNL     1      32.538  -6.187 -24.631  0.00  0.00    +0.148 HD
ENDROOT
BRANCH   5  16
ATOM     13  C   UNL     1      33.444 -13.919 -24.639  0.00  0.00    -0.043 C 
ATOM     14  C   UNL     1      33.820 -12.799 -25.371  0.00  0.00    -0.006 C 
ATOM     15  C   UNL     1      32.882 -13.786 -23.375  0.00  0.00    -0.006 C 
ATOM     16  C   UNL     1      33.069 -11.384 -23.562  0.00  0.00    +0.013 C 
ATOM     17  C   UNL     1      33.632 -11.527 -24.830  0.00  0.00    +0.001 C 
ATOM     18  C   UNL     1      32.694 -12.514 -22.835  0.00  0.00    +0.001 C 
BRANCH  13  19
ATOM     19  C   UNL     1      33.646 -15.289 -25.221  0.00  0.00    -0.050 C 
BRANCH  19  20
ATOM     20  N   UNL     1      34.001 -16.270 -24.198  0.00  0.00    +0.387 N 
ATOM     21  N   UNL     1      35.886 -17.934 -22.770  0.00  0.00    +0.384 N 
ATOM     22  C   UNL     1      34.567 -17.479 -24.810  0.00  0.00    -0.100 C 
ATOM     23  C   UNL     1      34.944 -15.696 -23.229  0.00  0.00    -0.100 C 
ATOM     24  C   UNL     1      34.944 -18.508 -23.738  0.00  0.00    -0.101 C 
ATOM     25  C   UNL     1      35.319 -16.726 -22.158  0.00  0.00    -0.101 C 
ATOM     26  H   UNL     1      33.148 -16.530 -23.701  0.00  0.00    -0.079 HD
ATOM     27  H   UNL     1      36.738 -17.672 -23.267  0.00  0.00    -0.080 HD
BRANCH  21  28
ATOM     28  C   UNL     1      36.243 -18.915 -21.748  0.00  0.00    -0.078 C 
ATOM     29  C   UNL     1      35.051 -19.779 -21.376  0.00  0.00    -0.025 C 
ENDBRANCH  21  28
ENDBRANCH  19  20
ENDBRANCH  13  19
ENDBRANCH   5  16
BRANCH   2  30
ATOM     30  C   UNL     1      32.260  -4.296 -23.788  0.00  0.00    +0.093 C 
ATOM     31  C   UNL     1      30.819  -3.953 -23.418  0.00  0.00    +0.026 C 
BRANCH  30  32
ATOM     32  C   UNL     1      32.678  -3.735 -25.130  0.00  0.00    -0.005 C 
ATOM     33  C   UNL     1      32.319  -2.439 -25.462  0.00  0.00    -0.003 C 
ATOM     34  C   UNL     1      33.409  -4.528 -25.997  0.00  0.00    -0.003 C 
ATOM     35  C   UNL     1      32.704  -1.922 -26.698  0.00  0.00    -0.000 C 
ATOM     36  C   UNL     1      33.794  -4.010 -27.234  0.00  0.00    -0.000 C 
ATOM     37  C   UNL     1      33.441  -2.707 -27.584  0.00  0.00    -0.000 C 
ENDBRANCH  30  32
ENDBRANCH   2  30
TORSDOF 6
ENDMDL
MODEL 9
REMARK VINA RESULT:     -10.0      3.728      7.175
REMARK  Name = 10297043
REMARK  6 active torsions:
REMARK  status: ('A' for Active; 'I' for Inactive)
REMARK    1  A    between atoms: N_2  and  C_30
REMARK    2  A    between atoms: C_5  and  C_16
REMARK    3  A    between atoms: C_13  and  C_19
REMARK    4  A    between atoms: C_19  and  N_20
REMARK    5  A    between atoms: N_21  and  C_28
REMARK    6  A    between atoms: C_30  and  C_32
REMARK                            x       y       z     vdW  Elec       q    Type
REMARK                         _______ _______ _______ _____ _____    ______ ____
ROOT
ATOM      1  N   UNL     1      32.499 -11.144 -21.657  0.00  0.00    -0.301 N 
ATOM      2  N   UNL     1      32.870  -7.109 -23.971  0.00  0.00    -0.319 N 
ATOM      3  N   UNL     1      31.699  -9.196 -20.483  0.00  0.00    -0.233 NA
ATOM      4  N   UNL     1      31.936  -7.145 -21.774  0.00  0.00    -0.233 NA
ATOM      5  C   UNL     1      33.063 -11.409 -22.879  0.00  0.00    +0.046 C 
ATOM      6  C   UNL     1      32.659  -9.194 -22.730  0.00  0.00    +0.131 C 
ATOM      7  C   UNL     1      33.173 -10.218 -23.566  0.00  0.00    +0.003 C 
ATOM      8  C   UNL     1      32.248  -9.801 -21.550  0.00  0.00    +0.117 C 
ATOM      9  C   UNL     1      32.485  -7.813 -22.816  0.00  0.00    +0.113 C 
ATOM     10  C   UNL     1      31.583  -7.867 -20.687  0.00  0.00    +0.252 C 
ATOM     11  H   UNL     1      32.306 -11.815 -20.964  0.00  0.00    +0.153 HD
ATOM     12  H   UNL     1      33.267  -7.614 -24.717  0.00  0.00    +0.148 HD
ENDROOT
BRANCH   5  16
ATOM     13  C   UNL     1      34.166 -15.317 -24.033  0.00  0.00    -0.043 C 
ATOM     14  C   UNL     1      34.533 -14.841 -22.779  0.00  0.00    -0.006 C 
ATOM     15  C   UNL     1      33.441 -14.521 -24.911  0.00  0.00    -0.006 C 
ATOM     16  C   UNL     1      33.439 -12.744 -23.273  0.00  0.00    +0.013 C 
ATOM     17  C   UNL     1      34.167 -13.550 -22.398  0.00  0.00    +0.001 C 
ATOM     18  C   UNL     1      33.076 -13.229 -24.529  0.00  0.00    +0.001 C 
BRANCH  13  19
ATOM     19  C   UNL     1      34.560 -16.707 -24.444  0.00  0.00    -0.050 C 
BRANCH  19  20
ATOM     20  N   UNL     1      34.545 -17.634 -23.315  0.00  0.00    +0.387 N 
ATOM     21  N   UNL     1      35.704 -19.719 -21.681  0.00  0.00    +0.384 N 
ATOM     22  C   UNL     1      34.607 -19.025 -23.783  0.00  0.00    -0.100 C 
ATOM     23  C   UNL     1      35.654 -17.354 -22.395  0.00  0.00    -0.100 C 
ATOM     24  C   UNL     1      34.596 -20.000 -22.601  0.00  0.00    -0.101 C 
ATOM     25  C   UNL     1      35.641 -18.329 -21.213  0.00  0.00    -0.101 C 
ATOM     26  H   UNL     1      33.668 -17.503 -22.811  0.00  0.00    -0.079 HD
ATOM     27  H   UNL     1      36.582 -19.848 -22.185  0.00  0.00    -0.080 HD
BRANCH  21  28
ATOM     28  C   UNL     1      35.692 -20.648 -20.553  0.00  0.00    -0.078 C 
ATOM     29  C   UNL     1      34.270 -20.995 -20.143  0.00  0.00    -0.025 C 
ENDBRANCH  21  28
ENDBRANCH  19  20
ENDBRANCH  13  19
ENDBRANCH   5  16
BRANCH   2  30
ATOM     30  C   UNL     1      32.714  -5.693 -24.111  0.00  0.00    +0.093 C 
ATOM     31  C   UNL     1      31.227  -5.358 -24.196  0.00  0.00    +0.026 C 
BRANCH  30  32
ATOM     32  C   UNL     1      33.504  -5.193 -25.301  0.00  0.00    -0.005 C 
ATOM     33  C   UNL     1      34.832  -5.562 -25.433  0.00  0.00    -0.003 C 
ATOM     34  C   UNL     1      32.884  -4.377 -26.231  0.00  0.00    -0.003 C 
ATOM     35  C   UNL     1      35.561  -5.101 -26.529  0.00  0.00    -0.000 C 
ATOM     36  C   UNL     1      33.612  -3.917 -27.327  0.00  0.00    -0.000 C 
ATOM     37  C   UNL     1      34.951  -4.278 -27.476  0.00  0.00    -0.000 C 
ENDBRANCH  30  32
ENDBRANCH   2  30
TORSDOF 6
ENDMDL
