MODEL 1
REMARK VINA RESULT:     -11.7      0.000      0.000
REMARK  Name = 9810927
REMARK  6 active torsions:
REMARK  status: ('A' for Active; 'I' for Inactive)
REMARK    1  A    between atoms: N_1  and  C_13
REMARK    2  A    between atoms: C_11  and  O_24
REMARK    3  A    between atoms: C_12  and  O_26
REMARK    4  A    between atoms: C_14  and  C_18
REMARK    5  A    between atoms: C_19  and  C_20
REMARK    6  A    between atoms: N_28  and  C_32
REMARK                            x       y       z     vdW  Elec       q    Type
REMARK                         _______ _______ _______ _____ _____    ______ ____
ROOT
ATOM      1  N   UNL     1      36.129 -23.598 -16.059  0.00  0.00    -0.247 N 
ATOM      2  N   UNL     1      37.217 -21.979 -17.142  0.00  0.00    -0.242 NA
ATOM      3  N   UNL     1      34.164 -23.795 -17.475  0.00  0.00    -0.228 NA
ATOM      4  N   UNL     1      34.254 -22.226 -19.343  0.00  0.00    -0.228 NA
ATOM      5  C   UNL     1      35.348 -23.265 -17.131  0.00  0.00    +0.152 C 
ATOM      6  C   UNL     1      37.240 -22.797 -16.110  0.00  0.00    +0.223 C 
ATOM      7  C   UNL     1      36.041 -22.261 -17.789  0.00  0.00    +0.140 C 
ATOM      8  C   UNL     1      35.451 -21.738 -18.936  0.00  0.00    +0.150 C 
ATOM      9  C   UNL     1      33.694 -23.210 -18.598  0.00  0.00    +0.253 C 
ATOM     10  N   UNL     1      36.084 -20.718 -19.667  0.00  0.00    -0.295 N 
ATOM     11  H   UNL     1      36.948 -20.438 -19.286  0.00  0.00    +0.154 HD
ENDROOT
BRANCH  10  14
ATOM     12 CL   UNL     1      34.582 -17.774 -24.578  0.00  0.00    -0.082 Cl
ATOM     13  F   UNL     1      37.905 -19.079 -20.988  0.00  0.00    -0.203 F 
ATOM     14  C   UNL     1      35.728 -20.015 -20.838  0.00  0.00    +0.077 C 
ATOM     15  C   UNL     1      36.663 -19.202 -21.477  0.00  0.00    +0.154 C 
ATOM     16  C   UNL     1      34.439 -20.135 -21.354  0.00  0.00    +0.018 C 
ATOM     17  C   UNL     1      36.309 -18.509 -22.634  0.00  0.00    +0.042 C 
ATOM     18  C   UNL     1      34.083 -19.442 -22.510  0.00  0.00    +0.013 C 
ATOM     19  C   UNL     1      35.018 -18.629 -23.151  0.00  0.00    +0.060 C 
ENDBRANCH  10  14
BRANCH   1  23
ATOM     20  O   UNL     1      34.421 -24.844 -14.968  0.00  0.00    -0.326 OA
ATOM     21  C   UNL     1      36.311 -24.233 -13.644  0.00  0.00    +0.187 C 
ATOM     22  C   UNL     1      35.037 -23.717 -13.002  0.00  0.00    +0.178 C 
ATOM     23  C   UNL     1      35.843 -24.614 -15.043  0.00  0.00    +0.225 C 
ATOM     24  C   UNL     1      33.978 -24.628 -13.608  0.00  0.00    +0.223 C 
BRANCH  24  28
ATOM     25  O   UNL     1      31.933 -24.192 -14.873  0.00  0.00    -0.421 OA
ATOM     26  N   UNL     1      31.832 -23.568 -12.727  0.00  0.00    -0.109 NA
ATOM     27  N   UNL     1      30.619 -23.264 -13.318  0.00  0.00    -0.112 NA
ATOM     28  C   UNL     1      32.558 -24.104 -13.672  0.00  0.00    +0.255 A 
ATOM     29  C   UNL     1      30.724 -23.645 -14.569  0.00  0.00    +0.225 A 
BRANCH  29  30
ATOM     30  C   UNL     1      29.740 -23.568 -15.656  0.00  0.00    +0.070 C 
ATOM     31  C   UNL     1      29.155 -24.977 -16.041  0.00  0.00    +0.009 C 
ATOM     32  C   UNL     1      30.342 -22.959 -16.975  0.00  0.00    +0.009 C 
ATOM     33  C   UNL     1      28.463 -22.685 -15.370  0.00  0.00    +0.009 C 
ENDBRANCH  29  30
ENDBRANCH  24  28
BRANCH  21  34
ATOM     34  O   UNL     1      36.756 -25.421 -12.992  0.00  0.00    -0.378 OA
ATOM     35  H   UNL     1      36.261 -26.182 -13.335  0.00  0.00    +0.211 HD
ENDBRANCH  21  34
BRANCH  22  36
ATOM     36  O   UNL     1      35.068 -23.803 -11.591  0.00  0.00    -0.379 OA
ATOM     37  H   UNL     1      34.208 -24.116 -11.268  0.00  0.00    +0.211 HD
ENDBRANCH  22  36
ENDBRANCH   1  23
TORSDOF 6
ENDMDL
MODEL 2
REMARK VINA RESULT:     -10.6     11.832     15.719
REMARK  Name = 9810927
REMARK  6 active torsions:
REMARK  status: ('A' for Active; 'I' for Inactive)
REMARK    1  A    between atoms: N_1  and  C_13
REMARK    2  A    between atoms: C_11  and  O_24
REMARK    3  A    between atoms: C_12  and  O_26
REMARK    4  A    between atoms: C_14  and  C_18
REMARK    5  A    between atoms: C_19  and  C_20
REMARK    6  A    between atoms: N_28  and  C_32
REMARK                            x       y       z     vdW  Elec       q    Type
REMARK                         _______ _______ _______ _____ _____    ______ ____
ROOT
ATOM      1  N   UNL     1      32.207 -10.143 -22.224  0.00  0.00    -0.247 N 
ATOM      2  N   UNL     1      33.300 -11.145 -23.891  0.00  0.00    -0.242 NA
ATOM      3  N   UNL     1      31.755 -12.068 -20.811  0.00  0.00    -0.228 NA
ATOM      4  N   UNL     1      32.649 -14.117 -21.788  0.00  0.00    -0.228 NA
ATOM      5  C   UNL     1      32.257 -11.472 -21.903  0.00  0.00    +0.152 C 
ATOM      6  C   UNL     1      32.846  -9.999 -23.427  0.00  0.00    +0.223 C 
ATOM      7  C   UNL     1      32.939 -12.073 -22.948  0.00  0.00    +0.140 C 
ATOM      8  C   UNL     1      33.130 -13.449 -22.865  0.00  0.00    +0.150 C 
ATOM      9  C   UNL     1      32.001 -13.395 -20.842  0.00  0.00    +0.253 C 
ATOM     10  N   UNL     1      33.812 -14.142 -23.880  0.00  0.00    -0.295 N 
ATOM     11  H   UNL     1      34.121 -13.563 -24.614  0.00  0.00    +0.154 HD
ENDROOT
BRANCH  10  14
ATOM     12 CL   UNL     1      35.207 -19.849 -24.610  0.00  0.00    -0.082 Cl
ATOM     13  F   UNL     1      32.963 -15.567 -26.115  0.00  0.00    -0.203 F 
ATOM     14  C   UNL     1      34.144 -15.502 -24.056  0.00  0.00    +0.077 C 
ATOM     15  C   UNL     1      33.703 -16.189 -25.187  0.00  0.00    +0.154 C 
ATOM     16  C   UNL     1      34.913 -16.159 -23.096  0.00  0.00    +0.018 C 
ATOM     17  C   UNL     1      34.031 -17.533 -25.358  0.00  0.00    +0.042 C 
ATOM     18  C   UNL     1      35.241 -17.504 -23.267  0.00  0.00    +0.013 C 
ATOM     19  C   UNL     1      34.802 -18.191 -24.398  0.00  0.00    +0.060 C 
ENDBRANCH  10  14
BRANCH   1  23
ATOM     20  O   UNL     1      31.310  -7.941 -22.290  0.00  0.00    -0.326 OA
ATOM     21  C   UNL     1      32.459  -8.568 -20.294  0.00  0.00    +0.187 C 
ATOM     22  C   UNL     1      33.083  -7.317 -20.883  0.00  0.00    +0.178 C 
ATOM     23  C   UNL     1      31.589  -9.071 -21.440  0.00  0.00    +0.225 C 
ATOM     24  C   UNL     1      31.954  -6.767 -21.744  0.00  0.00    +0.223 C 
BRANCH  24  28
ATOM     25  O   UNL     1      31.731  -4.660 -22.961  0.00  0.00    -0.421 OA
ATOM     26  N   UNL     1      33.168  -6.103 -23.886  0.00  0.00    -0.109 NA
ATOM     27  N   UNL     1      33.140  -4.965 -24.672  0.00  0.00    -0.112 NA
ATOM     28  C   UNL     1      32.334  -5.875 -22.907  0.00  0.00    +0.255 A 
ATOM     29  C   UNL     1      32.288  -4.151 -24.094  0.00  0.00    +0.225 A 
BRANCH  29  30
ATOM     30  C   UNL     1      31.868  -2.801 -24.490  0.00  0.00    +0.070 C 
ATOM     31  C   UNL     1      32.794  -2.183 -25.601  0.00  0.00    +0.009 C 
ATOM     32  C   UNL     1      31.876  -1.788 -23.287  0.00  0.00    +0.009 C 
ATOM     33  C   UNL     1      30.412  -2.679 -25.088  0.00  0.00    +0.009 C 
ENDBRANCH  29  30
ENDBRANCH  24  28
BRANCH  21  34
ATOM     34  O   UNL     1      31.599  -8.235 -19.205  0.00  0.00    -0.378 OA
ATOM     35  H   UNL     1      30.990  -8.972 -19.038  0.00  0.00    +0.211 HD
ENDBRANCH  21  34
BRANCH  22  36
ATOM     36  O   UNL     1      33.492  -6.397 -19.891  0.00  0.00    -0.379 OA
ATOM     37  H   UNL     1      34.128  -6.825 -19.295  0.00  0.00    +0.211 HD
ENDBRANCH  22  36
ENDBRANCH   1  23
TORSDOF 6
ENDMDL
MODEL 3
REMARK VINA RESULT:     -10.4      2.576      3.754
REMARK  Name = 9810927
REMARK  6 active torsions:
REMARK  status: ('A' for Active; 'I' for Inactive)
REMARK    1  A    between atoms: N_1  and  C_13
REMARK    2  A    between atoms: C_11  and  O_24
REMARK    3  A    between atoms: C_12  and  O_26
REMARK    4  A    between atoms: C_14  and  C_18
REMARK    5  A    between atoms: C_19  and  C_20
REMARK    6  A    between atoms: N_28  and  C_32
REMARK                            x       y       z     vdW  Elec       q    Type
REMARK                         _______ _______ _______ _____ _____    ______ ____
ROOT
ATOM      1  N   UNL     1      36.449 -21.378 -19.312  0.00  0.00    -0.247 N 
ATOM      2  N   UNL     1      37.284 -19.575 -20.327  0.00  0.00    -0.242 NA
ATOM      3  N   UNL     1      34.178 -21.323 -20.175  0.00  0.00    -0.228 NA
ATOM      4  N   UNL     1      33.845 -19.432 -21.681  0.00  0.00    -0.228 NA
ATOM      5  C   UNL     1      35.431 -20.857 -20.062  0.00  0.00    +0.152 C 
ATOM      6  C   UNL     1      37.540 -20.572 -19.505  0.00  0.00    +0.223 C 
ATOM      7  C   UNL     1      35.970 -19.742 -20.683  0.00  0.00    +0.140 C 
ATOM      8  C   UNL     1      35.126 -19.019 -21.520  0.00  0.00    +0.150 C 
ATOM      9  C   UNL     1      33.457 -20.542 -21.008  0.00  0.00    +0.253 C 
ATOM     10  N   UNL     1      35.589 -17.874 -22.191  0.00  0.00    -0.295 N 
ATOM     11  H   UNL     1      36.533 -17.662 -22.006  0.00  0.00    +0.154 HD
ENDROOT
BRANCH  10  14
ATOM     12 CL   UNL     1      32.995 -14.079 -25.922  0.00  0.00    -0.082 Cl
ATOM     13  F   UNL     1      35.004 -15.262 -21.427  0.00  0.00    -0.203 F 
ATOM     14  C   UNL     1      34.971 -16.967 -23.079  0.00  0.00    +0.077 C 
ATOM     15  C   UNL     1      34.690 -15.666 -22.667  0.00  0.00    +0.154 C 
ATOM     16  C   UNL     1      34.640 -17.377 -24.370  0.00  0.00    +0.018 C 
ATOM     17  C   UNL     1      34.079 -14.772 -23.546  0.00  0.00    +0.042 C 
ATOM     18  C   UNL     1      34.028 -16.484 -25.249  0.00  0.00    +0.013 C 
ATOM     19  C   UNL     1      33.749 -15.182 -24.838  0.00  0.00    +0.060 C 
ENDBRANCH  10  14
BRANCH   1  23
ATOM     20  O   UNL     1      35.064 -23.125 -18.481  0.00  0.00    -0.326 OA
ATOM     21  C   UNL     1      36.745 -22.298 -17.002  0.00  0.00    +0.187 C 
ATOM     22  C   UNL     1      35.379 -22.184 -16.352  0.00  0.00    +0.178 C 
ATOM     23  C   UNL     1      36.394 -22.569 -18.460  0.00  0.00    +0.225 C 
ATOM     24  C   UNL     1      34.566 -23.215 -17.126  0.00  0.00    +0.223 C 
BRANCH  24  28
ATOM     25  O   UNL     1      32.353 -23.524 -16.138  0.00  0.00    -0.421 OA
ATOM     26  N   UNL     1      32.338 -22.440 -18.094  0.00  0.00    -0.109 NA
ATOM     27  N   UNL     1      31.031 -22.546 -17.654  0.00  0.00    -0.112 NA
ATOM     28  C   UNL     1      33.065 -23.024 -17.179  0.00  0.00    +0.255 A 
ATOM     29  C   UNL     1      31.089 -23.185 -16.510  0.00  0.00    +0.225 A 
BRANCH  29  30
ATOM     30  C   UNL     1      30.004 -23.571 -15.598  0.00  0.00    +0.070 C 
ATOM     31  C   UNL     1      30.390 -23.378 -14.086  0.00  0.00    +0.009 C 
ATOM     32  C   UNL     1      29.583 -25.078 -15.763  0.00  0.00    +0.009 C 
ATOM     33  C   UNL     1      28.652 -22.772 -15.757  0.00  0.00    +0.009 C 
ENDBRANCH  29  30
ENDBRANCH  24  28
BRANCH  21  34
ATOM     34  O   UNL     1      37.446 -23.435 -16.502  0.00  0.00    -0.378 OA
ATOM     35  H   UNL     1      36.828 -24.178 -16.405  0.00  0.00    +0.211 HD
ENDBRANCH  21  34
BRANCH  22  36
ATOM     36  O   UNL     1      35.412 -22.465 -14.967  0.00  0.00    -0.379 OA
ATOM     37  H   UNL     1      35.950 -21.795 -14.515  0.00  0.00    +0.211 HD
ENDBRANCH  22  36
ENDBRANCH   1  23
TORSDOF 6
ENDMDL
MODEL 4
REMARK VINA RESULT:     -10.2      5.816     10.259
REMARK  Name = 9810927
REMARK  6 active torsions:
REMARK  status: ('A' for Active; 'I' for Inactive)
REMARK    1  A    between atoms: N_1  and  C_13
REMARK    2  A    between atoms: C_11  and  O_24
REMARK    3  A    between atoms: C_12  and  O_26
REMARK    4  A    between atoms: C_14  and  C_18
REMARK    5  A    between atoms: C_19  and  C_20
REMARK    6  A    between atoms: N_28  and  C_32
REMARK                            x       y       z     vdW  Elec       q    Type
REMARK                         _______ _______ _______ _____ _____    ______ ____
ROOT
ATOM      1  N   UNL     1      34.245 -20.307 -21.581  0.00  0.00    -0.247 N 
ATOM      2  N   UNL     1      32.320 -20.644 -20.504  0.00  0.00    -0.242 NA
ATOM      3  N   UNL     1      35.747 -21.566 -20.145  0.00  0.00    -0.228 NA
ATOM      4  N   UNL     1      34.549 -22.580 -18.276  0.00  0.00    -0.228 NA
ATOM      5  C   UNL     1      34.545 -21.089 -20.500  0.00  0.00    +0.152 C 
ATOM      6  C   UNL     1      32.897 -20.066 -21.538  0.00  0.00    +0.223 C 
ATOM      7  C   UNL     1      33.338 -21.287 -19.848  0.00  0.00    +0.140 C 
ATOM      8  C   UNL     1      33.367 -22.065 -18.695  0.00  0.00    +0.150 C 
ATOM      9  C   UNL     1      35.649 -22.302 -19.017  0.00  0.00    +0.253 C 
ATOM     10  N   UNL     1      32.190 -22.318 -17.970  0.00  0.00    -0.295 N 
ATOM     11  H   UNL     1      31.388 -21.899 -18.360  0.00  0.00    +0.154 HD
ENDROOT
BRANCH  10  14
ATOM     12 CL   UNL     1      31.098 -25.402 -13.036  0.00  0.00    -0.082 Cl
ATOM     13  F   UNL     1      29.587 -22.800 -17.108  0.00  0.00    -0.203 F 
ATOM     14  C   UNL     1      31.927 -23.053 -16.794  0.00  0.00    +0.077 C 
ATOM     15  C   UNL     1      30.612 -23.278 -16.389  0.00  0.00    +0.154 C 
ATOM     16  C   UNL     1      32.986 -23.554 -16.038  0.00  0.00    +0.018 C 
ATOM     17  C   UNL     1      30.355 -24.004 -15.226  0.00  0.00    +0.042 C 
ATOM     18  C   UNL     1      32.730 -24.280 -14.875  0.00  0.00    +0.013 C 
ATOM     19  C   UNL     1      31.415 -24.506 -14.470  0.00  0.00    +0.060 C 
ENDBRANCH  10  14
BRANCH   1  23
ATOM     20  O   UNL     1      35.560 -18.456 -22.291  0.00  0.00    -0.326 OA
ATOM     21  C   UNL     1      34.608 -19.813 -24.009  0.00  0.00    +0.187 C 
ATOM     22  C   UNL     1      34.178 -18.369 -24.188  0.00  0.00    +0.178 C 
ATOM     23  C   UNL     1      35.179 -19.813 -22.595  0.00  0.00    +0.225 C 
ATOM     24  C   UNL     1      35.260 -17.613 -23.428  0.00  0.00    +0.223 C 
BRANCH  24  28
ATOM     25  O   UNL     1      34.222 -15.422 -23.732  0.00  0.00    -0.421 OA
ATOM     26  N   UNL     1      35.174 -15.713 -21.728  0.00  0.00    -0.109 NA
ATOM     27  N   UNL     1      34.632 -14.441 -21.763  0.00  0.00    -0.112 NA
ATOM     28  C   UNL     1      34.909 -16.240 -22.894  0.00  0.00    +0.255 A 
ATOM     29  C   UNL     1      34.088 -14.316 -22.950  0.00  0.00    +0.225 A 
BRANCH  29  30
ATOM     30  C   UNL     1      33.369 -13.175 -23.534  0.00  0.00    +0.070 C 
ATOM     31  C   UNL     1      32.172 -12.692 -22.636  0.00  0.00    +0.009 C 
ATOM     32  C   UNL     1      32.763 -13.503 -24.948  0.00  0.00    +0.009 C 
ATOM     33  C   UNL     1      34.224 -11.870 -23.773  0.00  0.00    +0.009 C 
ENDBRANCH  29  30
ENDBRANCH  24  28
BRANCH  21  34
ATOM     34  O   UNL     1      35.666 -20.137 -24.909  0.00  0.00    -0.378 OA
ATOM     35  H   UNL     1      36.379 -20.581 -24.422  0.00  0.00    +0.211 HD
ENDBRANCH  21  34
BRANCH  22  36
ATOM     36  O   UNL     1      34.117 -17.986 -25.547  0.00  0.00    -0.379 OA
ATOM     37  H   UNL     1      33.499 -17.245 -25.647  0.00  0.00    +0.211 HD
ENDBRANCH  22  36
ENDBRANCH   1  23
TORSDOF 6
ENDMDL
MODEL 5
REMARK VINA RESULT:     -10.0     12.056     16.393
REMARK  Name = 9810927
REMARK  6 active torsions:
REMARK  status: ('A' for Active; 'I' for Inactive)
REMARK    1  A    between atoms: N_1  and  C_13
REMARK    2  A    between atoms: C_11  and  O_24
REMARK    3  A    between atoms: C_12  and  O_26
REMARK    4  A    between atoms: C_14  and  C_18
REMARK    5  A    between atoms: C_19  and  C_20
REMARK    6  A    between atoms: N_28  and  C_32
REMARK                            x       y       z     vdW  Elec       q    Type
REMARK                         _______ _______ _______ _____ _____    ______ ____
ROOT
ATOM      1  N   UNL     1      32.544  -9.768 -23.232  0.00  0.00    -0.247 N 
ATOM      2  N   UNL     1      34.171 -11.077 -24.017  0.00  0.00    -0.242 NA
ATOM      3  N   UNL     1      31.414 -11.346 -21.769  0.00  0.00    -0.228 NA
ATOM      4  N   UNL     1      32.503 -13.530 -21.807  0.00  0.00    -0.228 NA
ATOM      5  C   UNL     1      32.368 -10.990 -22.643  0.00  0.00    +0.152 C 
ATOM      6  C   UNL     1      33.639  -9.873 -24.049  0.00  0.00    +0.223 C 
ATOM      7  C   UNL     1      33.387 -11.785 -23.142  0.00  0.00    +0.140 C 
ATOM      8  C   UNL     1      33.436 -13.101 -22.692  0.00  0.00    +0.150 C 
ATOM      9  C   UNL     1      31.564 -12.638 -21.407  0.00  0.00    +0.253 C 
ATOM     10  N   UNL     1      34.436 -13.978 -23.145  0.00  0.00    -0.295 N 
ATOM     11  H   UNL     1      35.063 -13.566 -23.784  0.00  0.00    +0.154 HD
ENDROOT
BRANCH  10  14
ATOM     12 CL   UNL     1      35.637 -19.658 -21.986  0.00  0.00    -0.082 Cl
ATOM     13  F   UNL     1      35.035 -14.835 -20.566  0.00  0.00    -0.203 F 
ATOM     14  C   UNL     1      34.723 -15.331 -22.867  0.00  0.00    +0.077 C 
ATOM     15  C   UNL     1      35.019 -15.730 -21.564  0.00  0.00    +0.154 C 
ATOM     16  C   UNL     1      34.710 -16.270 -23.898  0.00  0.00    +0.018 C 
ATOM     17  C   UNL     1      35.302 -17.068 -21.291  0.00  0.00    +0.042 C 
ATOM     18  C   UNL     1      34.993 -17.608 -23.626  0.00  0.00    +0.013 C 
ATOM     19  C   UNL     1      35.288 -18.007 -22.323  0.00  0.00    +0.060 C 
ENDBRANCH  10  14
BRANCH   1  23
ATOM     20  O   UNL     1      31.936  -7.648 -24.123  0.00  0.00    -0.326 OA
ATOM     21  C   UNL     1      32.027  -7.821 -21.744  0.00  0.00    +0.187 C 
ATOM     22  C   UNL     1      32.939  -6.707 -22.221  0.00  0.00    +0.178 C 
ATOM     23  C   UNL     1      31.723  -8.571 -23.036  0.00  0.00    +0.225 C 
ATOM     24  C   UNL     1      32.355  -6.372 -23.587  0.00  0.00    +0.223 C 
BRANCH  24  28
ATOM     25  O   UNL     1      32.740  -4.758 -25.380  0.00  0.00    -0.421 OA
ATOM     26  N   UNL     1      34.535  -5.984 -24.852  0.00  0.00    -0.109 NA
ATOM     27  N   UNL     1      34.892  -5.121 -25.872  0.00  0.00    -0.112 NA
ATOM     28  C   UNL     1      33.277  -5.733 -24.603  0.00  0.00    +0.255 A 
ATOM     29  C   UNL     1      33.814  -4.426 -26.148  0.00  0.00    +0.225 A 
BRANCH  29  30
ATOM     30  C   UNL     1      33.614  -3.365 -27.143  0.00  0.00    +0.070 C 
ATOM     31  C   UNL     1      32.160  -2.766 -27.103  0.00  0.00    +0.009 C 
ATOM     32  C   UNL     1      33.850  -3.865 -28.616  0.00  0.00    +0.009 C 
ATOM     33  C   UNL     1      34.555  -2.105 -27.007  0.00  0.00    +0.009 C 
ENDBRANCH  29  30
ENDBRANCH  24  28
BRANCH  21  34
ATOM     34  O   UNL     1      30.801  -7.289 -21.247  0.00  0.00    -0.378 OA
ATOM     35  H   UNL     1      30.057  -7.781 -21.630  0.00  0.00    +0.211 HD
ENDBRANCH  21  34
BRANCH  22  36
ATOM     36  O   UNL     1      32.932  -5.592 -21.352  0.00  0.00    -0.379 OA
ATOM     37  H   UNL     1      33.289  -4.818 -21.816  0.00  0.00    +0.211 HD
ENDBRANCH  22  36
ENDBRANCH   1  23
TORSDOF 6
ENDMDL
MODEL 6
REMARK VINA RESULT:     -10.0      1.609      2.537
REMARK  Name = 9810927
REMARK  6 active torsions:
REMARK  status: ('A' for Active; 'I' for Inactive)
REMARK    1  A    between atoms: N_1  and  C_13
REMARK    2  A    between atoms: C_11  and  O_24
REMARK    3  A    between atoms: C_12  and  O_26
REMARK    4  A    between atoms: C_14  and  C_18
REMARK    5  A    between atoms: C_19  and  C_20
REMARK    6  A    between atoms: N_28  and  C_32
REMARK                            x       y       z     vdW  Elec       q    Type
REMARK                         _______ _______ _______ _____ _____    ______ ____
ROOT
ATOM      1  N   UNL     1      34.822 -22.822 -18.200  0.00  0.00    -0.247 N 
ATOM      2  N   UNL     1      33.328 -21.776 -19.485  0.00  0.00    -0.242 NA
ATOM      3  N   UNL     1      36.872 -21.862 -19.084  0.00  0.00    -0.228 NA
ATOM      4  N   UNL     1      36.408 -20.273 -20.877  0.00  0.00    -0.228 NA
ATOM      5  C   UNL     1      35.539 -22.011 -19.035  0.00  0.00    +0.152 C 
ATOM      6  C   UNL     1      33.499 -22.645 -18.511  0.00  0.00    +0.223 C 
ATOM      7  C   UNL     1      34.594 -21.371 -19.821  0.00  0.00    +0.140 C 
ATOM      8  C   UNL     1      35.071 -20.473 -20.771  0.00  0.00    +0.150 C 
ATOM      9  C   UNL     1      37.213 -20.971 -20.039  0.00  0.00    +0.253 C 
ATOM     10  N   UNL     1      34.184 -19.778 -21.612  0.00  0.00    -0.295 N 
ATOM     11  H   UNL     1      33.237 -19.996 -21.451  0.00  0.00    +0.154 HD
ENDROOT
BRANCH  10  14
ATOM     12 CL   UNL     1      35.003 -15.812 -25.930  0.00  0.00    -0.082 Cl
ATOM     13  F   UNL     1      35.224 -17.252 -21.080  0.00  0.00    -0.203 F 
ATOM     14  C   UNL     1      34.381 -18.832 -22.640  0.00  0.00    +0.077 C 
ATOM     15  C   UNL     1      34.903 -17.574 -22.341  0.00  0.00    +0.154 C 
ATOM     16  C   UNL     1      34.050 -19.157 -23.955  0.00  0.00    +0.018 C 
ATOM     17  C   UNL     1      35.096 -16.640 -23.359  0.00  0.00    +0.042 C 
ATOM     18  C   UNL     1      34.241 -18.223 -24.972  0.00  0.00    +0.013 C 
ATOM     19  C   UNL     1      34.765 -16.965 -24.675  0.00  0.00    +0.060 C 
ENDBRANCH  10  14
BRANCH   1  23
ATOM     20  O   UNL     1      34.270 -24.354 -16.465  0.00  0.00    -0.326 OA
ATOM     21  C   UNL     1      36.211 -23.007 -16.125  0.00  0.00    +0.187 C 
ATOM     22  C   UNL     1      35.237 -22.816 -14.978  0.00  0.00    +0.178 C 
ATOM     23  C   UNL     1      35.355 -23.715 -17.169  0.00  0.00    +0.225 C 
ATOM     24  C   UNL     1      34.399 -24.085 -15.050  0.00  0.00    +0.223 C 
BRANCH  24  28
ATOM     25  O   UNL     1      31.982 -23.900 -15.353  0.00  0.00    -0.421 OA
ATOM     26  N   UNL     1      32.624 -24.100 -13.219  0.00  0.00    -0.109 NA
ATOM     27  N   UNL     1      31.244 -24.004 -13.243  0.00  0.00    -0.112 NA
ATOM     28  C   UNL     1      33.002 -24.035 -14.468  0.00  0.00    +0.255 A 
ATOM     29  C   UNL     1      30.915 -23.889 -14.508  0.00  0.00    +0.225 A 
BRANCH  29  30
ATOM     30  C   UNL     1      29.587 -23.756 -15.121  0.00  0.00    +0.070 C 
ATOM     31  C   UNL     1      28.703 -25.043 -14.930  0.00  0.00    +0.009 C 
ATOM     32  C   UNL     1      29.658 -23.489 -16.669  0.00  0.00    +0.009 C 
ATOM     33  C   UNL     1      28.686 -22.583 -14.568  0.00  0.00    +0.009 C 
ENDBRANCH  29  30
ENDBRANCH  24  28
BRANCH  21  34
ATOM     34  O   UNL     1      37.264 -23.893 -15.748  0.00  0.00    -0.378 OA
ATOM     35  H   UNL     1      36.899 -24.621 -15.218  0.00  0.00    +0.211 HD
ENDBRANCH  21  34
BRANCH  22  36
ATOM     36  O   UNL     1      35.889 -22.679 -13.731  0.00  0.00    -0.379 OA
ATOM     37  H   UNL     1      36.603 -22.026 -13.809  0.00  0.00    +0.211 HD
ENDBRANCH  22  36
ENDBRANCH   1  23
TORSDOF 6
ENDMDL
MODEL 7
REMARK VINA RESULT:     -10.0      6.427      9.066
REMARK  Name = 9810927
REMARK  6 active torsions:
REMARK  status: ('A' for Active; 'I' for Inactive)
REMARK    1  A    between atoms: N_1  and  C_13
REMARK    2  A    between atoms: C_11  and  O_24
REMARK    3  A    between atoms: C_12  and  O_26
REMARK    4  A    between atoms: C_14  and  C_18
REMARK    5  A    between atoms: C_19  and  C_20
REMARK    6  A    between atoms: N_28  and  C_32
REMARK                            x       y       z     vdW  Elec       q    Type
REMARK                         _______ _______ _______ _____ _____    ______ ____
ROOT
ATOM      1  N   UNL     1      35.165 -16.692 -22.303  0.00  0.00    -0.247 N 
ATOM      2  N   UNL     1      34.517 -15.016 -20.981  0.00  0.00    -0.242 NA
ATOM      3  N   UNL     1      34.508 -15.793 -24.463  0.00  0.00    -0.228 NA
ATOM      4  N   UNL     1      33.494 -13.585 -24.235  0.00  0.00    -0.228 NA
ATOM      5  C   UNL     1      34.628 -15.742 -23.128  0.00  0.00    +0.152 C 
ATOM      6  C   UNL     1      35.074 -16.209 -21.024  0.00  0.00    +0.223 C 
ATOM      7  C   UNL     1      34.234 -14.712 -22.289  0.00  0.00    +0.140 C 
ATOM      8  C   UNL     1      33.648 -13.602 -22.888  0.00  0.00    +0.150 C 
ATOM      9  C   UNL     1      33.927 -14.666 -24.928  0.00  0.00    +0.253 C 
ATOM     10  N   UNL     1      33.218 -12.510 -22.114  0.00  0.00    -0.295 N 
ATOM     11  H   UNL     1      33.378 -12.625 -21.149  0.00  0.00    +0.154 HD
ENDROOT
BRANCH  10  14
ATOM     12 CL   UNL     1      30.651  -7.361 -23.505  0.00  0.00    -0.082 Cl
ATOM     13  F   UNL     1      30.872 -11.678 -20.869  0.00  0.00    -0.203 F 
ATOM     14  C   UNL     1      32.605 -11.283 -22.444  0.00  0.00    +0.077 C 
ATOM     15  C   UNL     1      31.430 -10.894 -21.803  0.00  0.00    +0.154 C 
ATOM     16  C   UNL     1      33.176 -10.461 -23.414  0.00  0.00    +0.018 C 
ATOM     17  C   UNL     1      30.825  -9.681 -22.131  0.00  0.00    +0.042 C 
ATOM     18  C   UNL     1      32.572  -9.248 -23.743  0.00  0.00    +0.013 C 
ATOM     19  C   UNL     1      31.397  -8.857 -23.101  0.00  0.00    +0.060 C 
ENDBRANCH  10  14
BRANCH   1  23
ATOM     20  O   UNL     1      34.786 -19.037 -22.425  0.00  0.00    -0.326 OA
ATOM     21  C   UNL     1      37.023 -18.338 -21.974  0.00  0.00    +0.187 C 
ATOM     22  C   UNL     1      36.538 -19.269 -20.879  0.00  0.00    +0.178 C 
ATOM     23  C   UNL     1      35.731 -17.984 -22.700  0.00  0.00    +0.225 C 
ATOM     24  C   UNL     1      35.411 -20.024 -21.571  0.00  0.00    +0.223 C 
BRANCH  24  28
ATOM     25  O   UNL     1      34.719 -21.570 -19.812  0.00  0.00    -0.421 OA
ATOM     26  N   UNL     1      33.049 -20.352 -20.666  0.00  0.00    -0.109 NA
ATOM     27  N   UNL     1      32.520 -21.177 -19.690  0.00  0.00    -0.112 NA
ATOM     28  C   UNL     1      34.328 -20.619 -20.697  0.00  0.00    +0.255 A 
ATOM     29  C   UNL     1      33.530 -21.869 -19.220  0.00  0.00    +0.225 A 
BRANCH  29  30
ATOM     30  C   UNL     1      33.553 -22.893 -18.167  0.00  0.00    +0.070 C 
ATOM     31  C   UNL     1      33.737 -24.346 -18.742  0.00  0.00    +0.009 C 
ATOM     32  C   UNL     1      32.231 -22.915 -17.316  0.00  0.00    +0.009 C 
ATOM     33  C   UNL     1      34.702 -22.754 -17.094  0.00  0.00    +0.009 C 
ENDBRANCH  29  30
ENDBRANCH  24  28
BRANCH  21  34
ATOM     34  O   UNL     1      37.863 -19.037 -22.891  0.00  0.00    -0.378 OA
ATOM     35  H   UNL     1      38.736 -19.174 -22.490  0.00  0.00    +0.211 HD
ENDBRANCH  21  34
BRANCH  22  36
ATOM     36  O   UNL     1      37.553 -20.137 -20.417  0.00  0.00    -0.379 OA
ATOM     37  H   UNL     1      38.385 -19.644 -20.330  0.00  0.00    +0.211 HD
ENDBRANCH  22  36
ENDBRANCH   1  23
TORSDOF 6
ENDMDL
MODEL 8
REMARK VINA RESULT:      -9.9      7.287     11.426
REMARK  Name = 9810927
REMARK  6 active torsions:
REMARK  status: ('A' for Active; 'I' for Inactive)
REMARK    1  A    between atoms: N_1  and  C_13
REMARK    2  A    between atoms: C_11  and  O_24
REMARK    3  A    between atoms: C_12  and  O_26
REMARK    4  A    between atoms: C_14  and  C_18
REMARK    5  A    between atoms: C_19  and  C_20
REMARK    6  A    between atoms: N_28  and  C_32
REMARK                            x       y       z     vdW  Elec       q    Type
REMARK                         _______ _______ _______ _____ _____    ______ ____
ROOT
ATOM      1  N   UNL     1      34.655 -17.096 -24.403  0.00  0.00    -0.247 N 
ATOM      2  N   UNL     1      34.215 -19.256 -24.060  0.00  0.00    -0.242 NA
ATOM      3  N   UNL     1      35.300 -16.444 -22.152  0.00  0.00    -0.228 NA
ATOM      4  N   UNL     1      35.187 -18.334 -20.613  0.00  0.00    -0.228 NA
ATOM      5  C   UNL     1      34.889 -17.327 -23.075  0.00  0.00    +0.152 C 
ATOM      6  C   UNL     1      34.252 -18.286 -24.950  0.00  0.00    +0.223 C 
ATOM      7  C   UNL     1      34.612 -18.671 -22.885  0.00  0.00    +0.140 C 
ATOM      8  C   UNL     1      34.774 -19.170 -21.596  0.00  0.00    +0.150 C 
ATOM      9  C   UNL     1      35.420 -17.041 -20.947  0.00  0.00    +0.253 C 
ATOM     10  N   UNL     1      34.516 -20.522 -21.312  0.00  0.00    -0.295 N 
ATOM     11  H   UNL     1      34.223 -21.041 -22.096  0.00  0.00    +0.154 HD
ENDROOT
BRANCH  10  14
ATOM     12 CL   UNL     1      34.830 -23.721 -16.340  0.00  0.00    -0.082 Cl
ATOM     13  F   UNL     1      36.953 -21.036 -20.071  0.00  0.00    -0.203 F 
ATOM     14  C   UNL     1      34.593 -21.284 -20.127  0.00  0.00    +0.077 C 
ATOM     15  C   UNL     1      35.829 -21.525 -19.529  0.00  0.00    +0.154 C 
ATOM     16  C   UNL     1      33.429 -21.798 -19.555  0.00  0.00    +0.018 C 
ATOM     17  C   UNL     1      35.903 -22.278 -18.358  0.00  0.00    +0.042 C 
ATOM     18  C   UNL     1      33.502 -22.552 -18.385  0.00  0.00    +0.013 C 
ATOM     19  C   UNL     1      34.738 -22.792 -17.785  0.00  0.00    +0.060 C 
ENDBRANCH  10  14
BRANCH   1  23
ATOM     20  O   UNL     1      34.737 -14.729 -24.178  0.00  0.00    -0.326 OA
ATOM     21  C   UNL     1      33.728 -15.581 -26.167  0.00  0.00    +0.187 C 
ATOM     22  C   UNL     1      32.756 -14.673 -25.438  0.00  0.00    +0.178 C 
ATOM     23  C   UNL     1      34.803 -15.824 -25.114  0.00  0.00    +0.225 C 
ATOM     24  C   UNL     1      33.686 -13.821 -24.584  0.00  0.00    +0.223 C 
BRANCH  24  28
ATOM     25  O   UNL     1      32.893 -11.863 -23.358  0.00  0.00    -0.421 OA
ATOM     26  N   UNL     1      32.787 -13.772 -22.198  0.00  0.00    -0.109 NA
ATOM     27  N   UNL     1      32.313 -12.755 -21.390  0.00  0.00    -0.112 NA
ATOM     28  C   UNL     1      33.111 -13.202 -23.328  0.00  0.00    +0.255 A 
ATOM     29  C   UNL     1      32.393 -11.660 -22.109  0.00  0.00    +0.225 A 
BRANCH  29  30
ATOM     30  C   UNL     1      32.024 -10.282 -21.758  0.00  0.00    +0.070 C 
ATOM     31  C   UNL     1      30.556  -9.922 -22.192  0.00  0.00    +0.009 C 
ATOM     32  C   UNL     1      32.963  -9.215 -22.431  0.00  0.00    +0.009 C 
ATOM     33  C   UNL     1      32.071  -9.925 -20.222  0.00  0.00    +0.009 C 
ENDBRANCH  29  30
ENDBRANCH  24  28
BRANCH  21  34
ATOM     34  O   UNL     1      34.334 -14.893 -27.260  0.00  0.00    -0.378 OA
ATOM     35  H   UNL     1      33.741 -14.920 -28.028  0.00  0.00    +0.211 HD
ENDBRANCH  21  34
BRANCH  22  36
ATOM     36  O   UNL     1      31.980 -13.889 -26.322  0.00  0.00    -0.379 OA
ATOM     37  H   UNL     1      31.049 -13.918 -26.048  0.00  0.00    +0.211 HD
ENDBRANCH  22  36
ENDBRANCH   1  23
TORSDOF 6
ENDMDL
MODEL 9
REMARK VINA RESULT:      -9.8     12.012     16.053
REMARK  Name = 9810927
REMARK  6 active torsions:
REMARK  status: ('A' for Active; 'I' for Inactive)
REMARK    1  A    between atoms: N_1  and  C_13
REMARK    2  A    between atoms: C_11  and  O_24
REMARK    3  A    between atoms: C_12  and  O_26
REMARK    4  A    between atoms: C_14  and  C_18
REMARK    5  A    between atoms: C_19  and  C_20
REMARK    6  A    between atoms: N_28  and  C_32
REMARK                            x       y       z     vdW  Elec       q    Type
REMARK                         _______ _______ _______ _____ _____    ______ ____
ROOT
ATOM      1  N   UNL     1      32.036  -9.466 -22.265  0.00  0.00    -0.247 N 
ATOM      2  N   UNL     1      33.190 -10.437 -23.908  0.00  0.00    -0.242 NA
ATOM      3  N   UNL     1      31.486 -11.423 -20.934  0.00  0.00    -0.228 NA
ATOM      4  N   UNL     1      32.392 -13.458 -21.930  0.00  0.00    -0.228 NA
ATOM      5  C   UNL     1      32.049 -10.804 -21.982  0.00  0.00    +0.152 C 
ATOM      6  C   UNL     1      32.734  -9.297 -23.432  0.00  0.00    +0.223 C 
ATOM      7  C   UNL     1      32.770 -11.386 -23.012  0.00  0.00    +0.140 C 
ATOM      8  C   UNL     1      32.934 -12.767 -22.962  0.00  0.00    +0.150 C 
ATOM      9  C   UNL     1      31.711 -12.753 -20.994  0.00  0.00    +0.253 C 
ATOM     10  N   UNL     1      33.653 -13.442 -23.964  0.00  0.00    -0.295 N 
ATOM     11  H   UNL     1      34.005 -12.847 -24.665  0.00  0.00    +0.154 HD
ENDROOT
BRANCH  10  14
ATOM     12 CL   UNL     1      34.987 -19.149 -24.800  0.00  0.00    -0.082 Cl
ATOM     13  F   UNL     1      32.779 -14.818 -26.220  0.00  0.00    -0.203 F 
ATOM     14  C   UNL     1      33.970 -14.802 -24.166  0.00  0.00    +0.077 C 
ATOM     15  C   UNL     1      33.517 -15.464 -25.306  0.00  0.00    +0.154 C 
ATOM     16  C   UNL     1      34.736 -15.483 -23.221  0.00  0.00    +0.018 C 
ATOM     17  C   UNL     1      33.832 -16.808 -25.502  0.00  0.00    +0.042 C 
ATOM     18  C   UNL     1      35.051 -16.827 -23.416  0.00  0.00    +0.013 C 
ATOM     19  C   UNL     1      34.599 -17.490 -24.557  0.00  0.00    +0.060 C 
ENDBRANCH  10  14
BRANCH   1  23
ATOM     20  O   UNL     1      30.920  -7.366 -22.355  0.00  0.00    -0.326 OA
ATOM     21  C   UNL     1      32.329  -7.748 -20.466  0.00  0.00    +0.187 C 
ATOM     22  C   UNL     1      32.759  -6.486 -21.190  0.00  0.00    +0.178 C 
ATOM     23  C   UNL     1      31.398  -8.406 -21.479  0.00  0.00    +0.225 C 
ATOM     24  C   UNL     1      31.496  -6.103 -21.951  0.00  0.00    +0.223 C 
BRANCH  24  28
ATOM     25  O   UNL     1      32.764  -5.497 -23.949  0.00  0.00    -0.421 OA
ATOM     26  N   UNL     1      30.886  -4.317 -23.666  0.00  0.00    -0.109 NA
ATOM     27  N   UNL     1      31.499  -3.873 -24.823  0.00  0.00    -0.112 NA
ATOM     28  C   UNL     1      31.660  -5.259 -23.197  0.00  0.00    +0.255 A 
ATOM     29  C   UNL     1      32.590  -4.590 -24.949  0.00  0.00    +0.225 A 
BRANCH  29  30
ATOM     30  C   UNL     1      33.621  -4.550 -25.994  0.00  0.00    +0.070 C 
ATOM     31  C   UNL     1      34.907  -5.367 -25.605  0.00  0.00    +0.009 C 
ATOM     32  C   UNL     1      34.101  -3.087 -26.315  0.00  0.00    +0.009 C 
ATOM     33  C   UNL     1      33.202  -5.135 -27.399  0.00  0.00    +0.009 C 
ENDBRANCH  29  30
ENDBRANCH  24  28
BRANCH  21  34
ATOM     34  O   UNL     1      31.558  -7.426 -19.310  0.00  0.00    -0.378 OA
ATOM     35  H   UNL     1      31.435  -8.224 -18.771  0.00  0.00    +0.211 HD
ENDBRANCH  21  34
BRANCH  22  36
ATOM     36  O   UNL     1      33.175  -5.468 -20.303  0.00  0.00    -0.379 OA
ATOM     37  H   UNL     1      32.426  -5.199 -19.746  0.00  0.00    +0.211 HD
ENDBRANCH  22  36
ENDBRANCH   1  23
TORSDOF 6
ENDMDL
