MODEL 1
REMARK VINA RESULT:     -11.4      0.000      0.000
REMARK  Name = 446399
REMARK  4 active torsions:
REMARK  status: ('A' for Active; 'I' for Inactive)
REMARK    1  A    between atoms: N_3  and  S_21
REMARK    2  A    between atoms: C_4  and  C_10
REMARK    3  A    between atoms: N_9  and  C_16
REMARK    4  A    between atoms: S_21  and  C_25
REMARK                            x       y       z     vdW  Elec       q    Type
REMARK                         _______ _______ _______ _____ _____    ______ ____
ROOT
ATOM      1  O   UNL     1      33.196 -13.853 -25.844  0.00  0.00    -0.275 OA
ATOM      2  N   UNL     1      33.723 -15.165 -24.002  0.00  0.00    -0.277 N 
ATOM      3  N   UNL     1      34.972 -17.573 -23.143  0.00  0.00    -0.152 NA
ATOM      4  C   UNL     1      33.541 -13.952 -24.663  0.00  0.00    +0.225 C 
ATOM      5  C   UNL     1      34.132 -15.318 -22.600  0.00  0.00    +0.113 C 
ATOM      6  C   UNL     1      33.436 -16.425 -24.689  0.00  0.00    +0.113 C 
ATOM      7  C   UNL     1      35.314 -16.276 -22.484  0.00  0.00    +0.117 C 
ATOM      8  C   UNL     1      34.616 -17.384 -24.582  0.00  0.00    +0.117 C 
ENDROOT
BRANCH   4  10
ATOM      9  N   UNL     1      33.152  -9.965 -23.197  0.00  0.00    -0.307 N 
ATOM     10  C   UNL     1      33.790 -12.701 -23.860  0.00  0.00    +0.080 C 
ATOM     11  C   UNL     1      32.535 -12.346 -23.068  0.00  0.00    +0.031 C 
ATOM     12  C   UNL     1      34.167 -11.548 -24.787  0.00  0.00    +0.031 C 
ATOM     13  C   UNL     1      32.709 -11.037 -22.298  0.00  0.00    +0.091 C 
ATOM     14  C   UNL     1      34.344 -10.246 -24.010  0.00  0.00    +0.091 C 
BRANCH   9  16
ATOM     15  N   UNL     1      32.422  -5.942 -22.145  0.00  0.00    -0.242 NA
ATOM     16  C   UNL     1      32.910  -8.631 -22.848  0.00  0.00    +0.051 C 
ATOM     17  C   UNL     1      33.375  -7.577 -23.650  0.00  0.00    +0.035 C 
ATOM     18  C   UNL     1      32.195  -8.306 -21.684  0.00  0.00    +0.035 C 
ATOM     19  C   UNL     1      33.109  -6.274 -23.261  0.00  0.00    +0.100 C 
ATOM     20  C   UNL     1      31.982  -6.970 -21.384  0.00  0.00    +0.100 C 
ENDBRANCH   9  16
ENDBRANCH   4  10
BRANCH   3  21
ATOM     21  S   UNL     1      36.047 -18.867 -22.818  0.00  0.00    +0.063 S 
ATOM     22  O   UNL     1      37.201 -18.356 -22.113  0.00  0.00    -0.153 OA
ATOM     23  O   UNL     1      36.197 -19.663 -24.017  0.00  0.00    -0.153 OA
BRANCH  21  25
ATOM     24 CL   UNL     1      32.464 -23.647 -16.818  0.00  0.00    -0.082 Cl
ATOM     25  C   UNL     1      35.077 -19.791 -21.670  0.00  0.00    +0.122 C 
ATOM     26  C   UNL     1      35.713 -20.536 -20.690  0.00  0.00    +0.020 C 
ATOM     27  C   UNL     1      33.698 -19.755 -21.767  0.00  0.00    +0.020 C 
ATOM     28  C   UNL     1      34.955 -21.277 -19.768  0.00  0.00    +0.001 C 
ATOM     29  C   UNL     1      33.543 -21.251 -19.854  0.00  0.00    +0.001 C 
ATOM     30  C   UNL     1      32.930 -20.485 -20.859  0.00  0.00    +0.001 C 
ATOM     31  C   UNL     1      35.568 -22.042 -18.763  0.00  0.00    +0.001 C 
ATOM     32  C   UNL     1      32.784 -21.991 -18.932  0.00  0.00    +0.011 C 
ATOM     33  C   UNL     1      34.799 -22.773 -17.856  0.00  0.00    +0.011 C 
ATOM     34  C   UNL     1      33.410 -22.747 -17.940  0.00  0.00    +0.058 C 
ENDBRANCH  21  25
ENDBRANCH   3  21
TORSDOF 4
ENDMDL
MODEL 2
REMARK VINA RESULT:     -11.0      4.508     11.572
REMARK  Name = 446399
REMARK  4 active torsions:
REMARK  status: ('A' for Active; 'I' for Inactive)
REMARK    1  A    between atoms: N_3  and  S_21
REMARK    2  A    between atoms: C_4  and  C_10
REMARK    3  A    between atoms: N_9  and  C_16
REMARK    4  A    between atoms: S_21  and  C_25
REMARK                            x       y       z     vdW  Elec       q    Type
REMARK                         _______ _______ _______ _____ _____    ______ ____
ROOT
ATOM      1  O   UNL     1      33.738 -16.470 -25.610  0.00  0.00    -0.275 OA
ATOM      2  N   UNL     1      34.075 -14.881 -23.949  0.00  0.00    -0.277 N 
ATOM      3  N   UNL     1      32.918 -12.679 -22.569  0.00  0.00    -0.152 NA
ATOM      4  C   UNL     1      34.201 -16.151 -24.511  0.00  0.00    +0.225 C 
ATOM      5  C   UNL     1      34.613 -14.469 -22.647  0.00  0.00    +0.113 C 
ATOM      6  C   UNL     1      33.418 -13.810 -24.699  0.00  0.00    +0.113 C 
ATOM      7  C   UNL     1      33.531 -13.805 -21.801  0.00  0.00    +0.117 C 
ATOM      8  C   UNL     1      32.331 -13.147 -23.861  0.00  0.00    +0.117 C 
ENDROOT
BRANCH   4  10
ATOM      9  N   UNL     1      35.005 -19.295 -21.743  0.00  0.00    -0.307 N 
ATOM     10  C   UNL     1      34.954 -17.175 -23.702  0.00  0.00    +0.080 C 
ATOM     11  C   UNL     1      34.421 -18.569 -24.023  0.00  0.00    +0.031 C 
ATOM     12  C   UNL     1      34.796 -16.886 -22.211  0.00  0.00    +0.031 C 
ATOM     13  C   UNL     1      35.098 -19.639 -23.166  0.00  0.00    +0.091 C 
ATOM     14  C   UNL     1      35.478 -17.957 -21.362  0.00  0.00    +0.091 C 
BRANCH   9  16
ATOM     15  N   UNL     1      35.291 -22.351 -18.845  0.00  0.00    -0.242 NA
ATOM     16  C   UNL     1      35.100 -20.309 -20.782  0.00  0.00    +0.051 C 
ATOM     17  C   UNL     1      33.956 -20.976 -20.318  0.00  0.00    +0.035 C 
ATOM     18  C   UNL     1      36.343 -20.689 -20.252  0.00  0.00    +0.035 C 
ATOM     19  C   UNL     1      34.103 -21.972 -19.366  0.00  0.00    +0.100 C 
ATOM     20  C   UNL     1      36.383 -21.699 -19.304  0.00  0.00    +0.100 C 
ENDBRANCH   9  16
ENDBRANCH   4  10
BRANCH   3  21
ATOM     21  S   UNL     1      31.927 -11.622 -21.655  0.00  0.00    +0.063 S 
ATOM     22  O   UNL     1      32.412 -11.579 -20.293  0.00  0.00    -0.153 OA
ATOM     23  O   UNL     1      30.540 -11.913 -21.945  0.00  0.00    -0.153 OA
BRANCH  21  25
ATOM     24 CL   UNL     1      32.775  -3.854 -24.916  0.00  0.00    -0.082 Cl
ATOM     25  C   UNL     1      32.331 -10.084 -22.421  0.00  0.00    +0.122 C 
ATOM     26  C   UNL     1      31.431  -9.034 -22.348  0.00  0.00    +0.020 C 
ATOM     27  C   UNL     1      33.539  -9.953 -23.080  0.00  0.00    +0.020 C 
ATOM     28  C   UNL     1      31.737  -7.803 -22.953  0.00  0.00    +0.001 C 
ATOM     29  C   UNL     1      32.970  -7.653 -23.631  0.00  0.00    +0.001 C 
ATOM     30  C   UNL     1      33.860  -8.738 -23.685  0.00  0.00    +0.001 C 
ATOM     31  C   UNL     1      30.847  -6.718 -22.897  0.00  0.00    +0.001 C 
ATOM     32  C   UNL     1      33.277  -6.422 -24.235  0.00  0.00    +0.011 C 
ATOM     33  C   UNL     1      31.168  -5.503 -23.504  0.00  0.00    +0.011 C 
ATOM     34  C   UNL     1      32.381  -5.355 -24.171  0.00  0.00    +0.058 C 
ENDBRANCH  21  25
ENDBRANCH   3  21
TORSDOF 4
ENDMDL
MODEL 3
REMARK VINA RESULT:     -10.6      4.534     11.457
REMARK  Name = 446399
REMARK  4 active torsions:
REMARK  status: ('A' for Active; 'I' for Inactive)
REMARK    1  A    between atoms: N_3  and  S_21
REMARK    2  A    between atoms: C_4  and  C_10
REMARK    3  A    between atoms: N_9  and  C_16
REMARK    4  A    between atoms: S_21  and  C_25
REMARK                            x       y       z     vdW  Elec       q    Type
REMARK                         _______ _______ _______ _____ _____    ______ ____
ROOT
ATOM      1  O   UNL     1      33.894 -16.028 -25.479  0.00  0.00    -0.275 OA
ATOM      2  N   UNL     1      34.110 -14.522 -23.725  0.00  0.00    -0.277 N 
ATOM      3  N   UNL     1      32.838 -12.414 -22.299  0.00  0.00    -0.152 NA
ATOM      4  C   UNL     1      34.291 -15.758 -24.343  0.00  0.00    +0.225 C 
ATOM      5  C   UNL     1      34.570 -14.168 -22.377  0.00  0.00    +0.113 C 
ATOM      6  C   UNL     1      33.473 -13.424 -24.454  0.00  0.00    +0.113 C 
ATOM      7  C   UNL     1      33.431 -13.567 -21.558  0.00  0.00    +0.117 C 
ATOM      8  C   UNL     1      32.330 -12.825 -23.644  0.00  0.00    +0.117 C 
ENDROOT
BRANCH   4  10
ATOM      9  N   UNL     1      35.004 -19.075 -21.758  0.00  0.00    -0.307 N 
ATOM     10  C   UNL     1      35.021 -16.810 -23.547  0.00  0.00    +0.080 C 
ATOM     11  C   UNL     1      34.590 -18.196 -24.021  0.00  0.00    +0.031 C 
ATOM     12  C   UNL     1      34.715 -16.648 -22.060  0.00  0.00    +0.031 C 
ATOM     13  C   UNL     1      35.242 -19.300 -23.188  0.00  0.00    +0.091 C 
ATOM     14  C   UNL     1      35.372 -17.752 -21.235  0.00  0.00    +0.091 C 
BRANCH   9  16
ATOM     15  N   UNL     1      35.186 -22.339 -19.086  0.00  0.00    -0.242 NA
ATOM     16  C   UNL     1      35.065 -20.158 -20.872  0.00  0.00    +0.051 C 
ATOM     17  C   UNL     1      33.895 -20.757 -20.380  0.00  0.00    +0.035 C 
ATOM     18  C   UNL     1      36.298 -20.677 -20.447  0.00  0.00    +0.035 C 
ATOM     19  C   UNL     1      34.008 -21.826 -19.505  0.00  0.00    +0.100 C 
ATOM     20  C   UNL     1      36.303 -21.750 -19.570  0.00  0.00    +0.100 C 
ENDBRANCH   9  16
ENDBRANCH   4  10
BRANCH   3  21
ATOM     21  S   UNL     1      31.779 -11.422 -21.388  0.00  0.00    +0.063 S 
ATOM     22  O   UNL     1      32.343 -11.213 -20.073  0.00  0.00    -0.153 OA
ATOM     23  O   UNL     1      30.426 -11.909 -21.552  0.00  0.00    -0.153 OA
BRANCH  21  25
ATOM     24 CL   UNL     1      33.694  -4.317 -25.574  0.00  0.00    -0.082 Cl
ATOM     25  C   UNL     1      31.925  -9.910 -22.286  0.00  0.00    +0.122 C 
ATOM     26  C   UNL     1      33.185  -9.399 -22.552  0.00  0.00    +0.020 C 
ATOM     27  C   UNL     1      30.780  -9.262 -22.710  0.00  0.00    +0.020 C 
ATOM     28  C   UNL     1      33.318  -8.196 -23.266  0.00  0.00    +0.001 C 
ATOM     29  C   UNL     1      32.156  -7.521 -23.707  0.00  0.00    +0.001 C 
ATOM     30  C   UNL     1      30.894  -8.067 -23.421  0.00  0.00    +0.001 C 
ATOM     31  C   UNL     1      34.580  -7.651 -23.552  0.00  0.00    +0.001 C 
ATOM     32  C   UNL     1      32.289  -6.319 -24.422  0.00  0.00    +0.011 C 
ATOM     33  C   UNL     1      34.694  -6.455 -24.262  0.00  0.00    +0.011 C 
ATOM     34  C   UNL     1      33.550  -5.790 -24.696  0.00  0.00    +0.058 C 
ENDBRANCH  21  25
ENDBRANCH   3  21
TORSDOF 4
ENDMDL
MODEL 4
REMARK VINA RESULT:     -10.3      3.088      4.893
REMARK  Name = 446399
REMARK  4 active torsions:
REMARK  status: ('A' for Active; 'I' for Inactive)
REMARK    1  A    between atoms: N_3  and  S_21
REMARK    2  A    between atoms: C_4  and  C_10
REMARK    3  A    between atoms: N_9  and  C_16
REMARK    4  A    between atoms: S_21  and  C_25
REMARK                            x       y       z     vdW  Elec       q    Type
REMARK                         _______ _______ _______ _____ _____    ______ ____
ROOT
ATOM      1  O   UNL     1      31.747 -10.493 -21.639  0.00  0.00    -0.275 OA
ATOM      2  N   UNL     1      33.149 -11.388 -23.260  0.00  0.00    -0.277 N 
ATOM      3  N   UNL     1      33.604 -13.620 -24.966  0.00  0.00    -0.152 NA
ATOM      4  C   UNL     1      32.477 -10.346 -22.623  0.00  0.00    +0.225 C 
ATOM      5  C   UNL     1      34.024 -11.249 -24.430  0.00  0.00    +0.113 C 
ATOM      6  C   UNL     1      33.066 -12.748 -22.725  0.00  0.00    +0.113 C 
ATOM      7  C   UNL     1      33.623 -12.234 -25.525  0.00  0.00    +0.117 C 
ATOM      8  C   UNL     1      32.660 -13.736 -23.813  0.00  0.00    +0.117 C 
ENDROOT
BRANCH   4  10
ATOM      9  N   UNL     1      32.002  -6.161 -23.296  0.00  0.00    -0.307 N 
ATOM     10  C   UNL     1      32.674  -8.966 -23.197  0.00  0.00    +0.080 C 
ATOM     11  C   UNL     1      33.092  -8.008 -22.085  0.00  0.00    +0.031 C 
ATOM     12  C   UNL     1      31.382  -8.480 -23.849  0.00  0.00    +0.031 C 
ATOM     13  C   UNL     1      33.225  -6.575 -22.601  0.00  0.00    +0.091 C 
ATOM     14  C   UNL     1      31.525  -7.050 -24.365  0.00  0.00    +0.091 C 
BRANCH   9  16
ATOM     15  N   UNL     1      31.103  -2.051 -23.642  0.00  0.00    -0.242 NA
ATOM     16  C   UNL     1      31.703  -4.798 -23.411  0.00  0.00    +0.051 C 
ATOM     17  C   UNL     1      32.196  -4.037 -24.483  0.00  0.00    +0.035 C 
ATOM     18  C   UNL     1      30.903  -4.149 -22.457  0.00  0.00    +0.035 C 
ATOM     19  C   UNL     1      31.872  -2.691 -24.551  0.00  0.00    +0.100 C 
ATOM     20  C   UNL     1      30.637  -2.799 -22.617  0.00  0.00    +0.100 C 
ENDBRANCH   9  16
ENDBRANCH   4  10
BRANCH   3  21
ATOM     21  S   UNL     1      33.502 -14.877 -26.125  0.00  0.00    +0.063 S 
ATOM     22  O   UNL     1      34.541 -14.691 -27.114  0.00  0.00    -0.153 OA
ATOM     23  O   UNL     1      32.119 -15.042 -26.517  0.00  0.00    -0.153 OA
BRANCH  21  25
ATOM     24 CL   UNL     1      36.063 -20.666 -20.502  0.00  0.00    -0.082 Cl
ATOM     25  C   UNL     1      33.951 -16.257 -25.121  0.00  0.00    +0.122 C 
ATOM     26  C   UNL     1      34.550 -16.035 -23.892  0.00  0.00    +0.020 C 
ATOM     27  C   UNL     1      33.697 -17.537 -25.579  0.00  0.00    +0.020 C 
ATOM     28  C   UNL     1      34.913 -17.123 -23.081  0.00  0.00    +0.001 C 
ATOM     29  C   UNL     1      34.660 -18.439 -23.535  0.00  0.00    +0.001 C 
ATOM     30  C   UNL     1      34.052 -18.629 -24.785  0.00  0.00    +0.001 C 
ATOM     31  C   UNL     1      35.521 -16.932 -21.829  0.00  0.00    +0.001 C 
ATOM     32  C   UNL     1      35.022 -19.527 -22.723  0.00  0.00    +0.011 C 
ATOM     33  C   UNL     1      35.876 -18.025 -21.037  0.00  0.00    +0.011 C 
ATOM     34  C   UNL     1      35.627 -19.320 -21.483  0.00  0.00    +0.058 C 
ENDBRANCH  21  25
ENDBRANCH   3  21
TORSDOF 4
ENDMDL
MODEL 5
REMARK VINA RESULT:     -10.1      6.889     13.512
REMARK  Name = 446399
REMARK  4 active torsions:
REMARK  status: ('A' for Active; 'I' for Inactive)
REMARK    1  A    between atoms: N_3  and  S_21
REMARK    2  A    between atoms: C_4  and  C_10
REMARK    3  A    between atoms: N_9  and  C_16
REMARK    4  A    between atoms: S_21  and  C_25
REMARK                            x       y       z     vdW  Elec       q    Type
REMARK                         _______ _______ _______ _____ _____    ______ ____
ROOT
ATOM      1  O   UNL     1      32.821  -8.887 -20.411  0.00  0.00    -0.275 OA
ATOM      2  N   UNL     1      31.569  -7.688 -21.957  0.00  0.00    -0.277 N 
ATOM      3  N   UNL     1      31.213  -5.152 -23.196  0.00  0.00    -0.152 NA
ATOM      4  C   UNL     1      32.209  -8.831 -21.481  0.00  0.00    +0.225 C 
ATOM      5  C   UNL     1      30.834  -7.589 -23.224  0.00  0.00    +0.113 C 
ATOM      6  C   UNL     1      31.537  -6.473 -21.142  0.00  0.00    +0.113 C 
ATOM      7  C   UNL     1      31.311  -6.386 -24.032  0.00  0.00    +0.117 C 
ATOM      8  C   UNL     1      32.019  -5.269 -21.943  0.00  0.00    +0.117 C 
ENDROOT
BRANCH   4  10
ATOM      9  N   UNL     1      33.132 -12.648 -23.148  0.00  0.00    -0.307 N 
ATOM     10  C   UNL     1      32.132 -10.060 -22.351  0.00  0.00    +0.080 C 
ATOM     11  C   UNL     1      31.935 -11.294 -21.474  0.00  0.00    +0.031 C 
ATOM     12  C   UNL     1      33.411 -10.201 -23.173  0.00  0.00    +0.031 C 
ATOM     13  C   UNL     1      31.933 -12.577 -22.305  0.00  0.00    +0.091 C 
ATOM     14  C   UNL     1      33.399 -11.483 -24.003  0.00  0.00    +0.091 C 
BRANCH   9  16
ATOM     15  N   UNL     1      34.495 -16.406 -24.505  0.00  0.00    -0.242 NA
ATOM     16  C   UNL     1      33.584 -13.895 -23.598  0.00  0.00    +0.051 C 
ATOM     17  C   UNL     1      34.475 -14.661 -22.832  0.00  0.00    +0.035 C 
ATOM     18  C   UNL     1      33.159 -14.416 -24.831  0.00  0.00    +0.035 C 
ATOM     19  C   UNL     1      34.893 -15.888 -23.322  0.00  0.00    +0.100 C 
ATOM     20  C   UNL     1      33.636 -15.654 -25.231  0.00  0.00    +0.100 C 
ENDBRANCH   9  16
ENDBRANCH   4  10
BRANCH   3  21
ATOM     21  S   UNL     1      31.389  -3.674 -24.044  0.00  0.00    +0.063 S 
ATOM     22  O   UNL     1      31.808  -2.645 -23.118  0.00  0.00    -0.153 OA
ATOM     23  O   UNL     1      30.237  -3.485 -24.899  0.00  0.00    -0.153 OA
BRANCH  21  25
ATOM     24 CL   UNL     1      37.661  -4.623 -29.652  0.00  0.00    -0.082 Cl
ATOM     25  C   UNL     1      32.768  -4.073 -25.071  0.00  0.00    +0.122 C 
ATOM     26  C   UNL     1      33.025  -3.299 -26.191  0.00  0.00    +0.020 C 
ATOM     27  C   UNL     1      33.569  -5.149 -24.739  0.00  0.00    +0.020 C 
ATOM     28  C   UNL     1      34.119  -3.603 -27.019  0.00  0.00    +0.001 C 
ATOM     29  C   UNL     1      34.948  -4.702 -26.693  0.00  0.00    +0.001 C 
ATOM     30  C   UNL     1      34.660  -5.465 -25.550  0.00  0.00    +0.001 C 
ATOM     31  C   UNL     1      34.407  -2.839 -28.161  0.00  0.00    +0.001 C 
ATOM     32  C   UNL     1      36.043  -5.005 -27.520  0.00  0.00    +0.011 C 
ATOM     33  C   UNL     1      35.498  -3.155 -28.972  0.00  0.00    +0.011 C 
ATOM     34  C   UNL     1      36.314  -4.237 -28.652  0.00  0.00    +0.058 C 
ENDBRANCH  21  25
ENDBRANCH   3  21
TORSDOF 4
ENDMDL
MODEL 6
REMARK VINA RESULT:      -9.8      4.864     11.814
REMARK  Name = 446399
REMARK  4 active torsions:
REMARK  status: ('A' for Active; 'I' for Inactive)
REMARK    1  A    between atoms: N_3  and  S_21
REMARK    2  A    between atoms: C_4  and  C_10
REMARK    3  A    between atoms: N_9  and  C_16
REMARK    4  A    between atoms: S_21  and  C_25
REMARK                            x       y       z     vdW  Elec       q    Type
REMARK                         _______ _______ _______ _____ _____    ______ ____
ROOT
ATOM      1  O   UNL     1      32.316 -21.804 -18.303  0.00  0.00    -0.275 OA
ATOM      2  N   UNL     1      34.173 -21.746 -19.695  0.00  0.00    -0.277 N 
ATOM      3  N   UNL     1      35.724 -20.116 -21.437  0.00  0.00    -0.152 NA
ATOM      4  C   UNL     1      33.473 -22.146 -18.558  0.00  0.00    +0.225 C 
ATOM      5  C   UNL     1      35.549 -22.134 -20.029  0.00  0.00    +0.113 C 
ATOM      6  C   UNL     1      33.513 -20.924 -20.711  0.00  0.00    +0.113 C 
ATOM      7  C   UNL     1      36.392 -20.905 -20.358  0.00  0.00    +0.117 C 
ATOM      8  C   UNL     1      34.348 -19.691 -21.039  0.00  0.00    +0.117 C 
ENDROOT
BRANCH   4  10
ATOM      9  N   UNL     1      35.295 -23.589 -14.981  0.00  0.00    -0.307 N 
ATOM     10  C   UNL     1      34.205 -23.050 -17.599  0.00  0.00    +0.080 C 
ATOM     11  C   UNL     1      33.301 -23.367 -16.410  0.00  0.00    +0.031 C 
ATOM     12  C   UNL     1      35.487 -22.376 -17.116  0.00  0.00    +0.031 C 
ATOM     13  C   UNL     1      34.027 -24.217 -15.366  0.00  0.00    +0.091 C 
ATOM     14  C   UNL     1      36.207 -23.232 -16.077  0.00  0.00    +0.091 C 
BRANCH   9  16
ATOM     15  N   UNL     1      37.024 -24.525 -11.245  0.00  0.00    -0.242 NA
ATOM     16  C   UNL     1      35.869 -23.899 -13.742  0.00  0.00    +0.051 C 
ATOM     17  C   UNL     1      37.262 -23.913 -13.572  0.00  0.00    +0.035 C 
ATOM     18  C   UNL     1      35.067 -24.207 -12.631  0.00  0.00    +0.035 C 
ATOM     19  C   UNL     1      37.780 -24.227 -12.325  0.00  0.00    +0.100 C 
ATOM     20  C   UNL     1      35.684 -24.507 -11.426  0.00  0.00    +0.100 C 
ENDBRANCH   9  16
ENDBRANCH   4  10
BRANCH   3  21
ATOM     21  S   UNL     1      36.687 -18.896 -22.157  0.00  0.00    +0.063 S 
ATOM     22  O   UNL     1      36.705 -19.093 -23.589  0.00  0.00    -0.153 OA
ATOM     23  O   UNL     1      37.917 -18.766 -21.405  0.00  0.00    -0.153 OA
BRANCH  21  25
ATOM     24 CL   UNL     1      31.879 -11.939 -21.751  0.00  0.00    -0.082 Cl
ATOM     25  C   UNL     1      35.691 -17.479 -21.818  0.00  0.00    +0.122 C 
ATOM     26  C   UNL     1      35.234 -16.704 -22.872  0.00  0.00    +0.020 C 
ATOM     27  C   UNL     1      35.382 -17.167 -20.507  0.00  0.00    +0.020 C 
ATOM     28  C   UNL     1      34.439 -15.573 -22.619  0.00  0.00    +0.001 C 
ATOM     29  C   UNL     1      34.115 -15.240 -21.283  0.00  0.00    +0.001 C 
ATOM     30  C   UNL     1      34.594 -16.047 -20.239  0.00  0.00    +0.001 C 
ATOM     31  C   UNL     1      33.960 -14.767 -23.664  0.00  0.00    +0.001 C 
ATOM     32  C   UNL     1      33.320 -14.110 -21.030  0.00  0.00    +0.011 C 
ATOM     33  C   UNL     1      33.172 -13.647 -23.395  0.00  0.00    +0.011 C 
ATOM     34  C   UNL     1      32.853 -13.319 -22.080  0.00  0.00    +0.058 C 
ENDBRANCH  21  25
ENDBRANCH   3  21
TORSDOF 4
ENDMDL
MODEL 7
REMARK VINA RESULT:      -9.5      4.413     11.150
REMARK  Name = 446399
REMARK  4 active torsions:
REMARK  status: ('A' for Active; 'I' for Inactive)
REMARK    1  A    between atoms: N_3  and  S_21
REMARK    2  A    between atoms: C_4  and  C_10
REMARK    3  A    between atoms: N_9  and  C_16
REMARK    4  A    between atoms: S_21  and  C_25
REMARK                            x       y       z     vdW  Elec       q    Type
REMARK                         _______ _______ _______ _____ _____    ______ ____
ROOT
ATOM      1  O   UNL     1      37.410 -19.857 -20.378  0.00  0.00    -0.275 OA
ATOM      2  N   UNL     1      35.403 -19.348 -21.431  0.00  0.00    -0.277 N 
ATOM      3  N   UNL     1      34.218 -18.316 -23.804  0.00  0.00    -0.152 NA
ATOM      4  C   UNL     1      36.226 -20.116 -20.610  0.00  0.00    +0.225 C 
ATOM      5  C   UNL     1      33.993 -19.628 -21.727  0.00  0.00    +0.113 C 
ATOM      6  C   UNL     1      35.912 -18.111 -22.026  0.00  0.00    +0.113 C 
ATOM      7  C   UNL     1      33.743 -19.612 -23.233  0.00  0.00    +0.117 C 
ATOM      8  C   UNL     1      35.671 -18.092 -23.531  0.00  0.00    +0.117 C 
ENDROOT
BRANCH   4  10
ATOM      9  N   UNL     1      34.161 -22.597 -17.821  0.00  0.00    -0.307 N 
ATOM     10  C   UNL     1      35.601 -21.336 -19.981  0.00  0.00    +0.080 C 
ATOM     11  C   UNL     1      34.109 -21.092 -19.769  0.00  0.00    +0.031 C 
ATOM     12  C   UNL     1      36.275 -21.641 -18.645  0.00  0.00    +0.031 C 
ATOM     13  C   UNL     1      33.444 -22.270 -19.058  0.00  0.00    +0.091 C 
ATOM     14  C   UNL     1      35.608 -22.822 -17.943  0.00  0.00    +0.091 C 
BRANCH   9  16
ATOM     15  N   UNL     1      32.135 -24.632 -14.726  0.00  0.00    -0.242 NA
ATOM     16  C   UNL     1      33.489 -23.272 -16.794  0.00  0.00    +0.051 C 
ATOM     17  C   UNL     1      32.088 -23.357 -16.779  0.00  0.00    +0.035 C 
ATOM     18  C   UNL     1      34.196 -23.885 -15.747  0.00  0.00    +0.035 C 
ATOM     19  C   UNL     1      31.471 -24.036 -15.741  0.00  0.00    +0.100 C 
ATOM     20  C   UNL     1      33.484 -24.541 -14.756  0.00  0.00    +0.100 C 
ENDBRANCH   9  16
ENDBRANCH   4  10
BRANCH   3  21
ATOM     21  S   UNL     1      33.717 -17.993 -25.409  0.00  0.00    +0.063 S 
ATOM     22  O   UNL     1      32.372 -18.492 -25.593  0.00  0.00    -0.153 OA
ATOM     23  O   UNL     1      34.781 -18.366 -26.316  0.00  0.00    -0.153 OA
BRANCH  21  25
ATOM     24 CL   UNL     1      33.487  -9.656 -23.952  0.00  0.00    -0.082 Cl
ATOM     25  C   UNL     1      33.638 -16.231 -25.358  0.00  0.00    +0.122 C 
ATOM     26  C   UNL     1      33.746 -15.583 -24.139  0.00  0.00    +0.020 C 
ATOM     27  C   UNL     1      33.470 -15.528 -26.537  0.00  0.00    +0.020 C 
ATOM     28  C   UNL     1      33.686 -14.180 -24.082  0.00  0.00    +0.001 C 
ATOM     29  C   UNL     1      33.514 -13.446 -25.279  0.00  0.00    +0.001 C 
ATOM     30  C   UNL     1      33.407 -14.134 -26.498  0.00  0.00    +0.001 C 
ATOM     31  C   UNL     1      33.792 -13.492 -22.862  0.00  0.00    +0.001 C 
ATOM     32  C   UNL     1      33.454 -12.043 -25.222  0.00  0.00    +0.011 C 
ATOM     33  C   UNL     1      33.730 -12.098 -22.824  0.00  0.00    +0.011 C 
ATOM     34  C   UNL     1      33.561 -11.375 -24.002  0.00  0.00    +0.058 C 
ENDBRANCH  21  25
ENDBRANCH   3  21
TORSDOF 4
ENDMDL
MODEL 8
REMARK VINA RESULT:      -9.4      5.236     12.156
REMARK  Name = 446399
REMARK  4 active torsions:
REMARK  status: ('A' for Active; 'I' for Inactive)
REMARK    1  A    between atoms: N_3  and  S_21
REMARK    2  A    between atoms: C_4  and  C_10
REMARK    3  A    between atoms: N_9  and  C_16
REMARK    4  A    between atoms: S_21  and  C_25
REMARK                            x       y       z     vdW  Elec       q    Type
REMARK                         _______ _______ _______ _____ _____    ______ ____
ROOT
ATOM      1  O   UNL     1      31.813 -22.015 -18.365  0.00  0.00    -0.275 OA
ATOM      2  N   UNL     1      33.818 -21.843 -19.524  0.00  0.00    -0.277 N 
ATOM      3  N   UNL     1      35.583 -20.059 -20.865  0.00  0.00    -0.152 NA
ATOM      4  C   UNL     1      32.987 -22.357 -18.531  0.00  0.00    +0.225 C 
ATOM      5  C   UNL     1      35.217 -22.227 -19.748  0.00  0.00    +0.113 C 
ATOM      6  C   UNL     1      33.291 -20.884 -20.496  0.00  0.00    +0.113 C 
ATOM      7  C   UNL     1      36.111 -20.993 -19.825  0.00  0.00    +0.117 C 
ATOM      8  C   UNL     1      34.177 -19.645 -20.573  0.00  0.00    +0.117 C 
ENDROOT
BRANCH   4  10
ATOM      9  N   UNL     1      34.698 -24.159 -15.063  0.00  0.00    -0.307 N 
ATOM     10  C   UNL     1      33.589 -23.393 -17.616  0.00  0.00    +0.080 C 
ATOM     11  C   UNL     1      32.707 -23.557 -16.381  0.00  0.00    +0.031 C 
ATOM     12  C   UNL     1      34.996 -22.971 -17.201  0.00  0.00    +0.031 C 
ATOM     13  C   UNL     1      33.318 -24.539 -15.382  0.00  0.00    +0.091 C 
ATOM     14  C   UNL     1      35.601 -23.959 -16.206  0.00  0.00    +0.091 C 
BRANCH   9  16
ATOM     15  N   UNL     1      36.420 -25.444 -11.430  0.00  0.00    -0.242 NA
ATOM     16  C   UNL     1      35.269 -24.586 -13.858  0.00  0.00    +0.051 C 
ATOM     17  C   UNL     1      34.700 -24.236 -12.624  0.00  0.00    +0.035 C 
ATOM     18  C   UNL     1      36.430 -25.375 -13.847  0.00  0.00    +0.035 C 
ATOM     19  C   UNL     1      35.303 -24.684 -11.459  0.00  0.00    +0.100 C 
ATOM     20  C   UNL     1      36.956 -25.771 -12.627  0.00  0.00    +0.100 C 
ENDBRANCH   9  16
ENDBRANCH   4  10
BRANCH   3  21
ATOM     21  S   UNL     1      36.641 -18.789 -21.315  0.00  0.00    +0.063 S 
ATOM     22  O   UNL     1      37.816 -19.353 -21.942  0.00  0.00    -0.153 OA
ATOM     23  O   UNL     1      36.756 -17.862 -20.210  0.00  0.00    -0.153 OA
BRANCH  21  25
ATOM     24 CL   UNL     1      32.159 -14.048 -26.711  0.00  0.00    -0.082 Cl
ATOM     25  C   UNL     1      35.675 -18.016 -22.574  0.00  0.00    +0.122 C 
ATOM     26  C   UNL     1      35.403 -16.661 -22.484  0.00  0.00    +0.020 C 
ATOM     27  C   UNL     1      35.207 -18.777 -23.629  0.00  0.00    +0.020 C 
ATOM     28  C   UNL     1      34.635 -16.031 -23.478  0.00  0.00    +0.001 C 
ATOM     29  C   UNL     1      34.149 -16.796 -24.565  0.00  0.00    +0.001 C 
ATOM     30  C   UNL     1      34.443 -18.167 -24.626  0.00  0.00    +0.001 C 
ATOM     31  C   UNL     1      34.341 -14.660 -23.417  0.00  0.00    +0.001 C 
ATOM     32  C   UNL     1      33.382 -16.166 -25.559  0.00  0.00    +0.011 C 
ATOM     33  C   UNL     1      33.577 -14.051 -24.413  0.00  0.00    +0.011 C 
ATOM     34  C   UNL     1      33.098 -14.803 -25.482  0.00  0.00    +0.058 C 
ENDBRANCH  21  25
ENDBRANCH   3  21
TORSDOF 4
ENDMDL
MODEL 9
REMARK VINA RESULT:      -9.0      3.527      6.211
REMARK  Name = 446399
REMARK  4 active torsions:
REMARK  status: ('A' for Active; 'I' for Inactive)
REMARK    1  A    between atoms: N_3  and  S_21
REMARK    2  A    between atoms: C_4  and  C_10
REMARK    3  A    between atoms: N_9  and  C_16
REMARK    4  A    between atoms: S_21  and  C_25
REMARK                            x       y       z     vdW  Elec       q    Type
REMARK                         _______ _______ _______ _____ _____    ______ ____
ROOT
ATOM      1  O   UNL     1      36.991 -18.269 -20.945  0.00  0.00    -0.275 OA
ATOM      2  N   UNL     1      35.344 -19.905 -21.027  0.00  0.00    -0.277 N 
ATOM      3  N   UNL     1      34.226 -22.148 -19.681  0.00  0.00    -0.152 NA
ATOM      4  C   UNL     1      35.843 -18.619 -21.231  0.00  0.00    +0.225 C 
ATOM      5  C   UNL     1      33.985 -20.353 -21.356  0.00  0.00    +0.113 C 
ATOM      6  C   UNL     1      36.218 -20.955 -20.503  0.00  0.00    +0.113 C 
ATOM      7  C   UNL     1      33.340 -21.044 -20.158  0.00  0.00    +0.117 C 
ATOM      8  C   UNL     1      35.581 -21.644 -19.302  0.00  0.00    +0.117 C 
ENDROOT
BRANCH   4  10
ATOM      9  N   UNL     1      34.412 -15.172 -23.296  0.00  0.00    -0.307 N 
ATOM     10  C   UNL     1      34.896 -17.617 -21.841  0.00  0.00    +0.080 C 
ATOM     11  C   UNL     1      35.155 -17.520 -23.342  0.00  0.00    +0.031 C 
ATOM     12  C   UNL     1      35.087 -16.250 -21.188  0.00  0.00    +0.031 C 
ATOM     13  C   UNL     1      34.273 -16.455 -23.995  0.00  0.00    +0.091 C 
ATOM     14  C   UNL     1      34.201 -15.193 -21.842  0.00  0.00    +0.091 C 
BRANCH   9  16
ATOM     15  N   UNL     1      33.503 -11.590 -25.338  0.00  0.00    -0.242 NA
ATOM     16  C   UNL     1      34.111 -13.984 -23.974  0.00  0.00    +0.051 C 
ATOM     17  C   UNL     1      34.223 -12.739 -23.336  0.00  0.00    +0.035 C 
ATOM     18  C   UNL     1      33.685 -14.002 -25.312  0.00  0.00    +0.035 C 
ATOM     19  C   UNL     1      33.913 -11.592 -24.050  0.00  0.00    +0.100 C 
ATOM     20  C   UNL     1      33.400 -12.799 -25.937  0.00  0.00    +0.100 C 
ENDBRANCH   9  16
ENDBRANCH   4  10
BRANCH   3  21
ATOM     21  S   UNL     1      33.510 -23.233 -18.565  0.00  0.00    +0.063 S 
ATOM     22  O   UNL     1      33.581 -24.575 -19.100  0.00  0.00    -0.153 OA
ATOM     23  O   UNL     1      32.254 -22.676 -18.110  0.00  0.00    -0.153 OA
BRANCH  21  25
ATOM     24 CL   UNL     1      38.231 -23.287 -11.537  0.00  0.00    -0.082 Cl
ATOM     25  C   UNL     1      34.668 -23.118 -17.238  0.00  0.00    +0.122 C 
ATOM     26  C   UNL     1      34.345 -23.664 -16.007  0.00  0.00    +0.020 C 
ATOM     27  C   UNL     1      35.879 -22.485 -17.451  0.00  0.00    +0.020 C 
ATOM     28  C   UNL     1      35.256 -23.581 -14.941  0.00  0.00    +0.001 C 
ATOM     29  C   UNL     1      36.500 -22.936 -15.143  0.00  0.00    +0.001 C 
ATOM     30  C   UNL     1      36.796 -22.394 -16.403  0.00  0.00    +0.001 C 
ATOM     31  C   UNL     1      34.960 -24.124 -13.680  0.00  0.00    +0.001 C 
ATOM     32  C   UNL     1      37.412 -22.854 -14.077  0.00  0.00    +0.011 C 
ATOM     33  C   UNL     1      35.877 -24.031 -12.632  0.00  0.00    +0.011 C 
ATOM     34  C   UNL     1      37.100 -23.397 -12.831  0.00  0.00    +0.058 C 
ENDBRANCH  21  25
ENDBRANCH   3  21
TORSDOF 4
ENDMDL
