MODEL 1
REMARK VINA RESULT:     -11.8      0.000      0.000
REMARK  Name = 11961293
REMARK  7 active torsions:
REMARK  status: ('A' for Active; 'I' for Inactive)
REMARK    1  A    between atoms: C_1  and  C_3
REMARK    2  A    between atoms: C_1  and  N_21
REMARK    3  A    between atoms: N_2  and  C_9
REMARK    4  A    between atoms: C_9  and  C_12
REMARK    5  A    between atoms: C_17  and  O_18
REMARK    6  A    between atoms: C_22  and  C_26
REMARK    7  A    between atoms: C_30  and  C_35
REMARK                            x       y       z     vdW  Elec       q    Type
REMARK                         _______ _______ _______ _____ _____    ______ ____
ROOT
ATOM      1  C   UNL     1      33.847 -14.951 -24.501  0.00  0.00    +0.089 C 
ENDROOT
BRANCH   1   3
ATOM      2  N   UNL     1      35.266 -18.144 -21.962  0.00  0.00    +0.387 N 
ATOM      3  C   UNL     1      34.810 -15.866 -23.752  0.00  0.00    +0.015 C 
ATOM      4  C   UNL     1      35.551 -18.259 -23.398  0.00  0.00    -0.077 C 
ATOM      5  C   UNL     1      35.482 -16.770 -21.488  0.00  0.00    -0.077 C 
ATOM      6  C   UNL     1      34.661 -17.320 -24.214  0.00  0.00    -0.021 C 
ATOM      7  C   UNL     1      34.587 -15.780 -22.238  0.00  0.00    -0.021 C 
ATOM      8  H   UNL     1      34.284 -18.376 -21.816  0.00  0.00    -0.080 HD
BRANCH   2   9
ATOM      9  C   UNL     1      36.089 -19.083 -21.199  0.00  0.00    -0.077 C 
BRANCH   9  12
ATOM     10  O   UNL     1      32.009 -22.484 -17.939  0.00  0.00    -0.226 OA
ATOM     11  N   UNL     1      33.860 -22.249 -19.325  0.00  0.00    -0.246 N 
ATOM     12  C   UNL     1      35.351 -20.403 -20.986  0.00  0.00    -0.017 C 
ATOM     13  C   UNL     1      33.880 -20.154 -20.619  0.00  0.00    +0.020 C 
ATOM     14  C   UNL     1      36.036 -21.240 -19.894  0.00  0.00    +0.020 C 
ATOM     15  C   UNL     1      33.152 -21.465 -20.336  0.00  0.00    +0.097 C 
ATOM     16  C   UNL     1      35.268 -22.533 -19.624  0.00  0.00    +0.097 C 
ATOM     17  C   UNL     1      33.190 -22.718 -18.192  0.00  0.00    +0.405 C 
BRANCH  17  18
ATOM     18  O   UNL     1      33.990 -23.479 -17.382  0.00  0.00    -0.430 OA
ATOM     19  C   UNL     1      33.563 -23.617 -16.021  0.00  0.00    +0.257 C 
ENDBRANCH  17  18
ENDBRANCH   9  12
ENDBRANCH   2   9
ENDBRANCH   1   3
BRANCH   1  21
ATOM     20  O   UNL     1      34.126 -12.093 -24.490  0.00  0.00    -0.270 OA
ATOM     21  N   UNL     1      33.201 -14.018 -23.590  0.00  0.00    -0.301 N 
ATOM     22  C   UNL     1      33.404 -12.655 -23.670  0.00  0.00    +0.247 C 
ATOM     23  H   UNL     1      32.600 -14.370 -22.894  0.00  0.00    +0.150 HD
BRANCH  22  26
ATOM     24  N   UNL     1      32.084  -8.321 -22.131  0.00  0.00    -0.318 N 
ATOM     25  N   UNL     1      33.147  -9.556 -23.642  0.00  0.00    -0.318 N 
ATOM     26  C   UNL     1      32.693 -11.840 -22.652  0.00  0.00    +0.068 C 
ATOM     27  C   UNL     1      32.636 -10.448 -22.735  0.00  0.00    +0.063 C 
ATOM     28  C   UNL     1      32.043 -12.432 -21.564  0.00  0.00    +0.006 C 
ATOM     29  C   UNL     1      31.976  -9.653 -21.802  0.00  0.00    +0.059 C 
ATOM     30  C   UNL     1      32.791  -8.300 -23.239  0.00  0.00    +0.144 C 
ATOM     31  C   UNL     1      31.373 -11.661 -20.611  0.00  0.00    +0.001 C 
ATOM     32  C   UNL     1      31.330 -10.265 -20.715  0.00  0.00    +0.016 C 
ATOM     33  H   UNL     1      31.711  -7.551 -21.643  0.00  0.00    +0.148 HD
ATOM     34  H   UNL     1      33.676  -9.781 -24.442  0.00  0.00    +0.148 HD
BRANCH  30  35
ATOM     35  C   UNL     1      33.133  -7.044 -23.931  0.00  0.00    +0.037 C 
ATOM     36  C   UNL     1      32.428  -5.803 -23.330  0.00  0.00    +0.003 C 
ATOM     37  C   UNL     1      34.657  -6.779 -23.999  0.00  0.00    +0.003 C 
ENDBRANCH  30  35
ENDBRANCH  22  26
ENDBRANCH   1  21
TORSDOF 7
ENDMDL
MODEL 2
REMARK VINA RESULT:     -11.2      2.584      5.599
REMARK  Name = 11961293
REMARK  7 active torsions:
REMARK  status: ('A' for Active; 'I' for Inactive)
REMARK    1  A    between atoms: C_1  and  C_3
REMARK    2  A    between atoms: C_1  and  N_21
REMARK    3  A    between atoms: N_2  and  C_9
REMARK    4  A    between atoms: C_9  and  C_12
REMARK    5  A    between atoms: C_17  and  O_18
REMARK    6  A    between atoms: C_22  and  C_26
REMARK    7  A    between atoms: C_30  and  C_35
REMARK                            x       y       z     vdW  Elec       q    Type
REMARK                         _______ _______ _______ _____ _____    ______ ____
ROOT
ATOM      1  C   UNL     1      36.569 -19.020 -21.388  0.00  0.00    +0.089 C 
ENDROOT
BRANCH   1   3
ATOM      2  N   UNL     1      34.280 -21.853 -19.066  0.00  0.00    +0.387 N 
ATOM      3  C   UNL     1      35.829 -20.301 -21.012  0.00  0.00    +0.015 C 
ATOM      4  C   UNL     1      33.625 -21.279 -20.248  0.00  0.00    -0.077 C 
ATOM      5  C   UNL     1      35.679 -22.201 -19.351  0.00  0.00    -0.077 C 
ATOM      6  C   UNL     1      34.351 -20.018 -20.723  0.00  0.00    -0.021 C 
ATOM      7  C   UNL     1      36.474 -20.971 -19.794  0.00  0.00    -0.021 C 
ATOM      8  H   UNL     1      34.276 -21.147 -18.329  0.00  0.00    -0.080 HD
BRANCH   2   9
ATOM      9  C   UNL     1      33.547 -23.027 -18.593  0.00  0.00    -0.077 C 
BRANCH   9  12
ATOM     10  O   UNL     1      32.189 -25.492 -13.032  0.00  0.00    -0.226 OA
ATOM     11  N   UNL     1      31.985 -23.857 -14.672  0.00  0.00    -0.246 N 
ATOM     12  C   UNL     1      33.093 -22.839 -17.147  0.00  0.00    -0.017 C 
ATOM     13  C   UNL     1      33.914 -23.724 -16.197  0.00  0.00    +0.020 C 
ATOM     14  C   UNL     1      31.595 -23.151 -17.001  0.00  0.00    +0.020 C 
ATOM     15  C   UNL     1      33.421 -23.596 -14.758  0.00  0.00    +0.097 C 
ATOM     16  C   UNL     1      31.143 -23.033 -15.546  0.00  0.00    +0.097 C 
ATOM     17  C   UNL     1      31.488 -24.800 -13.768  0.00  0.00    +0.405 C 
BRANCH  17  18
ATOM     18  O   UNL     1      30.120 -24.876 -13.782  0.00  0.00    -0.430 OA
ATOM     19  C   UNL     1      29.548 -25.809 -14.707  0.00  0.00    +0.257 C 
ENDBRANCH  17  18
ENDBRANCH   9  12
ENDBRANCH   2   9
ENDBRANCH   1   3
BRANCH   1  21
ATOM     20  O   UNL     1      35.331 -16.430 -21.349  0.00  0.00    -0.270 OA
ATOM     21  N   UNL     1      35.917 -18.352 -22.504  0.00  0.00    -0.301 N 
ATOM     22  C   UNL     1      35.350 -17.099 -22.379  0.00  0.00    +0.247 C 
ATOM     23  H   UNL     1      35.879 -18.807 -23.376  0.00  0.00    +0.150 HD
BRANCH  22  26
ATOM     24  N   UNL     1      33.093 -13.469 -24.527  0.00  0.00    -0.318 N 
ATOM     25  N   UNL     1      34.064 -14.286 -22.703  0.00  0.00    -0.318 N 
ATOM     26  C   UNL     1      34.700 -16.565 -23.603  0.00  0.00    +0.068 C 
ATOM     27  C   UNL     1      34.153 -15.281 -23.642  0.00  0.00    +0.063 C 
ATOM     28  C   UNL     1      34.610 -17.323 -24.775  0.00  0.00    +0.006 C 
ATOM     29  C   UNL     1      33.540 -14.746 -24.772  0.00  0.00    +0.059 C 
ATOM     30  C   UNL     1      33.424 -13.225 -23.278  0.00  0.00    +0.144 C 
ATOM     31  C   UNL     1      34.001 -16.814 -25.924  0.00  0.00    +0.001 C 
ATOM     32  C   UNL     1      33.458 -15.523 -25.940  0.00  0.00    +0.016 C 
ATOM     33  H   UNL     1      32.627 -12.866 -25.151  0.00  0.00    +0.148 HD
ATOM     34  H   UNL     1      34.402 -14.330 -21.778  0.00  0.00    +0.148 HD
BRANCH  30  35
ATOM     35  C   UNL     1      33.120 -11.942 -22.618  0.00  0.00    +0.037 C 
ATOM     36  C   UNL     1      33.077 -10.745 -23.599  0.00  0.00    +0.003 C 
ATOM     37  C   UNL     1      31.808 -11.973 -21.796  0.00  0.00    +0.003 C 
ENDBRANCH  30  35
ENDBRANCH  22  26
ENDBRANCH   1  21
TORSDOF 7
ENDMDL
MODEL 3
REMARK VINA RESULT:     -11.0      1.395      2.493
REMARK  Name = 11961293
REMARK  7 active torsions:
REMARK  status: ('A' for Active; 'I' for Inactive)
REMARK    1  A    between atoms: C_1  and  C_3
REMARK    2  A    between atoms: C_1  and  N_21
REMARK    3  A    between atoms: N_2  and  C_9
REMARK    4  A    between atoms: C_9  and  C_12
REMARK    5  A    between atoms: C_17  and  O_18
REMARK    6  A    between atoms: C_22  and  C_26
REMARK    7  A    between atoms: C_30  and  C_35
REMARK                            x       y       z     vdW  Elec       q    Type
REMARK                         _______ _______ _______ _____ _____    ______ ____
ROOT
ATOM      1  C   UNL     1      33.616 -15.660 -25.251  0.00  0.00    +0.089 C 
ENDROOT
BRANCH   1   3
ATOM      2  N   UNL     1      35.112 -18.291 -22.169  0.00  0.00    +0.387 N 
ATOM      3  C   UNL     1      34.590 -16.503 -24.434  0.00  0.00    +0.015 C 
ATOM      4  C   UNL     1      35.094 -18.816 -23.540  0.00  0.00    -0.077 C 
ATOM      5  C   UNL     1      35.579 -16.898 -22.141  0.00  0.00    -0.077 C 
ATOM      6  C   UNL     1      34.179 -17.980 -24.439  0.00  0.00    -0.021 C 
ATOM      7  C   UNL     1      34.681 -15.997 -22.991  0.00  0.00    -0.021 C 
ATOM      8  H   UNL     1      34.156 -18.309 -21.812  0.00  0.00    -0.080 HD
BRANCH   2   9
ATOM      9  C   UNL     1      35.949 -19.129 -21.311  0.00  0.00    -0.077 C 
BRANCH   9  12
ATOM     10  O   UNL     1      32.083 -22.574 -17.843  0.00  0.00    -0.226 OA
ATOM     11  N   UNL     1      33.895 -22.314 -19.275  0.00  0.00    -0.246 N 
ATOM     12  C   UNL     1      35.273 -20.470 -21.034  0.00  0.00    -0.017 C 
ATOM     13  C   UNL     1      33.800 -20.270 -20.646  0.00  0.00    +0.020 C 
ATOM     14  C   UNL     1      36.014 -21.236 -19.926  0.00  0.00    +0.020 C 
ATOM     15  C   UNL     1      33.134 -21.599 -20.299  0.00  0.00    +0.097 C 
ATOM     16  C   UNL     1      35.308 -22.549 -19.592  0.00  0.00    +0.097 C 
ATOM     17  C   UNL     1      33.267 -22.768 -18.112  0.00  0.00    +0.405 C 
BRANCH  17  18
ATOM     18  O   UNL     1      34.115 -23.463 -17.291  0.00  0.00    -0.430 OA
ATOM     19  C   UNL     1      33.701 -23.600 -15.926  0.00  0.00    +0.257 C 
ENDBRANCH  17  18
ENDBRANCH   9  12
ENDBRANCH   2   9
ENDBRANCH   1   3
BRANCH   1  21
ATOM     20  O   UNL     1      32.387 -13.649 -23.611  0.00  0.00    -0.270 OA
ATOM     21  N   UNL     1      33.972 -14.250 -25.192  0.00  0.00    -0.301 N 
ATOM     22  C   UNL     1      33.314 -13.362 -24.365  0.00  0.00    +0.247 C 
ATOM     23  H   UNL     1      34.705 -13.920 -25.760  0.00  0.00    +0.150 HD
BRANCH  22  26
ATOM     24  N   UNL     1      33.196  -8.942 -22.537  0.00  0.00    -0.318 N 
ATOM     25  N   UNL     1      32.508 -11.053 -22.444  0.00  0.00    -0.318 N 
ATOM     26  C   UNL     1      33.779 -11.953 -24.440  0.00  0.00    +0.068 C 
ATOM     27  C   UNL     1      33.354 -10.991 -23.521  0.00  0.00    +0.063 C 
ATOM     28  C   UNL     1      34.666 -11.527 -25.433  0.00  0.00    +0.006 C 
ATOM     29  C   UNL     1      33.771  -9.663 -23.558  0.00  0.00    +0.059 C 
ATOM     30  C   UNL     1      32.446  -9.805 -21.890  0.00  0.00    +0.144 C 
ATOM     31  C   UNL     1      35.102 -10.201 -25.495  0.00  0.00    +0.001 C 
ATOM     32  C   UNL     1      34.663  -9.252 -24.564  0.00  0.00    +0.016 C 
ATOM     33  H   UNL     1      33.320  -7.986 -22.335  0.00  0.00    +0.148 HD
ATOM     34  H   UNL     1      32.031 -11.854 -22.127  0.00  0.00    +0.148 HD
BRANCH  30  35
ATOM     35  C   UNL     1      31.650  -9.427 -20.708  0.00  0.00    +0.037 C 
ATOM     36  C   UNL     1      31.690 -10.486 -19.580  0.00  0.00    +0.003 C 
ATOM     37  C   UNL     1      32.040  -8.047 -20.124  0.00  0.00    +0.003 C 
ENDBRANCH  30  35
ENDBRANCH  22  26
ENDBRANCH   1  21
TORSDOF 7
ENDMDL
MODEL 4
REMARK VINA RESULT:     -10.7      2.597     12.597
REMARK  Name = 11961293
REMARK  7 active torsions:
REMARK  status: ('A' for Active; 'I' for Inactive)
REMARK    1  A    between atoms: C_1  and  C_3
REMARK    2  A    between atoms: C_1  and  N_21
REMARK    3  A    between atoms: N_2  and  C_9
REMARK    4  A    between atoms: C_9  and  C_12
REMARK    5  A    between atoms: C_17  and  O_18
REMARK    6  A    between atoms: C_22  and  C_26
REMARK    7  A    between atoms: C_30  and  C_35
REMARK                            x       y       z     vdW  Elec       q    Type
REMARK                         _______ _______ _______ _____ _____    ______ ____
ROOT
ATOM      1  C   UNL     1      34.370 -22.657 -19.884  0.00  0.00    +0.089 C 
ENDROOT
BRANCH   1   3
ATOM      2  N   UNL     1      35.706 -18.931 -21.614  0.00  0.00    +0.387 N 
ATOM      3  C   UNL     1      34.751 -21.184 -19.998  0.00  0.00    +0.015 C 
ATOM      4  C   UNL     1      34.297 -19.008 -21.206  0.00  0.00    -0.077 C 
ATOM      5  C   UNL     1      36.582 -19.553 -20.612  0.00  0.00    -0.077 C 
ATOM      6  C   UNL     1      33.857 -20.461 -21.012  0.00  0.00    -0.021 C 
ATOM      7  C   UNL     1      36.221 -21.025 -20.399  0.00  0.00    -0.021 C 
ATOM      8  H   UNL     1      35.810 -19.449 -22.487  0.00  0.00    -0.080 HD
BRANCH   2   9
ATOM      9  C   UNL     1      36.097 -17.541 -21.845  0.00  0.00    -0.077 C 
BRANCH   9  12
ATOM     10  O   UNL     1      33.802 -13.013 -25.459  0.00  0.00    -0.226 OA
ATOM     11  N   UNL     1      33.775 -14.352 -23.560  0.00  0.00    -0.246 N 
ATOM     12  C   UNL     1      34.905 -16.710 -22.313  0.00  0.00    -0.017 C 
ATOM     13  C   UNL     1      34.949 -16.499 -23.834  0.00  0.00    +0.020 C 
ATOM     14  C   UNL     1      34.867 -15.354 -21.591  0.00  0.00    +0.020 C 
ATOM     15  C   UNL     1      33.800 -15.611 -24.303  0.00  0.00    +0.097 C 
ATOM     16  C   UNL     1      33.718 -14.486 -22.100  0.00  0.00    +0.097 C 
ATOM     17  C   UNL     1      33.756 -13.130 -24.236  0.00  0.00    +0.405 C 
BRANCH  17  18
ATOM     18  O   UNL     1      33.677 -12.058 -23.386  0.00  0.00    -0.430 OA
ATOM     19  C   UNL     1      33.911 -10.770 -23.971  0.00  0.00    +0.257 C 
ENDBRANCH  17  18
ENDBRANCH   9  12
ENDBRANCH   2   9
ENDBRANCH   1   3
BRANCH   1  21
ATOM     20  O   UNL     1      35.449 -23.090 -17.259  0.00  0.00    -0.270 OA
ATOM     21  N   UNL     1      33.616 -22.907 -18.665  0.00  0.00    -0.301 N 
ATOM     22  C   UNL     1      34.235 -23.103 -17.447  0.00  0.00    +0.247 C 
ATOM     23  H   UNL     1      32.633 -22.937 -18.711  0.00  0.00    +0.150 HD
BRANCH  22  26
ATOM     24  N   UNL     1      33.734 -24.500 -12.899  0.00  0.00    -0.318 N 
ATOM     25  N   UNL     1      35.076 -24.097 -14.623  0.00  0.00    -0.318 N 
ATOM     26  C   UNL     1      33.327 -23.373 -16.303  0.00  0.00    +0.068 C 
ATOM     27  C   UNL     1      33.811 -23.817 -15.071  0.00  0.00    +0.063 C 
ATOM     28  C   UNL     1      31.945 -23.189 -16.407  0.00  0.00    +0.006 C 
ATOM     29  C   UNL     1      32.991 -24.076 -13.977  0.00  0.00    +0.059 C 
ATOM     30  C   UNL     1      34.978 -24.501 -13.321  0.00  0.00    +0.144 C 
ATOM     31  C   UNL     1      31.096 -23.441 -15.326  0.00  0.00    +0.001 C 
ATOM     32  C   UNL     1      31.604 -23.887 -14.099  0.00  0.00    +0.016 C 
ATOM     33  H   UNL     1      33.405 -24.749 -12.005  0.00  0.00    +0.148 HD
ATOM     34  H   UNL     1      35.907 -24.020 -15.147  0.00  0.00    +0.148 HD
BRANCH  30  35
ATOM     35  C   UNL     1      36.104 -24.898 -12.456  0.00  0.00    +0.037 C 
ATOM     36  C   UNL     1      37.474 -24.384 -12.962  0.00  0.00    +0.003 C 
ATOM     37  C   UNL     1      35.917 -24.476 -10.978  0.00  0.00    +0.003 C 
ENDBRANCH  30  35
ENDBRANCH  22  26
ENDBRANCH   1  21
TORSDOF 7
ENDMDL
MODEL 5
REMARK VINA RESULT:     -10.5      2.972     11.903
REMARK  Name = 11961293
REMARK  7 active torsions:
REMARK  status: ('A' for Active; 'I' for Inactive)
REMARK    1  A    between atoms: C_1  and  C_3
REMARK    2  A    between atoms: C_1  and  N_21
REMARK    3  A    between atoms: N_2  and  C_9
REMARK    4  A    between atoms: C_9  and  C_12
REMARK    5  A    between atoms: C_17  and  O_18
REMARK    6  A    between atoms: C_22  and  C_26
REMARK    7  A    between atoms: C_30  and  C_35
REMARK                            x       y       z     vdW  Elec       q    Type
REMARK                         _______ _______ _______ _____ _____    ______ ____
ROOT
ATOM      1  C   UNL     1      35.178 -22.320 -19.697  0.00  0.00    +0.089 C 
ENDROOT
BRANCH   1   3
ATOM      2  N   UNL     1      36.038 -18.768 -21.998  0.00  0.00    +0.387 N 
ATOM      3  C   UNL     1      35.423 -20.851 -20.029  0.00  0.00    +0.015 C 
ATOM      4  C   UNL     1      34.683 -18.890 -21.445  0.00  0.00    -0.077 C 
ATOM      5  C   UNL     1      37.050 -19.189 -21.020  0.00  0.00    -0.077 C 
ATOM      6  C   UNL     1      34.385 -20.332 -21.030  0.00  0.00    -0.021 C 
ATOM      7  C   UNL     1      36.833 -20.642 -20.592  0.00  0.00    -0.021 C 
ATOM      8  H   UNL     1      36.106 -19.387 -22.806  0.00  0.00    -0.080 HD
BRANCH   2   9
ATOM      9  C   UNL     1      36.291 -17.395 -22.437  0.00  0.00    -0.077 C 
BRANCH   9  12
ATOM     10  O   UNL     1      33.306 -13.667 -26.441  0.00  0.00    -0.226 OA
ATOM     11  N   UNL     1      33.573 -14.673 -24.363  0.00  0.00    -0.246 N 
ATOM     12  C   UNL     1      34.998 -16.724 -22.894  0.00  0.00    -0.017 C 
ATOM     13  C   UNL     1      34.871 -16.765 -24.425  0.00  0.00    +0.020 C 
ATOM     14  C   UNL     1      34.932 -15.271 -22.396  0.00  0.00    +0.020 C 
ATOM     15  C   UNL     1      33.617 -16.034 -24.896  0.00  0.00    +0.097 C 
ATOM     16  C   UNL     1      33.675 -14.567 -22.903  0.00  0.00    +0.097 C 
ATOM     17  C   UNL     1      33.394 -13.582 -25.218  0.00  0.00    +0.405 C 
BRANCH  17  18
ATOM     18  O   UNL     1      33.321 -12.391 -24.545  0.00  0.00    -0.430 OA
ATOM     19  C   UNL     1      34.182 -11.347 -25.015  0.00  0.00    +0.257 C 
ENDBRANCH  17  18
ENDBRANCH   9  12
ENDBRANCH   2   9
ENDBRANCH   1   3
BRANCH   1  21
ATOM     20  O   UNL     1      33.482 -24.433 -18.748  0.00  0.00    -0.270 OA
ATOM     21  N   UNL     1      34.642 -22.467 -18.352  0.00  0.00    -0.301 N 
ATOM     22  C   UNL     1      33.831 -23.526 -17.997  0.00  0.00    +0.247 C 
ATOM     23  H   UNL     1      34.865 -21.789 -17.673  0.00  0.00    +0.150 HD
BRANCH  22  26
ATOM     24  N   UNL     1      30.140 -23.141 -14.978  0.00  0.00    -0.318 N 
ATOM     25  N   UNL     1      30.887 -23.151 -17.071  0.00  0.00    -0.318 N 
ATOM     26  C   UNL     1      33.345 -23.519 -16.594  0.00  0.00    +0.068 C 
ATOM     27  C   UNL     1      31.994 -23.342 -16.287  0.00  0.00    +0.063 C 
ATOM     28  C   UNL     1      34.218 -23.691 -15.515  0.00  0.00    +0.006 C 
ATOM     29  C   UNL     1      31.502 -23.334 -14.984  0.00  0.00    +0.059 C 
ATOM     30  C   UNL     1      29.804 -23.036 -16.245  0.00  0.00    +0.144 C 
ATOM     31  C   UNL     1      33.754 -23.686 -14.198  0.00  0.00    +0.001 C 
ATOM     32  C   UNL     1      32.394 -23.508 -13.913  0.00  0.00    +0.016 C 
ATOM     33  H   UNL     1      29.545 -23.094 -14.196  0.00  0.00    +0.148 HD
ATOM     34  H   UNL     1      30.874 -23.104 -18.055  0.00  0.00    +0.148 HD
BRANCH  30  35
ATOM     35  C   UNL     1      28.411 -22.821 -16.676  0.00  0.00    +0.037 C 
ATOM     36  C   UNL     1      27.830 -24.009 -17.481  0.00  0.00    +0.003 C 
ATOM     37  C   UNL     1      27.454 -22.483 -15.506  0.00  0.00    +0.003 C 
ENDBRANCH  30  35
ENDBRANCH  22  26
ENDBRANCH   1  21
TORSDOF 7
ENDMDL
MODEL 6
REMARK VINA RESULT:     -10.3      1.361      2.353
REMARK  Name = 11961293
REMARK  7 active torsions:
REMARK  status: ('A' for Active; 'I' for Inactive)
REMARK    1  A    between atoms: C_1  and  C_3
REMARK    2  A    between atoms: C_1  and  N_21
REMARK    3  A    between atoms: N_2  and  C_9
REMARK    4  A    between atoms: C_9  and  C_12
REMARK    5  A    between atoms: C_17  and  O_18
REMARK    6  A    between atoms: C_22  and  C_26
REMARK    7  A    between atoms: C_30  and  C_35
REMARK                            x       y       z     vdW  Elec       q    Type
REMARK                         _______ _______ _______ _____ _____    ______ ____
ROOT
ATOM      1  C   UNL     1      33.246 -13.454 -24.644  0.00  0.00    +0.089 C 
ENDROOT
BRANCH   1   3
ATOM      2  N   UNL     1      35.278 -17.235 -24.164  0.00  0.00    +0.387 N 
ATOM      3  C   UNL     1      33.501 -14.904 -24.245  0.00  0.00    +0.015 C 
ATOM      4  C   UNL     1      35.004 -16.468 -22.942  0.00  0.00    -0.077 C 
ATOM      5  C   UNL     1      34.128 -17.208 -25.077  0.00  0.00    -0.077 C 
ATOM      6  C   UNL     1      34.678 -15.008 -23.269  0.00  0.00    -0.021 C 
ATOM      7  C   UNL     1      33.773 -15.774 -25.477  0.00  0.00    -0.021 C 
ATOM      8  H   UNL     1      36.067 -16.797 -24.640  0.00  0.00    -0.080 HD
BRANCH   2   9
ATOM      9  C   UNL     1      35.638 -18.614 -23.833  0.00  0.00    -0.077 C 
BRANCH   9  12
ATOM     10  O   UNL     1      36.270 -22.362 -18.895  0.00  0.00    -0.226 OA
ATOM     11  N   UNL     1      35.142 -20.750 -20.133  0.00  0.00    -0.246 N 
ATOM     12  C   UNL     1      35.342 -18.916 -22.366  0.00  0.00    -0.017 C 
ATOM     13  C   UNL     1      36.589 -19.470 -21.660  0.00  0.00    +0.020 C 
ATOM     14  C   UNL     1      34.175 -19.909 -22.238  0.00  0.00    +0.020 C 
ATOM     15  C   UNL     1      36.285 -19.841 -20.211  0.00  0.00    +0.097 C 
ATOM     16  C   UNL     1      33.914 -20.272 -20.778  0.00  0.00    +0.097 C 
ATOM     17  C   UNL     1      35.243 -21.958 -19.438  0.00  0.00    +0.405 C 
BRANCH  17  18
ATOM     18  O   UNL     1      34.064 -22.657 -19.420  0.00  0.00    -0.430 OA
ATOM     19  C   UNL     1      33.499 -22.908 -18.127  0.00  0.00    +0.257 C 
ENDBRANCH  17  18
ENDBRANCH   9  12
ENDBRANCH   2   9
ENDBRANCH   1   3
BRANCH   1  21
ATOM     20  O   UNL     1      33.454 -10.607 -24.332  0.00  0.00    -0.270 OA
ATOM     21  N   UNL     1      32.801 -12.670 -23.502  0.00  0.00    -0.301 N 
ATOM     22  C   UNL     1      32.949 -11.299 -23.451  0.00  0.00    +0.247 C 
ATOM     23  H   UNL     1      32.382 -13.133 -22.741  0.00  0.00    +0.150 HD
BRANCH  22  26
ATOM     24  N   UNL     1      32.002  -7.250 -21.085  0.00  0.00    -0.318 N 
ATOM     25  N   UNL     1      32.723  -8.240 -22.939  0.00  0.00    -0.318 N 
ATOM     26  C   UNL     1      32.467 -10.648 -22.205  0.00  0.00    +0.068 C 
ATOM     27  C   UNL     1      32.405  -9.259 -22.080  0.00  0.00    +0.063 C 
ATOM     28  C   UNL     1      32.052 -11.399 -21.101  0.00  0.00    +0.006 C 
ATOM     29  C   UNL     1      31.956  -8.616 -20.930  0.00  0.00    +0.059 C 
ATOM     30  C   UNL     1      32.466  -7.059 -22.300  0.00  0.00    +0.144 C 
ATOM     31  C   UNL     1      31.597 -10.782 -19.933  0.00  0.00    +0.001 C 
ATOM     32  C   UNL     1      31.542  -9.386 -19.830  0.00  0.00    +0.016 C 
ATOM     33  H   UNL     1      31.743  -6.563 -20.429  0.00  0.00    +0.148 HD
ATOM     34  H   UNL     1      33.075  -8.341 -23.853  0.00  0.00    +0.148 HD
BRANCH  30  35
ATOM     35  C   UNL     1      32.668  -5.713 -22.865  0.00  0.00    +0.037 C 
ATOM     36  C   UNL     1      33.325  -5.730 -24.266  0.00  0.00    +0.003 C 
ATOM     37  C   UNL     1      31.368  -4.873 -22.922  0.00  0.00    +0.003 C 
ENDBRANCH  30  35
ENDBRANCH  22  26
ENDBRANCH   1  21
TORSDOF 7
ENDMDL
MODEL 7
REMARK VINA RESULT:     -10.3      3.535      6.777
REMARK  Name = 11961293
REMARK  7 active torsions:
REMARK  status: ('A' for Active; 'I' for Inactive)
REMARK    1  A    between atoms: C_1  and  C_3
REMARK    2  A    between atoms: C_1  and  N_21
REMARK    3  A    between atoms: N_2  and  C_9
REMARK    4  A    between atoms: C_9  and  C_12
REMARK    5  A    between atoms: C_17  and  O_18
REMARK    6  A    between atoms: C_22  and  C_26
REMARK    7  A    between atoms: C_30  and  C_35
REMARK                            x       y       z     vdW  Elec       q    Type
REMARK                         _______ _______ _______ _____ _____    ______ ____
ROOT
ATOM      1  C   UNL     1      37.009 -19.983 -20.276  0.00  0.00    +0.089 C 
ENDROOT
BRANCH   1   3
ATOM      2  N   UNL     1      34.667 -22.585 -17.746  0.00  0.00    +0.387 N 
ATOM      3  C   UNL     1      36.425 -21.262 -19.684  0.00  0.00    +0.015 C 
ATOM      4  C   UNL     1      34.298 -22.530 -19.166  0.00  0.00    -0.077 C 
ATOM      5  C   UNL     1      36.125 -22.629 -17.578  0.00  0.00    -0.077 C 
ATOM      6  C   UNL     1      34.901 -21.298 -19.846  0.00  0.00    -0.021 C 
ATOM      7  C   UNL     1      36.790 -21.400 -18.202  0.00  0.00    -0.021 C 
ATOM      8  H   UNL     1      34.325 -21.734 -17.299  0.00  0.00    -0.080 HD
BRANCH   2   9
ATOM      9  C   UNL     1      34.042 -23.738 -17.098  0.00  0.00    -0.077 C 
BRANCH   9  12
ATOM     10  O   UNL     1      28.535 -25.237 -14.596  0.00  0.00    -0.226 OA
ATOM     11  N   UNL     1      30.032 -23.731 -15.540  0.00  0.00    -0.246 N 
ATOM     12  C   UNL     1      32.788 -23.320 -16.334  0.00  0.00    -0.017 C 
ATOM     13  C   UNL     1      32.393 -24.389 -15.303  0.00  0.00    +0.020 C 
ATOM     14  C   UNL     1      31.621 -23.060 -17.301  0.00  0.00    +0.020 C 
ATOM     15  C   UNL     1      31.101 -24.013 -14.583  0.00  0.00    +0.097 C 
ATOM     16  C   UNL     1      30.342 -22.707 -16.545  0.00  0.00    +0.097 C 
ATOM     17  C   UNL     1      28.799 -24.379 -15.437  0.00  0.00    +0.405 C 
BRANCH  17  18
ATOM     18  O   UNL     1      27.899 -23.955 -16.379  0.00  0.00    -0.430 OA
ATOM     19  C   UNL     1      27.235 -22.715 -16.104  0.00  0.00    +0.257 C 
ENDBRANCH  17  18
ENDBRANCH   9  12
ENDBRANCH   2   9
ENDBRANCH   1   3
BRANCH   1  21
ATOM     20  O   UNL     1      35.698 -17.496 -20.859  0.00  0.00    -0.270 OA
ATOM     21  N   UNL     1      36.333 -19.627 -21.514  0.00  0.00    -0.301 N 
ATOM     22  C   UNL     1      35.731 -18.397 -21.694  0.00  0.00    +0.247 C 
ATOM     23  H   UNL     1      36.304 -20.283 -22.247  0.00  0.00    +0.150 HD
BRANCH  22  26
ATOM     24  N   UNL     1      33.696 -15.380 -24.799  0.00  0.00    -0.318 N 
ATOM     25  N   UNL     1      34.696 -15.698 -22.840  0.00  0.00    -0.318 N 
ATOM     26  C   UNL     1      35.061 -18.198 -23.004  0.00  0.00    +0.068 C 
ATOM     27  C   UNL     1      34.634 -16.937 -23.425  0.00  0.00    +0.063 C 
ATOM     28  C   UNL     1      34.829 -19.265 -23.878  0.00  0.00    +0.006 C 
ATOM     29  C   UNL     1      34.006 -16.712 -24.647  0.00  0.00    +0.059 C 
ATOM     30  C   UNL     1      34.123 -14.802 -23.698  0.00  0.00    +0.144 C 
ATOM     31  C   UNL     1      34.201 -19.069 -25.110  0.00  0.00    +0.001 C 
ATOM     32  C   UNL     1      33.781 -17.795 -25.512  0.00  0.00    +0.016 C 
ATOM     33  H   UNL     1      33.251 -14.952 -25.566  0.00  0.00    +0.148 HD
ATOM     34  H   UNL     1      35.084 -15.492 -21.958  0.00  0.00    +0.148 HD
BRANCH  30  35
ATOM     35  C   UNL     1      33.981 -13.354 -23.462  0.00  0.00    +0.037 C 
ATOM     36  C   UNL     1      33.858 -12.531 -24.768  0.00  0.00    +0.003 C 
ATOM     37  C   UNL     1      32.801 -13.000 -22.524  0.00  0.00    +0.003 C 
ENDBRANCH  30  35
ENDBRANCH  22  26
ENDBRANCH   1  21
TORSDOF 7
ENDMDL
MODEL 8
REMARK VINA RESULT:     -10.3      2.456     12.355
REMARK  Name = 11961293
REMARK  7 active torsions:
REMARK  status: ('A' for Active; 'I' for Inactive)
REMARK    1  A    between atoms: C_1  and  C_3
REMARK    2  A    between atoms: C_1  and  N_21
REMARK    3  A    between atoms: N_2  and  C_9
REMARK    4  A    between atoms: C_9  and  C_12
REMARK    5  A    between atoms: C_17  and  O_18
REMARK    6  A    between atoms: C_22  and  C_26
REMARK    7  A    between atoms: C_30  and  C_35
REMARK                            x       y       z     vdW  Elec       q    Type
REMARK                         _______ _______ _______ _____ _____    ______ ____
ROOT
ATOM      1  C   UNL     1      34.890 -22.443 -20.022  0.00  0.00    +0.089 C 
ENDROOT
BRANCH   1   3
ATOM      2  N   UNL     1      35.930 -18.671 -21.851  0.00  0.00    +0.387 N 
ATOM      3  C   UNL     1      35.187 -20.954 -20.168  0.00  0.00    +0.015 C 
ATOM      4  C   UNL     1      34.553 -18.816 -21.362  0.00  0.00    -0.077 C 
ATOM      5  C   UNL     1      36.894 -19.237 -20.898  0.00  0.00    -0.077 C 
ATOM      6  C   UNL     1      34.200 -20.287 -21.133  0.00  0.00    -0.021 C 
ATOM      7  C   UNL     1      36.621 -20.723 -20.654  0.00  0.00    -0.021 C 
ATOM      8  H   UNL     1      36.010 -19.192 -22.725  0.00  0.00    -0.080 HD
BRANCH   2   9
ATOM      9  C   UNL     1      36.235 -17.265 -22.114  0.00  0.00    -0.077 C 
BRANCH   9  12
ATOM     10  O   UNL     1      33.529 -12.848 -25.578  0.00  0.00    -0.226 OA
ATOM     11  N   UNL     1      33.660 -14.204 -23.695  0.00  0.00    -0.246 N 
ATOM     12  C   UNL     1      34.978 -16.502 -22.524  0.00  0.00    -0.017 C 
ATOM     13  C   UNL     1      34.946 -16.275 -24.043  0.00  0.00    +0.020 C 
ATOM     14  C   UNL     1      34.890 -15.158 -21.784  0.00  0.00    +0.020 C 
ATOM     15  C   UNL     1      33.729 -15.452 -24.454  0.00  0.00    +0.097 C 
ATOM     16  C   UNL     1      33.671 -14.354 -22.236  0.00  0.00    +0.097 C 
ATOM     17  C   UNL     1      33.541 -12.978 -24.356  0.00  0.00    +0.405 C 
BRANCH  17  18
ATOM     18  O   UNL     1      33.434 -11.921 -23.491  0.00  0.00    -0.430 OA
ATOM     19  C   UNL     1      33.590 -10.617 -24.065  0.00  0.00    +0.257 C 
ENDBRANCH  17  18
ENDBRANCH   9  12
ENDBRANCH   2   9
ENDBRANCH   1   3
BRANCH   1  21
ATOM     20  O   UNL     1      32.579 -22.709 -18.340  0.00  0.00    -0.270 OA
ATOM     21  N   UNL     1      34.876 -22.837 -18.621  0.00  0.00    -0.301 N 
ATOM     22  C   UNL     1      33.703 -22.935 -17.899  0.00  0.00    +0.247 C 
ATOM     23  H   UNL     1      35.729 -23.040 -18.174  0.00  0.00    +0.150 HD
BRANCH  22  26
ATOM     24  N   UNL     1      31.636 -24.350 -13.824  0.00  0.00    -0.318 N 
ATOM     25  N   UNL     1      31.421 -23.762 -15.956  0.00  0.00    -0.318 N 
ATOM     26  C   UNL     1      33.859 -23.323 -16.474  0.00  0.00    +0.068 C 
ATOM     27  C   UNL     1      32.763 -23.680 -15.687  0.00  0.00    +0.063 C 
ATOM     28  C   UNL     1      35.113 -23.351 -15.856  0.00  0.00    +0.006 C 
ATOM     29  C   UNL     1      32.871 -24.052 -14.350  0.00  0.00    +0.059 C 
ATOM     30  C   UNL     1      30.790 -24.166 -14.813  0.00  0.00    +0.144 C 
ATOM     31  C   UNL     1      35.254 -23.720 -14.516  0.00  0.00    +0.001 C 
ATOM     32  C   UNL     1      34.139 -24.074 -13.745  0.00  0.00    +0.016 C 
ATOM     33  H   UNL     1      31.429 -24.639 -12.905  0.00  0.00    +0.148 HD
ATOM     34  H   UNL     1      30.989 -23.565 -16.819  0.00  0.00    +0.148 HD
BRANCH  30  35
ATOM     35  C   UNL     1      29.340 -24.383 -14.661  0.00  0.00    +0.037 C 
ATOM     36  C   UNL     1      28.501 -23.707 -15.772  0.00  0.00    +0.003 C 
ATOM     37  C   UNL     1      28.952 -25.880 -14.570  0.00  0.00    +0.003 C 
ENDBRANCH  30  35
ENDBRANCH  22  26
ENDBRANCH   1  21
TORSDOF 7
ENDMDL
MODEL 9
REMARK VINA RESULT:     -10.2      2.283     11.897
REMARK  Name = 11961293
REMARK  7 active torsions:
REMARK  status: ('A' for Active; 'I' for Inactive)
REMARK    1  A    between atoms: C_1  and  C_3
REMARK    2  A    between atoms: C_1  and  N_21
REMARK    3  A    between atoms: N_2  and  C_9
REMARK    4  A    between atoms: C_9  and  C_12
REMARK    5  A    between atoms: C_17  and  O_18
REMARK    6  A    between atoms: C_22  and  C_26
REMARK    7  A    between atoms: C_30  and  C_35
REMARK                            x       y       z     vdW  Elec       q    Type
REMARK                         _______ _______ _______ _____ _____    ______ ____
ROOT
ATOM      1  C   UNL     1      34.874 -20.710 -21.509  0.00  0.00    +0.089 C 
ENDROOT
BRANCH   1   3
ATOM      2  N   UNL     1      34.685 -16.514 -22.514  0.00  0.00    +0.387 N 
ATOM      3  C   UNL     1      35.325 -19.315 -21.932  0.00  0.00    +0.015 C 
ATOM      4  C   UNL     1      35.403 -16.871 -21.284  0.00  0.00    -0.077 C 
ATOM      5  C   UNL     1      35.004 -17.446 -23.604  0.00  0.00    -0.077 C 
ATOM      6  C   UNL     1      35.046 -18.288 -20.829  0.00  0.00    -0.021 C 
ATOM      7  C   UNL     1      34.632 -18.882 -23.228  0.00  0.00    -0.021 C 
ATOM      8  H   UNL     1      33.685 -16.581 -22.326  0.00  0.00    -0.080 HD
BRANCH   2   9
ATOM      9  C   UNL     1      34.997 -15.140 -22.909  0.00  0.00    -0.077 C 
BRANCH   9  12
ATOM     10  O   UNL     1      32.307  -9.546 -22.361  0.00  0.00    -0.226 OA
ATOM     11  N   UNL     1      32.285 -11.867 -22.250  0.00  0.00    -0.246 N 
ATOM     12  C   UNL     1      33.735 -14.280 -22.930  0.00  0.00    -0.017 C 
ATOM     13  C   UNL     1      33.991 -12.951 -23.656  0.00  0.00    +0.020 C 
ATOM     14  C   UNL     1      33.231 -14.016 -21.502  0.00  0.00    +0.020 C 
ATOM     15  C   UNL     1      32.757 -12.055 -23.621  0.00  0.00    +0.097 C 
ATOM     16  C   UNL     1      32.008 -13.101 -21.506  0.00  0.00    +0.097 C 
ATOM     17  C   UNL     1      32.078 -10.582 -21.741  0.00  0.00    +0.405 C 
BRANCH  17  18
ATOM     18  O   UNL     1      31.583 -10.594 -20.463  0.00  0.00    -0.430 OA
ATOM     19  C   UNL     1      32.024  -9.534 -19.606  0.00  0.00    +0.257 C 
ENDBRANCH  17  18
ENDBRANCH   9  12
ENDBRANCH   2   9
ENDBRANCH   1   3
BRANCH   1  21
ATOM     20  O   UNL     1      33.947 -22.820 -19.797  0.00  0.00    -0.270 OA
ATOM     21  N   UNL     1      35.382 -21.043 -20.187  0.00  0.00    -0.301 N 
ATOM     22  C   UNL     1      34.863 -22.083 -19.442  0.00  0.00    +0.247 C 
ATOM     23  H   UNL     1      36.120 -20.509 -19.812  0.00  0.00    +0.150 HD
BRANCH  22  26
ATOM     24  N   UNL     1      34.324 -23.467 -14.894  0.00  0.00    -0.318 N 
ATOM     25  N   UNL     1      33.427 -23.165 -16.905  0.00  0.00    -0.318 N 
ATOM     26  C   UNL     1      35.473 -22.277 -18.102  0.00  0.00    +0.068 C 
ATOM     27  C   UNL     1      34.735 -22.773 -17.025  0.00  0.00    +0.063 C 
ATOM     28  C   UNL     1      36.816 -21.974 -17.858  0.00  0.00    +0.006 C 
ATOM     29  C   UNL     1      35.274 -22.972 -15.757  0.00  0.00    +0.059 C 
ATOM     30  C   UNL     1      33.229 -23.571 -15.615  0.00  0.00    +0.144 C 
ATOM     31  C   UNL     1      37.385 -22.163 -16.595  0.00  0.00    +0.001 C 
ATOM     32  C   UNL     1      36.625 -22.662 -15.530  0.00  0.00    +0.016 C 
ATOM     33  H   UNL     1      34.438 -23.695 -13.944  0.00  0.00    +0.148 HD
ATOM     34  H   UNL     1      32.751 -23.156 -17.622  0.00  0.00    +0.148 HD
BRANCH  30  35
ATOM     35  C   UNL     1      31.961 -24.073 -15.056  0.00  0.00    +0.037 C 
ATOM     36  C   UNL     1      31.761 -23.701 -13.566  0.00  0.00    +0.003 C 
ATOM     37  C   UNL     1      30.717 -23.628 -15.863  0.00  0.00    +0.003 C 
ENDBRANCH  30  35
ENDBRANCH  22  26
ENDBRANCH   1  21
TORSDOF 7
ENDMDL
