MODEL 1
REMARK VINA RESULT:     -11.3      0.000      0.000
REMARK  Name = 456199
REMARK  5 active torsions:
REMARK  status: ('A' for Active; 'I' for Inactive)
REMARK    1  A    between atoms: O_1  and  C_5
REMARK    2  A    between atoms: O_1  and  C_14
REMARK    3  A    between atoms: C_14  and  C_15
REMARK    4  A    between atoms: C_20  and  O_21
REMARK    5  A    between atoms: O_21  and  C_25
REMARK                            x       y       z     vdW  Elec       q    Type
REMARK                         _______ _______ _______ _____ _____    ______ ____
ROOT
ATOM      1  O   UNL     1      34.862 -23.472 -17.637  0.00  0.00    -0.346 OA
ENDROOT
BRANCH   1   5
ATOM      2  O   UNL     1      36.959 -22.545 -14.750  0.00  0.00    -0.438 OA
ATOM      3  N   UNL     1      35.327 -24.145 -14.074  0.00  0.00    -0.242 N 
ATOM      4  N   UNL     1      36.730 -23.343 -12.556  0.00  0.00    -0.333 NA
ATOM      5  C   UNL     1      35.122 -23.143 -16.281  0.00  0.00    +0.179 C 
ATOM      6  C   UNL     1      34.708 -24.295 -15.371  0.00  0.00    +0.130 C 
ATOM      7  C   UNL     1      36.614 -22.859 -16.105  0.00  0.00    +0.241 C 
ATOM      8  C   UNL     1      36.387 -23.316 -13.825  0.00  0.00    +0.345 C 
ATOM      9  C   UNL     1      34.980 -24.754 -12.908  0.00  0.00    +0.181 C 
ATOM     10  C   UNL     1      35.862 -24.243 -11.982  0.00  0.00    +0.274 C 
ATOM     11  O   UNL     1      35.165 -25.367 -10.098  0.00  0.00    -0.124 OA
ATOM     12  O   UNL     1      36.844 -23.960  -9.919  0.00  0.00    -0.124 OA
ATOM     13  N   UNL     1      35.960 -24.535 -10.615  0.00  0.00    +0.085 N 
ENDBRANCH   1   5
BRANCH   1  14
ATOM     14  C   UNL     1      33.681 -22.838 -18.105  0.00  0.00    +0.169 C 
BRANCH  14  15
ATOM     15  C   UNL     1      34.041 -21.887 -19.210  0.00  0.00    +0.007 C 
ATOM     16  C   UNL     1      35.376 -21.701 -19.549  0.00  0.00    +0.001 C 
ATOM     17  C   UNL     1      33.036 -21.203 -19.883  0.00  0.00    +0.001 C 
ATOM     18  C   UNL     1      35.711 -20.817 -20.575  0.00  0.00    +0.037 C 
ATOM     19  C   UNL     1      33.370 -20.319 -20.909  0.00  0.00    +0.037 C 
ATOM     20  C   UNL     1      34.707 -20.127 -21.256  0.00  0.00    +0.147 C 
BRANCH  20  21
ATOM     21  O   UNL     1      35.034 -19.264 -22.257  0.00  0.00    -0.404 OA
BRANCH  21  25
ATOM     22  F   UNL     1      35.606 -17.657 -20.734  0.00  0.00    -0.133 F 
ATOM     23  F   UNL     1      35.696 -17.194 -22.868  0.00  0.00    -0.133 F 
ATOM     24  F   UNL     1      37.188 -18.537 -22.001  0.00  0.00    -0.133 F 
ATOM     25  C   UNL     1      35.889 -18.169 -21.950  0.00  0.00    +0.575 C 
ENDBRANCH  21  25
ENDBRANCH  20  21
ENDBRANCH  14  15
ENDBRANCH   1  14
TORSDOF 5
ENDMDL
MODEL 2
REMARK VINA RESULT:     -11.3      1.556      2.063
REMARK  Name = 456199
REMARK  5 active torsions:
REMARK  status: ('A' for Active; 'I' for Inactive)
REMARK    1  A    between atoms: O_1  and  C_5
REMARK    2  A    between atoms: O_1  and  C_14
REMARK    3  A    between atoms: C_14  and  C_15
REMARK    4  A    between atoms: C_20  and  O_21
REMARK    5  A    between atoms: O_21  and  C_25
REMARK                            x       y       z     vdW  Elec       q    Type
REMARK                         _______ _______ _______ _____ _____    ______ ____
ROOT
ATOM      1  O   UNL     1      33.205 -22.971 -17.577  0.00  0.00    -0.346 OA
ENDROOT
BRANCH   1   5
ATOM      2  O   UNL     1      32.476 -24.307 -14.219  0.00  0.00    -0.438 OA
ATOM      3  N   UNL     1      34.801 -23.815 -14.398  0.00  0.00    -0.242 N 
ATOM      4  N   UNL     1      34.034 -24.679 -12.506  0.00  0.00    -0.333 NA
ATOM      5  C   UNL     1      33.446 -23.753 -16.416  0.00  0.00    +0.179 C 
ATOM      6  C   UNL     1      34.754 -23.329 -15.757  0.00  0.00    +0.130 C 
ATOM      7  C   UNL     1      32.290 -23.567 -15.432  0.00  0.00    +0.241 C 
ATOM      8  C   UNL     1      33.706 -24.260 -13.707  0.00  0.00    +0.345 C 
ATOM      9  C   UNL     1      35.890 -23.934 -13.591  0.00  0.00    +0.181 C 
ATOM     10  C   UNL     1      35.391 -24.470 -12.423  0.00  0.00    +0.274 C 
ATOM     11  O   UNL     1      37.323 -24.591 -11.178  0.00  0.00    -0.124 OA
ATOM     12  O   UNL     1      35.444 -25.280 -10.270  0.00  0.00    -0.124 OA
ATOM     13  N   UNL     1      36.079 -24.793 -11.247  0.00  0.00    +0.085 N 
ENDBRANCH   1   5
BRANCH   1  14
ATOM     14  C   UNL     1      34.147 -23.261 -18.599  0.00  0.00    +0.169 C 
BRANCH  14  15
ATOM     15  C   UNL     1      34.318 -22.048 -19.465  0.00  0.00    +0.007 C 
ATOM     16  C   UNL     1      35.595 -21.571 -19.737  0.00  0.00    +0.001 C 
ATOM     17  C   UNL     1      33.198 -21.412 -19.986  0.00  0.00    +0.001 C 
ATOM     18  C   UNL     1      35.754 -20.443 -20.542  0.00  0.00    +0.037 C 
ATOM     19  C   UNL     1      33.356 -20.283 -20.791  0.00  0.00    +0.037 C 
ATOM     20  C   UNL     1      34.634 -19.799 -21.069  0.00  0.00    +0.147 C 
BRANCH  20  21
ATOM     21  O   UNL     1      34.790 -18.698 -21.854  0.00  0.00    -0.404 OA
BRANCH  21  25
ATOM     22  F   UNL     1      36.637 -18.693 -23.202  0.00  0.00    -0.133 F 
ATOM     23  F   UNL     1      34.734 -17.960 -23.987  0.00  0.00    -0.133 F 
ATOM     24  F   UNL     1      34.995 -20.103 -23.648  0.00  0.00    -0.133 F 
ATOM     25  C   UNL     1      35.301 -18.877 -23.170  0.00  0.00    +0.575 C 
ENDBRANCH  21  25
ENDBRANCH  20  21
ENDBRANCH  14  15
ENDBRANCH   1  14
TORSDOF 5
ENDMDL
MODEL 3
REMARK VINA RESULT:     -10.5      1.476      1.851
REMARK  Name = 456199
REMARK  5 active torsions:
REMARK  status: ('A' for Active; 'I' for Inactive)
REMARK    1  A    between atoms: O_1  and  C_5
REMARK    2  A    between atoms: O_1  and  C_14
REMARK    3  A    between atoms: C_14  and  C_15
REMARK    4  A    between atoms: C_20  and  O_21
REMARK    5  A    between atoms: O_21  and  C_25
REMARK                            x       y       z     vdW  Elec       q    Type
REMARK                         _______ _______ _______ _____ _____    ______ ____
ROOT
ATOM      1  O   UNL     1      35.514 -22.488 -18.018  0.00  0.00    -0.346 OA
ENDROOT
BRANCH   1   5
ATOM      2  O   UNL     1      37.712 -22.552 -15.059  0.00  0.00    -0.438 OA
ATOM      3  N   UNL     1      35.669 -23.675 -14.564  0.00  0.00    -0.242 N 
ATOM      4  N   UNL     1      37.203 -23.497 -12.973  0.00  0.00    -0.333 NA
ATOM      5  C   UNL     1      35.822 -22.408 -16.634  0.00  0.00    +0.179 C 
ATOM      6  C   UNL     1      35.068 -23.487 -15.864  0.00  0.00    +0.130 C 
ATOM      7  C   UNL     1      37.327 -22.593 -16.438  0.00  0.00    +0.241 C 
ATOM      8  C   UNL     1      36.917 -23.225 -14.227  0.00  0.00    +0.345 C 
ATOM      9  C   UNL     1      35.130 -24.287 -13.475  0.00  0.00    +0.181 C 
ATOM     10  C   UNL     1      36.097 -24.167 -12.502  0.00  0.00    +0.274 C 
ATOM     11  O   UNL     1      35.055 -25.249 -10.759  0.00  0.00    -0.124 OA
ATOM     12  O   UNL     1      37.064 -24.422 -10.429  0.00  0.00    -0.124 OA
ATOM     13  N   UNL     1      36.070 -24.630 -11.181  0.00  0.00    +0.085 N 
ENDBRANCH   1   5
BRANCH   1  14
ATOM     14  C   UNL     1      36.577 -21.985 -18.813  0.00  0.00    +0.169 C 
BRANCH  14  15
ATOM     15  C   UNL     1      36.022 -21.017 -19.816  0.00  0.00    +0.007 C 
ATOM     16  C   UNL     1      36.853 -20.054 -20.375  0.00  0.00    +0.001 C 
ATOM     17  C   UNL     1      34.682 -21.092 -20.176  0.00  0.00    +0.001 C 
ATOM     18  C   UNL     1      36.337 -19.153 -21.308  0.00  0.00    +0.037 C 
ATOM     19  C   UNL     1      34.164 -20.192 -21.108  0.00  0.00    +0.037 C 
ATOM     20  C   UNL     1      34.993 -19.223 -21.674  0.00  0.00    +0.147 C 
BRANCH  20  21
ATOM     21  O   UNL     1      34.489 -18.344 -22.584  0.00  0.00    -0.404 OA
BRANCH  21  25
ATOM     22  F   UNL     1      33.321 -18.854 -24.483  0.00  0.00    -0.133 F 
ATOM     23  F   UNL     1      35.218 -19.864 -24.086  0.00  0.00    -0.133 F 
ATOM     24  F   UNL     1      35.231 -17.757 -24.667  0.00  0.00    -0.133 F 
ATOM     25  C   UNL     1      34.555 -18.691 -23.962  0.00  0.00    +0.575 C 
ENDBRANCH  21  25
ENDBRANCH  20  21
ENDBRANCH  14  15
ENDBRANCH   1  14
TORSDOF 5
ENDMDL
MODEL 4
REMARK VINA RESULT:     -10.5      5.585      6.846
REMARK  Name = 456199
REMARK  5 active torsions:
REMARK  status: ('A' for Active; 'I' for Inactive)
REMARK    1  A    between atoms: O_1  and  C_5
REMARK    2  A    between atoms: O_1  and  C_14
REMARK    3  A    between atoms: C_14  and  C_15
REMARK    4  A    between atoms: C_20  and  O_21
REMARK    5  A    between atoms: O_21  and  C_25
REMARK                            x       y       z     vdW  Elec       q    Type
REMARK                         _______ _______ _______ _____ _____    ______ ____
ROOT
ATOM      1  O   UNL     1      33.950 -23.911 -13.340  0.00  0.00    -0.346 OA
ENDROOT
BRANCH   1   5
ATOM      2  O   UNL     1      36.884 -25.574 -11.853  0.00  0.00    -0.438 OA
ATOM      3  N   UNL     1      37.301 -25.122 -14.156  0.00  0.00    -0.242 N 
ATOM      4  N   UNL     1      38.860 -26.162 -12.972  0.00  0.00    -0.333 NA
ATOM      5  C   UNL     1      35.043 -24.815 -13.306  0.00  0.00    +0.179 C 
ATOM      6  C   UNL     1      36.028 -24.495 -14.426  0.00  0.00    +0.130 C 
ATOM      7  C   UNL     1      35.748 -24.706 -11.954  0.00  0.00    +0.241 C 
ATOM      8  C   UNL     1      37.668 -25.611 -12.932  0.00  0.00    +0.345 C 
ATOM      9  C   UNL     1      38.319 -25.352 -15.028  0.00  0.00    +0.181 C 
ATOM     10  C   UNL     1      39.275 -25.996 -14.273  0.00  0.00    +0.274 C 
ATOM     11  O   UNL     1      40.912 -26.294 -15.864  0.00  0.00    -0.124 OA
ATOM     12  O   UNL     1      41.283 -27.029 -13.826  0.00  0.00    -0.124 OA
ATOM     13  N   UNL     1      40.537 -26.457 -14.670  0.00  0.00    +0.085 N 
ENDBRANCH   1   5
BRANCH   1  14
ATOM     14  C   UNL     1      32.711 -24.592 -13.211  0.00  0.00    +0.169 C 
BRANCH  14  15
ATOM     15  C   UNL     1      31.765 -24.092 -14.264  0.00  0.00    +0.007 C 
ATOM     16  C   UNL     1      32.266 -23.622 -15.471  0.00  0.00    +0.001 C 
ATOM     17  C   UNL     1      30.397 -24.103 -14.020  0.00  0.00    +0.001 C 
ATOM     18  C   UNL     1      31.387 -23.157 -16.450  0.00  0.00    +0.037 C 
ATOM     19  C   UNL     1      29.517 -23.638 -14.997  0.00  0.00    +0.037 C 
ATOM     20  C   UNL     1      30.013 -23.166 -16.213  0.00  0.00    +0.147 C 
BRANCH  20  21
ATOM     21  O   UNL     1      29.155 -22.712 -17.168  0.00  0.00    -0.404 OA
BRANCH  21  25
ATOM     22  F   UNL     1      27.882 -24.608 -17.286  0.00  0.00    -0.133 F 
ATOM     23  F   UNL     1      27.212 -22.799 -18.314  0.00  0.00    -0.133 F 
ATOM     24  F   UNL     1      27.123 -22.883 -16.131  0.00  0.00    -0.133 F 
ATOM     25  C   UNL     1      27.843 -23.261 -17.210  0.00  0.00    +0.575 C 
ENDBRANCH  21  25
ENDBRANCH  20  21
ENDBRANCH  14  15
ENDBRANCH   1  14
TORSDOF 5
ENDMDL
MODEL 5
REMARK VINA RESULT:     -10.2      6.120      8.851
REMARK  Name = 456199
REMARK  5 active torsions:
REMARK  status: ('A' for Active; 'I' for Inactive)
REMARK    1  A    between atoms: O_1  and  C_5
REMARK    2  A    between atoms: O_1  and  C_14
REMARK    3  A    between atoms: C_14  and  C_15
REMARK    4  A    between atoms: C_20  and  O_21
REMARK    5  A    between atoms: O_21  and  C_25
REMARK                            x       y       z     vdW  Elec       q    Type
REMARK                         _______ _______ _______ _____ _____    ______ ____
ROOT
ATOM      1  O   UNL     1      32.753 -24.912 -13.932  0.00  0.00    -0.346 OA
ENDROOT
BRANCH   1   5
ATOM      2  O   UNL     1      31.320 -23.042 -16.767  0.00  0.00    -0.438 OA
ATOM      3  N   UNL     1      29.606 -23.541 -15.188  0.00  0.00    -0.242 N 
ATOM      4  N   UNL     1      29.067 -22.453 -17.043  0.00  0.00    -0.333 NA
ATOM      5  C   UNL     1      31.777 -24.603 -14.915  0.00  0.00    +0.179 C 
ATOM      6  C   UNL     1      30.456 -24.233 -14.248  0.00  0.00    +0.130 C 
ATOM      7  C   UNL     1      32.268 -23.432 -15.766  0.00  0.00    +0.241 C 
ATOM      8  C   UNL     1      30.052 -22.990 -16.359  0.00  0.00    +0.345 C 
ATOM      9  C   UNL     1      28.264 -23.331 -15.104  0.00  0.00    +0.181 C 
ATOM     10  C   UNL     1      27.952 -22.654 -16.262  0.00  0.00    +0.274 C 
ATOM     11  O   UNL     1      25.688 -22.364 -15.962  0.00  0.00    -0.124 OA
ATOM     12  O   UNL     1      26.613 -21.577 -17.793  0.00  0.00    -0.124 OA
ATOM     13  N   UNL     1      26.704 -22.181 -16.688  0.00  0.00    +0.085 N 
ENDBRANCH   1   5
BRANCH   1  14
ATOM     14  C   UNL     1      33.820 -23.975 -13.951  0.00  0.00    +0.169 C 
BRANCH  14  15
ATOM     15  C   UNL     1      35.123 -24.717 -13.939  0.00  0.00    +0.007 C 
ATOM     16  C   UNL     1      35.854 -24.807 -12.761  0.00  0.00    +0.001 C 
ATOM     17  C   UNL     1      35.589 -25.308 -15.108  0.00  0.00    +0.001 C 
ATOM     18  C   UNL     1      37.066 -25.497 -12.750  0.00  0.00    +0.037 C 
ATOM     19  C   UNL     1      36.801 -25.999 -15.099  0.00  0.00    +0.037 C 
ATOM     20  C   UNL     1      37.539 -26.093 -13.919  0.00  0.00    +0.147 C 
BRANCH  20  21
ATOM     21  O   UNL     1      38.722 -26.766 -13.908  0.00  0.00    -0.404 OA
BRANCH  21  25
ATOM     22  F   UNL     1      40.947 -26.908 -14.419  0.00  0.00    -0.133 F 
ATOM     23  F   UNL     1      40.200 -25.152 -13.354  0.00  0.00    -0.133 F 
ATOM     24  F   UNL     1      39.705 -25.411 -15.467  0.00  0.00    -0.133 F 
ATOM     25  C   UNL     1      39.898 -26.068 -14.303  0.00  0.00    +0.575 C 
ENDBRANCH  21  25
ENDBRANCH  20  21
ENDBRANCH  14  15
ENDBRANCH   1  14
TORSDOF 5
ENDMDL
MODEL 6
REMARK VINA RESULT:     -10.1      6.539     11.292
REMARK  Name = 456199
REMARK  5 active torsions:
REMARK  status: ('A' for Active; 'I' for Inactive)
REMARK    1  A    between atoms: O_1  and  C_5
REMARK    2  A    between atoms: O_1  and  C_14
REMARK    3  A    between atoms: C_14  and  C_15
REMARK    4  A    between atoms: C_20  and  O_21
REMARK    5  A    between atoms: O_21  and  C_25
REMARK                            x       y       z     vdW  Elec       q    Type
REMARK                         _______ _______ _______ _____ _____    ______ ____
ROOT
ATOM      1  O   UNL     1      35.127 -19.558 -22.990  0.00  0.00    -0.346 OA
ENDROOT
BRANCH   1   5
ATOM      2  O   UNL     1      33.582 -18.016 -25.961  0.00  0.00    -0.438 OA
ATOM      3  N   UNL     1      34.265 -16.314 -24.438  0.00  0.00    -0.242 N 
ATOM      4  N   UNL     1      33.255 -15.722 -26.321  0.00  0.00    -0.333 NA
ATOM      5  C   UNL     1      34.314 -18.627 -23.688  0.00  0.00    +0.179 C 
ATOM      6  C   UNL     1      34.809 -17.206 -23.441  0.00  0.00    +0.130 C 
ATOM      7  C   UNL     1      34.361 -18.935 -25.185  0.00  0.00    +0.241 C 
ATOM      8  C   UNL     1      33.702 -16.735 -25.613  0.00  0.00    +0.345 C 
ATOM      9  C   UNL     1      34.195 -14.956 -24.396  0.00  0.00    +0.181 C 
ATOM     10  C   UNL     1      33.567 -14.610 -25.572  0.00  0.00    +0.274 C 
ATOM     11  O   UNL     1      33.541 -12.319 -25.358  0.00  0.00    -0.124 OA
ATOM     12  O   UNL     1      32.663 -13.214 -27.162  0.00  0.00    -0.124 OA
ATOM     13  N   UNL     1      33.245 -13.333 -26.048  0.00  0.00    +0.085 N 
ENDBRANCH   1   5
BRANCH   1  14
ATOM     14  C   UNL     1      35.296 -19.180 -21.632  0.00  0.00    +0.169 C 
BRANCH  14  15
ATOM     15  C   UNL     1      34.966 -20.351 -20.754  0.00  0.00    +0.007 C 
ATOM     16  C   UNL     1      35.992 -21.113 -20.208  0.00  0.00    +0.001 C 
ATOM     17  C   UNL     1      33.636 -20.663 -20.495  0.00  0.00    +0.001 C 
ATOM     18  C   UNL     1      35.685 -22.202 -19.391  0.00  0.00    +0.037 C 
ATOM     19  C   UNL     1      33.328 -21.752 -19.679  0.00  0.00    +0.037 C 
ATOM     20  C   UNL     1      34.353 -22.521 -19.127  0.00  0.00    +0.147 C 
BRANCH  20  21
ATOM     21  O   UNL     1      34.054 -23.583 -18.331  0.00  0.00    -0.404 OA
BRANCH  21  25
ATOM     22  F   UNL     1      34.920 -22.532 -16.494  0.00  0.00    -0.133 F 
ATOM     23  F   UNL     1      34.104 -24.549 -16.290  0.00  0.00    -0.133 F 
ATOM     24  F   UNL     1      32.739 -22.870 -16.600  0.00  0.00    -0.133 F 
ATOM     25  C   UNL     1      33.952 -23.365 -16.928  0.00  0.00    +0.575 C 
ENDBRANCH  21  25
ENDBRANCH  20  21
ENDBRANCH  14  15
ENDBRANCH   1  14
TORSDOF 5
ENDMDL
MODEL 7
REMARK VINA RESULT:     -10.1      6.186     10.633
REMARK  Name = 456199
REMARK  5 active torsions:
REMARK  status: ('A' for Active; 'I' for Inactive)
REMARK    1  A    between atoms: O_1  and  C_5
REMARK    2  A    between atoms: O_1  and  C_14
REMARK    3  A    between atoms: C_14  and  C_15
REMARK    4  A    between atoms: C_20  and  O_21
REMARK    5  A    between atoms: O_21  and  C_25
REMARK                            x       y       z     vdW  Elec       q    Type
REMARK                         _______ _______ _______ _____ _____    ______ ____
ROOT
ATOM      1  O   UNL     1      35.840 -18.828 -21.509  0.00  0.00    -0.346 OA
ENDROOT
BRANCH   1   5
ATOM      2  O   UNL     1      34.962 -15.299 -20.908  0.00  0.00    -0.438 OA
ATOM      3  N   UNL     1      34.650 -15.821 -23.213  0.00  0.00    -0.242 N 
ATOM      4  N   UNL     1      34.248 -13.753 -22.521  0.00  0.00    -0.333 NA
ATOM      5  C   UNL     1      35.792 -17.440 -21.802  0.00  0.00    +0.179 C 
ATOM      6  C   UNL     1      35.052 -17.204 -23.115  0.00  0.00    +0.130 C 
ATOM      7  C   UNL     1      35.074 -16.707 -20.669  0.00  0.00    +0.241 C 
ATOM      8  C   UNL     1      34.615 -14.959 -22.150  0.00  0.00    +0.345 C 
ATOM      9  C   UNL     1      34.266 -15.139 -24.325  0.00  0.00    +0.181 C 
ATOM     10  C   UNL     1      34.020 -13.861 -23.874  0.00  0.00    +0.274 C 
ATOM     11  O   UNL     1      33.374 -12.855 -25.841  0.00  0.00    -0.124 OA
ATOM     12  O   UNL     1      33.416 -11.644 -24.007  0.00  0.00    -0.124 OA
ATOM     13  N   UNL     1      33.588 -12.745 -24.602  0.00  0.00    +0.085 N 
ENDBRANCH   1   5
BRANCH   1  14
ATOM     14  C   UNL     1      34.547 -19.413 -21.565  0.00  0.00    +0.169 C 
BRANCH  14  15
ATOM     15  C   UNL     1      34.487 -20.561 -20.601  0.00  0.00    +0.007 C 
ATOM     16  C   UNL     1      33.254 -21.023 -20.158  0.00  0.00    +0.001 C 
ATOM     17  C   UNL     1      35.666 -21.150 -20.159  0.00  0.00    +0.001 C 
ATOM     18  C   UNL     1      33.198 -22.091 -19.261  0.00  0.00    +0.037 C 
ATOM     19  C   UNL     1      35.612 -22.218 -19.263  0.00  0.00    +0.037 C 
ATOM     20  C   UNL     1      34.378 -22.688 -18.814  0.00  0.00    +0.147 C 
BRANCH  20  21
ATOM     21  O   UNL     1      34.323 -23.729 -17.939  0.00  0.00    -0.404 OA
BRANCH  21  25
ATOM     22  F   UNL     1      33.038 -22.986 -16.199  0.00  0.00    -0.133 F 
ATOM     23  F   UNL     1      35.160 -22.465 -16.266  0.00  0.00    -0.133 F 
ATOM     24  F   UNL     1      34.578 -24.522 -15.808  0.00  0.00    -0.133 F 
ATOM     25  C   UNL     1      34.261 -23.437 -16.548  0.00  0.00    +0.575 C 
ENDBRANCH  21  25
ENDBRANCH  20  21
ENDBRANCH  14  15
ENDBRANCH   1  14
TORSDOF 5
ENDMDL
MODEL 8
REMARK VINA RESULT:     -10.0      2.619      4.317
REMARK  Name = 456199
REMARK  5 active torsions:
REMARK  status: ('A' for Active; 'I' for Inactive)
REMARK    1  A    between atoms: O_1  and  C_5
REMARK    2  A    between atoms: O_1  and  C_14
REMARK    3  A    between atoms: C_14  and  C_15
REMARK    4  A    between atoms: C_20  and  O_21
REMARK    5  A    between atoms: O_21  and  C_25
REMARK                            x       y       z     vdW  Elec       q    Type
REMARK                         _______ _______ _______ _____ _____    ______ ____
ROOT
ATOM      1  O   UNL     1      35.973 -20.945 -20.775  0.00  0.00    -0.346 OA
ENDROOT
BRANCH   1   5
ATOM      2  O   UNL     1      34.371 -23.034 -18.196  0.00  0.00    -0.438 OA
ATOM      3  N   UNL     1      36.475 -22.249 -17.397  0.00  0.00    -0.242 N 
ATOM      4  N   UNL     1      35.265 -23.576 -16.096  0.00  0.00    -0.333 NA
ATOM      5  C   UNL     1      35.931 -21.920 -19.745  0.00  0.00    +0.179 C 
ATOM      6  C   UNL     1      36.820 -21.496 -18.581  0.00  0.00    +0.130 C 
ATOM      7  C   UNL     1      34.490 -22.082 -19.259  0.00  0.00    +0.241 C 
ATOM      8  C   UNL     1      35.310 -22.954 -17.253  0.00  0.00    +0.345 C 
ATOM      9  C   UNL     1      37.211 -22.409 -16.265  0.00  0.00    +0.181 C 
ATOM     10  C   UNL     1      36.443 -23.233 -15.472  0.00  0.00    +0.274 C 
ATOM     11  O   UNL     1      37.799 -23.389 -13.618  0.00  0.00    -0.124 OA
ATOM     12  O   UNL     1      35.884 -24.468 -13.612  0.00  0.00    -0.124 OA
ATOM     13  N   UNL     1      36.719 -23.715 -14.186  0.00  0.00    +0.085 N 
ENDBRANCH   1   5
BRANCH   1  14
ATOM     14  C   UNL     1      34.815 -20.123 -20.757  0.00  0.00    +0.169 C 
BRANCH  14  15
ATOM     15  C   UNL     1      34.844 -19.211 -21.948  0.00  0.00    +0.007 C 
ATOM     16  C   UNL     1      35.367 -17.930 -21.821  0.00  0.00    +0.001 C 
ATOM     17  C   UNL     1      34.346 -19.657 -23.167  0.00  0.00    +0.001 C 
ATOM     18  C   UNL     1      35.393 -17.082 -22.929  0.00  0.00    +0.037 C 
ATOM     19  C   UNL     1      34.372 -18.810 -24.276  0.00  0.00    +0.037 C 
ATOM     20  C   UNL     1      34.896 -17.522 -24.156  0.00  0.00    +0.147 C 
BRANCH  20  21
ATOM     21  O   UNL     1      34.922 -16.694 -25.236  0.00  0.00    -0.404 OA
BRANCH  21  25
ATOM     22  F   UNL     1      33.896 -15.278 -26.710  0.00  0.00    -0.133 F 
ATOM     23  F   UNL     1      33.331 -15.225 -24.599  0.00  0.00    -0.133 F 
ATOM     24  F   UNL     1      32.724 -16.929 -25.826  0.00  0.00    -0.133 F 
ATOM     25  C   UNL     1      33.716 -16.038 -25.609  0.00  0.00    +0.575 C 
ENDBRANCH  21  25
ENDBRANCH  20  21
ENDBRANCH  14  15
ENDBRANCH   1  14
TORSDOF 5
ENDMDL
MODEL 9
REMARK VINA RESULT:      -9.8     11.266     14.627
REMARK  Name = 456199
REMARK  5 active torsions:
REMARK  status: ('A' for Active; 'I' for Inactive)
REMARK    1  A    between atoms: O_1  and  C_5
REMARK    2  A    between atoms: O_1  and  C_14
REMARK    3  A    between atoms: C_14  and  C_15
REMARK    4  A    between atoms: C_20  and  O_21
REMARK    5  A    between atoms: O_21  and  C_25
REMARK                            x       y       z     vdW  Elec       q    Type
REMARK                         _______ _______ _______ _____ _____    ______ ____
ROOT
ATOM      1  O   UNL     1      34.182 -11.889 -23.663  0.00  0.00    -0.346 OA
ENDROOT
BRANCH   1   5
ATOM      2  O   UNL     1      34.522  -8.278 -24.322  0.00  0.00    -0.438 OA
ATOM      3  N   UNL     1      32.630  -8.663 -22.924  0.00  0.00    -0.242 N 
ATOM      4  N   UNL     1      33.094  -6.586 -23.547  0.00  0.00    -0.333 NA
ATOM      5  C   UNL     1      33.719 -10.579 -23.953  0.00  0.00    +0.179 C 
ATOM      6  C   UNL     1      32.777 -10.098 -22.854  0.00  0.00    +0.130 C 
ATOM      7  C   UNL     1      34.914  -9.631 -24.057  0.00  0.00    +0.241 C 
ATOM      8  C   UNL     1      33.476  -7.842 -23.620  0.00  0.00    +0.345 C 
ATOM      9  C   UNL     1      31.662  -7.894 -22.356  0.00  0.00    +0.181 C 
ATOM     10  C   UNL     1      31.970  -6.611 -22.754  0.00  0.00    +0.274 C 
ATOM     11  O   UNL     1      30.277  -5.449 -21.713  0.00  0.00    -0.124 OA
ATOM     12  O   UNL     1      31.739  -4.326 -22.909  0.00  0.00    -0.124 OA
ATOM     13  N   UNL     1      31.303  -5.418 -22.447  0.00  0.00    +0.085 N 
ENDBRANCH   1   5
BRANCH   1  14
ATOM     14  C   UNL     1      33.101 -12.795 -23.500  0.00  0.00    +0.169 C 
BRANCH  14  15
ATOM     15  C   UNL     1      33.473 -14.115 -24.110  0.00  0.00    +0.007 C 
ATOM     16  C   UNL     1      33.012 -14.440 -25.379  0.00  0.00    +0.001 C 
ATOM     17  C   UNL     1      34.275 -15.000 -23.398  0.00  0.00    +0.001 C 
ATOM     18  C   UNL     1      33.358 -15.668 -25.946  0.00  0.00    +0.037 C 
ATOM     19  C   UNL     1      34.621 -16.227 -23.964  0.00  0.00    +0.037 C 
ATOM     20  C   UNL     1      34.162 -16.560 -25.238  0.00  0.00    +0.147 C 
BRANCH  20  21
ATOM     21  O   UNL     1      34.499 -17.758 -25.792  0.00  0.00    -0.404 OA
BRANCH  21  25
ATOM     22  F   UNL     1      32.458 -18.785 -25.874  0.00  0.00    -0.133 F 
ATOM     23  F   UNL     1      33.702 -19.011 -24.092  0.00  0.00    -0.133 F 
ATOM     24  F   UNL     1      34.282 -20.030 -25.936  0.00  0.00    -0.133 F 
ATOM     25  C   UNL     1      33.730 -18.902 -25.440  0.00  0.00    +0.575 C 
ENDBRANCH  21  25
ENDBRANCH  20  21
ENDBRANCH  14  15
ENDBRANCH   1  14
TORSDOF 5
ENDMDL
