MODEL 1
REMARK VINA RESULT:     -11.5      0.000      0.000
REMARK  Name = 213049
REMARK  9 active torsions:
REMARK  status: ('A' for Active; 'I' for Inactive)
REMARK    1  A    between atoms: C_3  and  C_13
REMARK    2  A    between atoms: C_4  and  N_25
REMARK    3  A    between atoms: C_16  and  C_17
REMARK    4  A    between atoms: C_17  and  O_18
REMARK    5  A    between atoms: C_17  and  C_20
REMARK    6  A    between atoms: C_20  and  O_21
REMARK    7  A    between atoms: C_26  and  C_29
REMARK    8  A    between atoms: C_29  and  O_30
REMARK    9  A    between atoms: O_30  and  C_33
REMARK                            x       y       z     vdW  Elec       q    Type
REMARK                         _______ _______ _______ _____ _____    ______ ____
ROOT
ATOM      1  F   UNL     1      32.387 -20.156 -21.391  0.00  0.00    -0.204 F 
ATOM      2  F   UNL     1      37.118 -19.726 -21.169  0.00  0.00    -0.204 F 
ATOM      3  C   UNL     1      34.753 -19.913 -21.311  0.00  0.00    +0.051 C 
ATOM      4  C   UNL     1      34.813 -21.694 -19.165  0.00  0.00    +0.062 C 
ATOM      5  C   UNL     1      33.566 -20.468 -20.831  0.00  0.00    +0.143 C 
ATOM      6  C   UNL     1      35.969 -20.249 -20.718  0.00  0.00    +0.143 C 
ATOM      7  C   UNL     1      33.596 -21.358 -19.758  0.00  0.00    +0.045 C 
ATOM      8  C   UNL     1      36.000 -21.139 -19.645  0.00  0.00    +0.045 C 
ENDROOT
BRANCH   3  13
ATOM      9  O   UNL     1      33.185 -16.670 -26.516  0.00  0.00    -0.272 OA
ATOM     10  N   UNL     1      34.460 -17.163 -24.633  0.00  0.00    -0.273 N 
ATOM     11  C   UNL     1      34.043 -19.411 -23.725  0.00  0.00    +0.048 C 
ATOM     12  C   UNL     1      34.511 -18.595 -24.926  0.00  0.00    +0.098 C 
ATOM     13  C   UNL     1      34.720 -18.967 -22.451  0.00  0.00    -0.019 C 
ATOM     14  C   UNL     1      35.231 -16.715 -23.466  0.00  0.00    +0.120 C 
ATOM     15  C   UNL     1      35.259 -17.736 -22.365  0.00  0.00    -0.009 C 
ATOM     16  C   UNL     1      33.832 -16.299 -25.534  0.00  0.00    +0.255 C 
BRANCH  16  17
ATOM     17  C   UNL     1      33.970 -14.823 -25.253  0.00  0.00    +0.217 C 
BRANCH  17  18
ATOM     18  O   UNL     1      33.303 -14.172 -26.314  0.00  0.00    -0.374 OA
ATOM     19  H   UNL     1      33.934 -13.626 -26.808  0.00  0.00    +0.211 HD
ENDBRANCH  17  18
BRANCH  17  20
ATOM     20  C   UNL     1      33.303 -14.465 -23.943  0.00  0.00    +0.176 C 
BRANCH  20  21
ATOM     21  O   UNL     1      34.030 -13.426 -23.303  0.00  0.00    -0.379 OA
ATOM     22  H   UNL     1      33.815 -12.577 -23.720  0.00  0.00    +0.211 HD
ENDBRANCH  20  21
ENDBRANCH  17  20
ENDBRANCH  16  17
ENDBRANCH   3  13
BRANCH   4  25
ATOM     23  O   UNL     1      35.474 -23.715 -16.209  0.00  0.00    -0.432 OA
ATOM     24  O   UNL     1      36.848 -22.062 -16.934  0.00  0.00    -0.226 OA
ATOM     25  N   UNL     1      34.844 -22.604 -18.070  0.00  0.00    -0.221 N 
ATOM     26  C   UNL     1      34.136 -24.147 -16.497  0.00  0.00    +0.234 C 
ATOM     27  C   UNL     1      33.880 -23.659 -17.906  0.00  0.00    +0.149 C 
ATOM     28  C   UNL     1      35.816 -22.702 -17.078  0.00  0.00    +0.409 C 
BRANCH  26  29
ATOM     29  C   UNL     1      33.193 -23.537 -15.470  0.00  0.00    +0.252 C 
BRANCH  29  30
ATOM     30  O   UNL     1      32.013 -24.322 -15.415  0.00  0.00    -0.454 OA
BRANCH  30  33
ATOM     31  O   UNL     1      29.481 -22.576 -17.008  0.00  0.00    -0.347 OA
ATOM     32  N   UNL     1      30.763 -23.110 -16.959  0.00  0.00    -0.039 NA
ATOM     33  C   UNL     1      30.848 -23.695 -15.762  0.00  0.00    +0.264 C 
ATOM     34  C   UNL     1      29.663 -23.566 -15.018  0.00  0.00    +0.104 C 
ATOM     35  C   UNL     1      28.835 -22.854 -15.845  0.00  0.00    +0.217 C 
ENDBRANCH  30  33
ENDBRANCH  29  30
ENDBRANCH  26  29
ENDBRANCH   4  25
TORSDOF 9
ENDMDL
MODEL 2
REMARK VINA RESULT:     -10.9      6.820     12.905
REMARK  Name = 213049
REMARK  9 active torsions:
REMARK  status: ('A' for Active; 'I' for Inactive)
REMARK    1  A    between atoms: C_3  and  C_13
REMARK    2  A    between atoms: C_4  and  N_25
REMARK    3  A    between atoms: C_16  and  C_17
REMARK    4  A    between atoms: C_17  and  O_18
REMARK    5  A    between atoms: C_17  and  C_20
REMARK    6  A    between atoms: C_20  and  O_21
REMARK    7  A    between atoms: C_26  and  C_29
REMARK    8  A    between atoms: C_29  and  O_30
REMARK    9  A    between atoms: O_30  and  C_33
REMARK                            x       y       z     vdW  Elec       q    Type
REMARK                         _______ _______ _______ _____ _____    ______ ____
ROOT
ATOM      1  F   UNL     1      31.938 -13.762 -21.590  0.00  0.00    -0.204 F 
ATOM      2  F   UNL     1      34.616 -11.837 -25.016  0.00  0.00    -0.204 F 
ATOM      3  C   UNL     1      33.289 -12.837 -23.316  0.00  0.00    +0.051 C 
ATOM      4  C   UNL     1      32.449 -10.292 -22.542  0.00  0.00    +0.062 C 
ATOM      5  C   UNL     1      32.399 -12.689 -22.252  0.00  0.00    +0.143 C 
ATOM      6  C   UNL     1      33.759 -11.712 -23.993  0.00  0.00    +0.143 C 
ATOM      7  C   UNL     1      31.979 -11.417 -21.865  0.00  0.00    +0.045 C 
ATOM      8  C   UNL     1      33.339 -10.439 -23.606  0.00  0.00    +0.045 C 
ENDROOT
BRANCH   3  13
ATOM      9  O   UNL     1      34.906 -18.955 -23.461  0.00  0.00    -0.272 OA
ATOM     10  N   UNL     1      34.476 -16.856 -24.371  0.00  0.00    -0.273 N 
ATOM     11  C   UNL     1      34.427 -15.052 -22.700  0.00  0.00    +0.048 C 
ATOM     12  C   UNL     1      35.258 -16.151 -23.356  0.00  0.00    +0.098 C 
ATOM     13  C   UNL     1      33.735 -14.189 -23.727  0.00  0.00    -0.019 C 
ATOM     14  C   UNL     1      33.914 -16.027 -25.445  0.00  0.00    +0.120 C 
ATOM     15  C   UNL     1      33.521 -14.657 -24.971  0.00  0.00    -0.009 C 
ATOM     16  C   UNL     1      34.435 -18.253 -24.359  0.00  0.00    +0.255 C 
BRANCH  16  17
ATOM     17  C   UNL     1      33.755 -18.913 -25.534  0.00  0.00    +0.217 C 
BRANCH  17  18
ATOM     18  O   UNL     1      34.448 -20.127 -25.739  0.00  0.00    -0.374 OA
ATOM     19  H   UNL     1      35.012 -20.312 -24.972  0.00  0.00    +0.211 HD
ENDBRANCH  17  18
BRANCH  17  20
ATOM     20  C   UNL     1      32.306 -19.207 -25.215  0.00  0.00    +0.176 C 
BRANCH  20  21
ATOM     21  O   UNL     1      31.478 -18.718 -26.261  0.00  0.00    -0.379 OA
ATOM     22  H   UNL     1      31.988 -18.675 -27.084  0.00  0.00    +0.211 HD
ENDBRANCH  20  21
ENDBRANCH  17  20
ENDBRANCH  16  17
ENDBRANCH   3  13
BRANCH   4  25
ATOM     23  O   UNL     1      31.622  -7.133 -20.930  0.00  0.00    -0.432 OA
ATOM     24  O   UNL     1      32.690  -8.837 -19.881  0.00  0.00    -0.226 OA
ATOM     25  N   UNL     1      32.021  -8.993 -22.146  0.00  0.00    -0.221 N 
ATOM     26  C   UNL     1      31.289  -6.802 -22.286  0.00  0.00    +0.234 C 
ATOM     27  C   UNL     1      31.239  -8.136 -22.996  0.00  0.00    +0.149 C 
ATOM     28  C   UNL     1      32.180  -8.392 -20.899  0.00  0.00    +0.409 C 
BRANCH  26  29
ATOM     29  C   UNL     1      32.356  -5.867 -22.838  0.00  0.00    +0.252 C 
BRANCH  29  30
ATOM     30  O   UNL     1      32.020  -5.535 -24.175  0.00  0.00    -0.454 OA
BRANCH  30  33
ATOM     31  O   UNL     1      34.082  -4.706 -26.832  0.00  0.00    -0.347 OA
ATOM     32  N   UNL     1      32.848  -4.725 -26.194  0.00  0.00    -0.039 NA
ATOM     33  C   UNL     1      33.066  -5.359 -25.039  0.00  0.00    +0.264 C 
ATOM     34  C   UNL     1      34.406  -5.758 -24.893  0.00  0.00    +0.104 C 
ATOM     35  C   UNL     1      35.003  -5.325 -26.048  0.00  0.00    +0.217 C 
ENDBRANCH  30  33
ENDBRANCH  29  30
ENDBRANCH  26  29
ENDBRANCH   4  25
TORSDOF 9
ENDMDL
MODEL 3
REMARK VINA RESULT:     -10.8      2.118      9.837
REMARK  Name = 213049
REMARK  9 active torsions:
REMARK  status: ('A' for Active; 'I' for Inactive)
REMARK    1  A    between atoms: C_3  and  C_13
REMARK    2  A    between atoms: C_4  and  N_25
REMARK    3  A    between atoms: C_16  and  C_17
REMARK    4  A    between atoms: C_17  and  O_18
REMARK    5  A    between atoms: C_17  and  C_20
REMARK    6  A    between atoms: C_20  and  O_21
REMARK    7  A    between atoms: C_26  and  C_29
REMARK    8  A    between atoms: C_29  and  O_30
REMARK    9  A    between atoms: O_30  and  C_33
REMARK                            x       y       z     vdW  Elec       q    Type
REMARK                         _______ _______ _______ _____ _____    ______ ____
ROOT
ATOM      1  F   UNL     1      32.250 -20.926 -19.742  0.00  0.00    -0.204 F 
ATOM      2  F   UNL     1      36.968 -21.523 -19.764  0.00  0.00    -0.204 F 
ATOM      3  C   UNL     1      34.606 -21.251 -19.721  0.00  0.00    +0.051 C 
ATOM      4  C   UNL     1      34.809 -19.560 -21.931  0.00  0.00    +0.062 C 
ATOM      5  C   UNL     1      33.459 -20.676 -20.268  0.00  0.00    +0.143 C 
ATOM      6  C   UNL     1      35.856 -20.980 -20.280  0.00  0.00    +0.143 C 
ATOM      7  C   UNL     1      33.560 -19.831 -21.373  0.00  0.00    +0.045 C 
ATOM      8  C   UNL     1      35.957 -20.135 -21.384  0.00  0.00    +0.045 C 
ENDROOT
BRANCH   3  13
ATOM      9  O   UNL     1      35.033 -23.875 -13.977  0.00  0.00    -0.272 OA
ATOM     10  N   UNL     1      34.304 -23.711 -16.181  0.00  0.00    -0.273 N 
ATOM     11  C   UNL     1      35.619 -22.136 -17.537  0.00  0.00    +0.048 C 
ATOM     12  C   UNL     1      35.637 -23.412 -16.700  0.00  0.00    +0.098 C 
ATOM     13  C   UNL     1      34.498 -22.149 -18.548  0.00  0.00    -0.019 C 
ATOM     14  C   UNL     1      33.238 -23.854 -17.181  0.00  0.00    +0.120 C 
ATOM     15  C   UNL     1      33.429 -22.946 -18.363  0.00  0.00    -0.009 C 
ATOM     16  C   UNL     1      34.142 -23.992 -14.821  0.00  0.00    +0.255 C 
BRANCH  16  17
ATOM     17  C   UNL     1      32.773 -24.460 -14.392  0.00  0.00    +0.217 C 
BRANCH  17  18
ATOM     18  O   UNL     1      32.998 -25.359 -13.326  0.00  0.00    -0.374 OA
ATOM     19  H   UNL     1      33.833 -25.137 -12.886  0.00  0.00    +0.211 HD
ENDBRANCH  17  18
BRANCH  17  20
ATOM     20  C   UNL     1      31.941 -23.295 -13.903  0.00  0.00    +0.176 C 
BRANCH  20  21
ATOM     21  O   UNL     1      32.368 -22.916 -12.602  0.00  0.00    -0.379 OA
ATOM     22  H   UNL     1      32.175 -21.977 -12.459  0.00  0.00    +0.211 HD
ENDBRANCH  20  21
ENDBRANCH  17  20
ENDBRANCH  16  17
ENDBRANCH   3  13
BRANCH   4  25
ATOM     23  O   UNL     1      34.758 -17.847 -25.144  0.00  0.00    -0.432 OA
ATOM     24  O   UNL     1      33.893 -19.918 -24.810  0.00  0.00    -0.226 OA
ATOM     25  N   UNL     1      34.913 -18.696 -23.058  0.00  0.00    -0.221 N 
ATOM     26  C   UNL     1      35.221 -16.775 -24.312  0.00  0.00    +0.234 C 
ATOM     27  C   UNL     1      35.634 -17.452 -23.024  0.00  0.00    +0.149 C 
ATOM     28  C   UNL     1      34.455 -18.933 -24.352  0.00  0.00    +0.409 C 
BRANCH  26  29
ATOM     29  C   UNL     1      34.089 -15.774 -24.127  0.00  0.00    +0.252 C 
BRANCH  29  30
ATOM     30  O   UNL     1      34.541 -14.729 -23.281  0.00  0.00    -0.454 OA
BRANCH  30  33
ATOM     31  O   UNL     1      31.910 -12.818 -22.087  0.00  0.00    -0.347 OA
ATOM     32  N   UNL     1      32.733 -13.273 -23.110  0.00  0.00    -0.039 NA
ATOM     33  C   UNL     1      33.589 -14.110 -22.518  0.00  0.00    +0.264 C 
ATOM     34  C   UNL     1      33.357 -14.223 -21.136  0.00  0.00    +0.104 C 
ATOM     35  C   UNL     1      32.291 -13.391 -20.916  0.00  0.00    +0.217 C 
ENDBRANCH  30  33
ENDBRANCH  29  30
ENDBRANCH  26  29
ENDBRANCH   4  25
TORSDOF 9
ENDMDL
MODEL 4
REMARK VINA RESULT:     -10.6      3.499     10.853
REMARK  Name = 213049
REMARK  9 active torsions:
REMARK  status: ('A' for Active; 'I' for Inactive)
REMARK    1  A    between atoms: C_3  and  C_13
REMARK    2  A    between atoms: C_4  and  N_25
REMARK    3  A    between atoms: C_16  and  C_17
REMARK    4  A    between atoms: C_17  and  O_18
REMARK    5  A    between atoms: C_17  and  C_20
REMARK    6  A    between atoms: C_20  and  O_21
REMARK    7  A    between atoms: C_26  and  C_29
REMARK    8  A    between atoms: C_29  and  O_30
REMARK    9  A    between atoms: O_30  and  C_33
REMARK                            x       y       z     vdW  Elec       q    Type
REMARK                         _______ _______ _______ _____ _____    ______ ____
ROOT
ATOM      1  F   UNL     1      37.493 -22.069 -16.864  0.00  0.00    -0.204 F 
ATOM      2  F   UNL     1      32.991 -23.546 -17.266  0.00  0.00    -0.204 F 
ATOM      3  C   UNL     1      35.245 -22.828 -17.029  0.00  0.00    +0.051 C 
ATOM      4  C   UNL     1      34.996 -21.415 -19.422  0.00  0.00    +0.062 C 
ATOM      5  C   UNL     1      36.326 -22.099 -17.525  0.00  0.00    +0.143 C 
ATOM      6  C   UNL     1      34.038 -22.850 -17.729  0.00  0.00    +0.143 C 
ATOM      7  C   UNL     1      36.202 -21.393 -18.721  0.00  0.00    +0.045 C 
ATOM      8  C   UNL     1      33.914 -22.144 -18.925  0.00  0.00    +0.045 C 
ENDROOT
BRANCH   3  13
ATOM      9  O   UNL     1      37.440 -25.865 -11.928  0.00  0.00    -0.272 OA
ATOM     10  N   UNL     1      35.805 -24.926 -13.292  0.00  0.00    -0.273 N 
ATOM     11  C   UNL     1      36.577 -24.476 -15.583  0.00  0.00    +0.048 C 
ATOM     12  C   UNL     1      36.338 -25.534 -14.510  0.00  0.00    +0.098 C 
ATOM     13  C   UNL     1      35.377 -23.578 -15.758  0.00  0.00    -0.019 C 
ATOM     14  C   UNL     1      34.561 -24.161 -13.443  0.00  0.00    +0.120 C 
ATOM     15  C   UNL     1      34.471 -23.459 -14.769  0.00  0.00    -0.009 C 
ATOM     16  C   UNL     1      36.396 -25.222 -12.061  0.00  0.00    +0.255 C 
BRANCH  16  17
ATOM     17  C   UNL     1      35.688 -24.699 -10.835  0.00  0.00    +0.217 C 
BRANCH  17  18
ATOM     18  O   UNL     1      35.466 -25.828 -10.015  0.00  0.00    -0.374 OA
ATOM     19  H   UNL     1      35.873 -26.609 -10.423  0.00  0.00    +0.211 HD
ENDBRANCH  17  18
BRANCH  17  20
ATOM     20  C   UNL     1      36.560 -23.705 -10.099  0.00  0.00    +0.176 C 
BRANCH  20  21
ATOM     21  O   UNL     1      37.464 -23.096 -11.010  0.00  0.00    -0.379 OA
ATOM     22  H   UNL     1      36.991 -22.438 -11.543  0.00  0.00    +0.211 HD
ENDBRANCH  20  21
ENDBRANCH  17  20
ENDBRANCH  16  17
ENDBRANCH   3  13
BRANCH   4  25
ATOM     23  O   UNL     1      34.007 -19.640 -22.444  0.00  0.00    -0.432 OA
ATOM     24  O   UNL     1      32.531 -20.527 -20.967  0.00  0.00    -0.226 OA
ATOM     25  N   UNL     1      34.869 -20.696 -20.644  0.00  0.00    -0.221 N 
ATOM     26  C   UNL     1      35.415 -19.365 -22.457  0.00  0.00    +0.234 C 
ATOM     27  C   UNL     1      35.998 -20.345 -21.463  0.00  0.00    +0.149 C 
ATOM     28  C   UNL     1      33.692 -20.317 -21.285  0.00  0.00    +0.409 C 
BRANCH  26  29
ATOM     29  C   UNL     1      35.634 -17.911 -22.064  0.00  0.00    +0.252 C 
BRANCH  29  30
ATOM     30  O   UNL     1      35.624 -17.117 -23.239  0.00  0.00    -0.454 OA
BRANCH  30  33
ATOM     31  O   UNL     1      33.432 -14.523 -23.924  0.00  0.00    -0.347 OA
ATOM     32  N   UNL     1      34.086 -15.701 -24.264  0.00  0.00    -0.039 NA
ATOM     33  C   UNL     1      34.848 -15.991 -23.206  0.00  0.00    +0.264 C 
ATOM     34  C   UNL     1      34.717 -15.041 -22.177  0.00  0.00    +0.104 C 
ATOM     35  C   UNL     1      33.816 -14.139 -22.679  0.00  0.00    +0.217 C 
ENDBRANCH  30  33
ENDBRANCH  29  30
ENDBRANCH  26  29
ENDBRANCH   4  25
TORSDOF 9
ENDMDL
MODEL 5
REMARK VINA RESULT:     -10.5      1.978      2.887
REMARK  Name = 213049
REMARK  9 active torsions:
REMARK  status: ('A' for Active; 'I' for Inactive)
REMARK    1  A    between atoms: C_3  and  C_13
REMARK    2  A    between atoms: C_4  and  N_25
REMARK    3  A    between atoms: C_16  and  C_17
REMARK    4  A    between atoms: C_17  and  O_18
REMARK    5  A    between atoms: C_17  and  C_20
REMARK    6  A    between atoms: C_20  and  O_21
REMARK    7  A    between atoms: C_26  and  C_29
REMARK    8  A    between atoms: C_29  and  O_30
REMARK    9  A    between atoms: O_30  and  C_33
REMARK                            x       y       z     vdW  Elec       q    Type
REMARK                         _______ _______ _______ _____ _____    ______ ____
ROOT
ATOM      1  F   UNL     1      32.656 -20.272 -21.151  0.00  0.00    -0.204 F 
ATOM      2  F   UNL     1      37.373 -19.668 -21.136  0.00  0.00    -0.204 F 
ATOM      3  C   UNL     1      35.012 -19.943 -21.175  0.00  0.00    +0.051 C 
ATOM      4  C   UNL     1      35.228 -21.691 -19.011  0.00  0.00    +0.062 C 
ATOM      5  C   UNL     1      33.868 -20.534 -20.637  0.00  0.00    +0.143 C 
ATOM      6  C   UNL     1      36.265 -20.226 -20.630  0.00  0.00    +0.143 C 
ATOM      7  C   UNL     1      33.976 -21.408 -19.556  0.00  0.00    +0.045 C 
ATOM      8  C   UNL     1      36.373 -21.100 -19.548  0.00  0.00    +0.045 C 
ENDROOT
BRANCH   3  13
ATOM      9  O   UNL     1      33.117 -16.842 -26.356  0.00  0.00    -0.272 OA
ATOM     10  N   UNL     1      34.479 -17.253 -24.515  0.00  0.00    -0.273 N 
ATOM     11  C   UNL     1      34.195 -19.505 -23.567  0.00  0.00    +0.048 C 
ATOM     12  C   UNL     1      34.584 -18.685 -24.793  0.00  0.00    +0.098 C 
ATOM     13  C   UNL     1      34.897 -19.015 -22.324  0.00  0.00    -0.019 C 
ATOM     14  C   UNL     1      35.270 -16.756 -23.383  0.00  0.00    +0.120 C 
ATOM     15  C   UNL     1      35.383 -17.760 -22.271  0.00  0.00    -0.009 C 
ATOM     16  C   UNL     1      33.782 -16.430 -25.403  0.00  0.00    +0.255 C 
BRANCH  16  17
ATOM     17  C   UNL     1      33.864 -14.945 -25.144  0.00  0.00    +0.217 C 
BRANCH  17  18
ATOM     18  O   UNL     1      33.007 -14.348 -26.096  0.00  0.00    -0.374 OA
ATOM     19  H   UNL     1      33.453 -13.587 -26.501  0.00  0.00    +0.211 HD
ENDBRANCH  17  18
BRANCH  17  20
ATOM     20  C   UNL     1      33.373 -14.620 -23.751  0.00  0.00    +0.176 C 
BRANCH  20  21
ATOM     21  O   UNL     1      34.059 -13.479 -23.256  0.00  0.00    -0.379 OA
ATOM     22  H   UNL     1      33.565 -12.678 -23.489  0.00  0.00    +0.211 HD
ENDBRANCH  20  21
ENDBRANCH  17  20
ENDBRANCH  16  17
ENDBRANCH   3  13
BRANCH   4  25
ATOM     23  O   UNL     1      36.139 -23.731 -16.136  0.00  0.00    -0.432 OA
ATOM     24  O   UNL     1      37.544 -22.245 -17.118  0.00  0.00    -0.226 OA
ATOM     25  N   UNL     1      35.339 -22.585 -17.908  0.00  0.00    -0.221 N 
ATOM     26  C   UNL     1      34.735 -24.020 -16.196  0.00  0.00    +0.234 C 
ATOM     27  C   UNL     1      34.310 -23.527 -17.562  0.00  0.00    +0.149 C 
ATOM     28  C   UNL     1      36.442 -22.773 -17.078  0.00  0.00    +0.409 C 
BRANCH  26  29
ATOM     29  C   UNL     1      34.036 -23.299 -15.053  0.00  0.00    +0.252 C 
BRANCH  29  30
ATOM     30  O   UNL     1      33.823 -24.220 -13.997  0.00  0.00    -0.454 OA
BRANCH  30  33
ATOM     31  O   UNL     1      35.642 -24.772 -11.101  0.00  0.00    -0.347 OA
ATOM     32  N   UNL     1      34.543 -24.993 -11.923  0.00  0.00    -0.039 NA
ATOM     33  C   UNL     1      34.750 -24.219 -12.991  0.00  0.00    +0.264 C 
ATOM     34  C   UNL     1      35.951 -23.493 -12.902  0.00  0.00    +0.104 C 
ATOM     35  C   UNL     1      36.473 -23.877 -11.695  0.00  0.00    +0.217 C 
ENDBRANCH  30  33
ENDBRANCH  29  30
ENDBRANCH  26  29
ENDBRANCH   4  25
TORSDOF 9
ENDMDL
MODEL 6
REMARK VINA RESULT:     -10.2      2.450      4.242
REMARK  Name = 213049
REMARK  9 active torsions:
REMARK  status: ('A' for Active; 'I' for Inactive)
REMARK    1  A    between atoms: C_3  and  C_13
REMARK    2  A    between atoms: C_4  and  N_25
REMARK    3  A    between atoms: C_16  and  C_17
REMARK    4  A    between atoms: C_17  and  O_18
REMARK    5  A    between atoms: C_17  and  C_20
REMARK    6  A    between atoms: C_20  and  O_21
REMARK    7  A    between atoms: C_26  and  C_29
REMARK    8  A    between atoms: C_29  and  O_30
REMARK    9  A    between atoms: O_30  and  C_33
REMARK                            x       y       z     vdW  Elec       q    Type
REMARK                         _______ _______ _______ _____ _____    ______ ____
ROOT
ATOM      1  F   UNL     1      32.446 -20.539 -20.761  0.00  0.00    -0.204 F 
ATOM      2  F   UNL     1      37.188 -20.531 -20.402  0.00  0.00    -0.204 F 
ATOM      3  C   UNL     1      34.821 -20.510 -20.614  0.00  0.00    +0.051 C 
ATOM      4  C   UNL     1      34.652 -22.157 -18.369  0.00  0.00    +0.062 C 
ATOM      5  C   UNL     1      33.574 -20.924 -20.144  0.00  0.00    +0.143 C 
ATOM      6  C   UNL     1      35.983 -20.919 -19.961  0.00  0.00    +0.143 C 
ATOM      7  C   UNL     1      33.490 -21.748 -19.022  0.00  0.00    +0.045 C 
ATOM      8  C   UNL     1      35.900 -21.743 -18.839  0.00  0.00    +0.045 C 
ENDROOT
BRANCH   3  13
ATOM      9  O   UNL     1      33.776 -17.546 -26.109  0.00  0.00    -0.272 OA
ATOM     10  N   UNL     1      34.882 -17.961 -24.104  0.00  0.00    -0.273 N 
ATOM     11  C   UNL     1      34.319 -20.135 -23.102  0.00  0.00    +0.048 C 
ATOM     12  C   UNL     1      34.908 -19.409 -24.308  0.00  0.00    +0.098 C 
ATOM     13  C   UNL     1      34.909 -19.635 -21.806  0.00  0.00    -0.019 C 
ATOM     14  C   UNL     1      35.575 -17.464 -22.907  0.00  0.00    +0.120 C 
ATOM     15  C   UNL     1      35.481 -18.417 -21.749  0.00  0.00    -0.009 C 
ATOM     16  C   UNL     1      34.357 -17.135 -25.102  0.00  0.00    +0.255 C 
BRANCH  16  17
ATOM     17  C   UNL     1      34.522 -15.649 -24.897  0.00  0.00    +0.217 C 
BRANCH  17  18
ATOM     18  O   UNL     1      33.719 -15.040 -25.887  0.00  0.00    -0.374 OA
ATOM     19  H   UNL     1      34.207 -14.308 -26.296  0.00  0.00    +0.211 HD
ENDBRANCH  17  18
BRANCH  17  20
ATOM     20  C   UNL     1      34.029 -15.242 -23.526  0.00  0.00    +0.176 C 
BRANCH  20  21
ATOM     21  O   UNL     1      34.597 -13.991 -23.166  0.00  0.00    -0.379 OA
ATOM     22  H   UNL     1      34.475 -13.359 -23.892  0.00  0.00    +0.211 HD
ENDBRANCH  20  21
ENDBRANCH  17  20
ENDBRANCH  16  17
ENDBRANCH   3  13
BRANCH   4  25
ATOM     23  O   UNL     1      33.805 -24.434 -15.657  0.00  0.00    -0.432 OA
ATOM     24  O   UNL     1      32.373 -23.881 -17.326  0.00  0.00    -0.226 OA
ATOM     25  N   UNL     1      34.567 -22.999 -17.224  0.00  0.00    -0.221 N 
ATOM     26  C   UNL     1      35.210 -24.283 -15.409  0.00  0.00    +0.234 C 
ATOM     27  C   UNL     1      35.609 -23.081 -16.237  0.00  0.00    +0.149 C 
ATOM     28  C   UNL     1      33.480 -23.770 -16.819  0.00  0.00    +0.409 C 
BRANCH  26  29
ATOM     29  C   UNL     1      35.923 -25.562 -15.825  0.00  0.00    +0.252 C 
BRANCH  29  30
ATOM     30  O   UNL     1      36.554 -26.122 -14.686  0.00  0.00    -0.454 OA
BRANCH  30  33
ATOM     31  O   UNL     1      39.907 -26.990 -14.710  0.00  0.00    -0.347 OA
ATOM     32  N   UNL     1      38.555 -27.311 -14.704  0.00  0.00    -0.039 NA
ATOM     33  C   UNL     1      37.921 -26.135 -14.693  0.00  0.00    +0.264 C 
ATOM     34  C   UNL     1      38.812 -25.048 -14.693  0.00  0.00    +0.104 C 
ATOM     35  C   UNL     1      40.048 -25.639 -14.703  0.00  0.00    +0.217 C 
ENDBRANCH  30  33
ENDBRANCH  29  30
ENDBRANCH  26  29
ENDBRANCH   4  25
TORSDOF 9
ENDMDL
MODEL 7
REMARK VINA RESULT:     -10.0      3.503     10.599
REMARK  Name = 213049
REMARK  9 active torsions:
REMARK  status: ('A' for Active; 'I' for Inactive)
REMARK    1  A    between atoms: C_3  and  C_13
REMARK    2  A    between atoms: C_4  and  N_25
REMARK    3  A    between atoms: C_16  and  C_17
REMARK    4  A    between atoms: C_17  and  O_18
REMARK    5  A    between atoms: C_17  and  C_20
REMARK    6  A    between atoms: C_20  and  O_21
REMARK    7  A    between atoms: C_26  and  C_29
REMARK    8  A    between atoms: C_29  and  O_30
REMARK    9  A    between atoms: O_30  and  C_33
REMARK                            x       y       z     vdW  Elec       q    Type
REMARK                         _______ _______ _______ _____ _____    ______ ____
ROOT
ATOM      1  F   UNL     1      34.835 -15.994 -20.091  0.00  0.00    -0.204 F 
ATOM      2  F   UNL     1      34.836 -18.011 -24.397  0.00  0.00    -0.204 F 
ATOM      3  C   UNL     1      34.841 -17.041 -22.227  0.00  0.00    +0.051 C 
ATOM      4  C   UNL     1      34.366 -14.551 -23.393  0.00  0.00    +0.062 C 
ATOM      5  C   UNL     1      34.722 -15.905 -21.425  0.00  0.00    +0.143 C 
ATOM      6  C   UNL     1      34.723 -16.930 -23.613  0.00  0.00    +0.143 C 
ATOM      7  C   UNL     1      34.485 -14.661 -22.007  0.00  0.00    +0.045 C 
ATOM      8  C   UNL     1      34.485 -15.686 -24.196  0.00  0.00    +0.045 C 
ENDROOT
BRANCH   3  13
ATOM      9  O   UNL     1      36.984 -21.802 -18.650  0.00  0.00    -0.272 OA
ATOM     10  N   UNL     1      35.624 -20.805 -20.253  0.00  0.00    -0.273 N 
ATOM     11  C   UNL     1      36.467 -18.634 -21.044  0.00  0.00    +0.048 C 
ATOM     12  C   UNL     1      36.738 -20.130 -20.917  0.00  0.00    +0.098 C 
ATOM     13  C   UNL     1      35.093 -18.363 -21.608  0.00  0.00    -0.019 C 
ATOM     14  C   UNL     1      34.306 -20.647 -20.882  0.00  0.00    +0.120 C 
ATOM     15  C   UNL     1      34.131 -19.301 -21.526  0.00  0.00    -0.009 C 
ATOM     16  C   UNL     1      35.880 -21.665 -19.182  0.00  0.00    +0.255 C 
BRANCH  16  17
ATOM     17  C   UNL     1      34.704 -22.456 -18.661  0.00  0.00    +0.217 C 
BRANCH  17  18
ATOM     18  O   UNL     1      34.608 -23.587 -19.503  0.00  0.00    -0.374 OA
ATOM     19  H   UNL     1      35.182 -23.466 -20.275  0.00  0.00    +0.211 HD
ENDBRANCH  17  18
BRANCH  17  20
ATOM     20  C   UNL     1      34.953 -22.905 -17.239  0.00  0.00    +0.176 C 
BRANCH  20  21
ATOM     21  O   UNL     1      34.136 -24.030 -16.943  0.00  0.00    -0.379 OA
ATOM     22  H   UNL     1      33.400 -23.754 -16.375  0.00  0.00    +0.211 HD
ENDBRANCH  20  21
ENDBRANCH  17  20
ENDBRANCH  16  17
ENDBRANCH   3  13
BRANCH   4  25
ATOM     23  O   UNL     1      33.503 -11.659 -25.431  0.00  0.00    -0.432 OA
ATOM     24  O   UNL     1      33.151 -13.804 -26.079  0.00  0.00    -0.226 OA
ATOM     25  N   UNL     1      34.126 -13.280 -23.988  0.00  0.00    -0.221 N 
ATOM     26  C   UNL     1      33.841 -10.993 -24.206  0.00  0.00    +0.234 C 
ATOM     27  C   UNL     1      34.565 -12.045 -23.395  0.00  0.00    +0.149 C 
ATOM     28  C   UNL     1      33.551 -13.021 -25.230  0.00  0.00    +0.409 C 
BRANCH  26  29
ATOM     29  C   UNL     1      32.561 -10.502 -23.545  0.00  0.00    +0.252 C 
BRANCH  29  30
ATOM     30  O   UNL     1      32.882  -9.428 -22.676  0.00  0.00    -0.454 OA
BRANCH  30  33
ATOM     31  O   UNL     1      32.021  -8.886 -19.365  0.00  0.00    -0.347 OA
ATOM     32  N   UNL     1      32.656  -8.519 -20.546  0.00  0.00    -0.039 NA
ATOM     33  C   UNL     1      32.385  -9.505 -21.404  0.00  0.00    +0.264 C 
ATOM     34  C   UNL     1      31.591 -10.512 -20.828  0.00  0.00    +0.104 C 
ATOM     35  C   UNL     1      31.390 -10.075 -19.546  0.00  0.00    +0.217 C 
ENDBRANCH  30  33
ENDBRANCH  29  30
ENDBRANCH  26  29
ENDBRANCH   4  25
TORSDOF 9
ENDMDL
MODEL 8
REMARK VINA RESULT:      -9.9      1.226      1.249
REMARK  Name = 213049
REMARK  9 active torsions:
REMARK  status: ('A' for Active; 'I' for Inactive)
REMARK    1  A    between atoms: C_3  and  C_13
REMARK    2  A    between atoms: C_4  and  N_25
REMARK    3  A    between atoms: C_16  and  C_17
REMARK    4  A    between atoms: C_17  and  O_18
REMARK    5  A    between atoms: C_17  and  C_20
REMARK    6  A    between atoms: C_20  and  O_21
REMARK    7  A    between atoms: C_26  and  C_29
REMARK    8  A    between atoms: C_29  and  O_30
REMARK    9  A    between atoms: O_30  and  C_33
REMARK                            x       y       z     vdW  Elec       q    Type
REMARK                         _______ _______ _______ _____ _____    ______ ____
ROOT
ATOM      1  F   UNL     1      32.769 -20.572 -20.777  0.00  0.00    -0.204 F 
ATOM      2  F   UNL     1      37.492 -20.074 -20.540  0.00  0.00    -0.204 F 
ATOM      3  C   UNL     1      35.130 -20.296 -20.690  0.00  0.00    +0.051 C 
ATOM      4  C   UNL     1      35.205 -22.050 -18.522  0.00  0.00    +0.062 C 
ATOM      5  C   UNL     1      33.949 -20.861 -20.208  0.00  0.00    +0.143 C 
ATOM      6  C   UNL     1      36.348 -20.607 -20.087  0.00  0.00    +0.143 C 
ATOM      7  C   UNL     1      33.986 -21.738 -19.125  0.00  0.00    +0.045 C 
ATOM      8  C   UNL     1      36.386 -21.484 -19.003  0.00  0.00    +0.045 C 
ENDROOT
BRANCH   3  13
ATOM      9  O   UNL     1      33.704 -17.311 -26.087  0.00  0.00    -0.272 OA
ATOM     10  N   UNL     1      34.819 -17.617 -24.067  0.00  0.00    -0.273 N 
ATOM     11  C   UNL     1      34.629 -19.901 -23.175  0.00  0.00    +0.048 C 
ATOM     12  C   UNL     1      35.107 -19.026 -24.330  0.00  0.00    +0.098 C 
ATOM     13  C   UNL     1      35.090 -19.364 -21.841  0.00  0.00    -0.019 C 
ATOM     14  C   UNL     1      35.384 -17.062 -22.830  0.00  0.00    +0.120 C 
ATOM     15  C   UNL     1      35.434 -18.069 -21.716  0.00  0.00    -0.009 C 
ATOM     16  C   UNL     1      34.179 -16.852 -25.046  0.00  0.00    +0.255 C 
BRANCH  16  17
ATOM     17  C   UNL     1      34.072 -15.371 -24.774  0.00  0.00    +0.217 C 
BRANCH  17  18
ATOM     18  O   UNL     1      32.914 -14.943 -25.461  0.00  0.00    -0.374 OA
ATOM     19  H   UNL     1      32.596 -15.657 -26.035  0.00  0.00    +0.211 HD
ENDBRANCH  17  18
BRANCH  17  20
ATOM     20  C   UNL     1      33.905 -15.111 -23.294  0.00  0.00    +0.176 C 
BRANCH  20  21
ATOM     21  O   UNL     1      33.777 -13.715 -23.064  0.00  0.00    -0.379 OA
ATOM     22  H   UNL     1      34.608 -13.369 -22.703  0.00  0.00    +0.211 HD
ENDBRANCH  20  21
ENDBRANCH  17  20
ENDBRANCH  16  17
ENDBRANCH   3  13
BRANCH   4  25
ATOM     23  O   UNL     1      35.940 -24.127 -15.623  0.00  0.00    -0.432 OA
ATOM     24  O   UNL     1      37.440 -22.710 -16.566  0.00  0.00    -0.226 OA
ATOM     25  N   UNL     1      35.243 -22.946 -17.416  0.00  0.00    -0.221 N 
ATOM     26  C   UNL     1      34.526 -24.350 -15.721  0.00  0.00    +0.234 C 
ATOM     27  C   UNL     1      34.162 -23.839 -17.098  0.00  0.00    +0.149 C 
ATOM     28  C   UNL     1      36.313 -23.185 -16.557  0.00  0.00    +0.409 C 
BRANCH  26  29
ATOM     29  C   UNL     1      33.831 -23.595 -14.597  0.00  0.00    +0.252 C 
BRANCH  29  30
ATOM     30  O   UNL     1      32.710 -22.913 -15.134  0.00  0.00    -0.454 OA
BRANCH  30  33
ATOM     31  O   UNL     1      29.991 -24.934 -14.411  0.00  0.00    -0.347 OA
ATOM     32  N   UNL     1      31.235 -24.392 -14.108  0.00  0.00    -0.039 NA
ATOM     33  C   UNL     1      31.527 -23.599 -15.142  0.00  0.00    +0.264 C 
ATOM     34  C   UNL     1      30.516 -23.599 -16.119  0.00  0.00    +0.104 C 
ATOM     35  C   UNL     1      29.574 -24.454 -15.611  0.00  0.00    +0.217 C 
ENDBRANCH  30  33
ENDBRANCH  29  30
ENDBRANCH  26  29
ENDBRANCH   4  25
TORSDOF 9
ENDMDL
MODEL 9
REMARK VINA RESULT:      -9.7      3.665      5.586
REMARK  Name = 213049
REMARK  9 active torsions:
REMARK  status: ('A' for Active; 'I' for Inactive)
REMARK    1  A    between atoms: C_3  and  C_13
REMARK    2  A    between atoms: C_4  and  N_25
REMARK    3  A    between atoms: C_16  and  C_17
REMARK    4  A    between atoms: C_17  and  O_18
REMARK    5  A    between atoms: C_17  and  C_20
REMARK    6  A    between atoms: C_20  and  O_21
REMARK    7  A    between atoms: C_26  and  C_29
REMARK    8  A    between atoms: C_29  and  O_30
REMARK    9  A    between atoms: O_30  and  C_33
REMARK                            x       y       z     vdW  Elec       q    Type
REMARK                         _______ _______ _______ _____ _____    ______ ____
ROOT
ATOM      1  F   UNL     1      34.384 -14.666 -19.963  0.00  0.00    -0.204 F 
ATOM      2  F   UNL     1      34.285 -15.764 -24.589  0.00  0.00    -0.204 F 
ATOM      3  C   UNL     1      34.320 -15.177 -22.286  0.00  0.00    +0.051 C 
ATOM      4  C   UNL     1      35.346 -17.706 -21.706  0.00  0.00    +0.062 C 
ATOM      5  C   UNL     1      34.602 -15.530 -20.966  0.00  0.00    +0.143 C 
ATOM      6  C   UNL     1      34.552 -16.088 -23.316  0.00  0.00    +0.143 C 
ATOM      7  C   UNL     1      35.114 -16.795 -20.676  0.00  0.00    +0.045 C 
ATOM      8  C   UNL     1      35.065 -17.352 -23.027  0.00  0.00    +0.045 C 
ENDROOT
BRANCH   3  13
ATOM      9  O   UNL     1      31.707  -9.422 -21.952  0.00  0.00    -0.272 OA
ATOM     10  N   UNL     1      32.780 -11.202 -22.998  0.00  0.00    -0.273 N 
ATOM     11  C   UNL     1      32.654 -13.306 -21.731  0.00  0.00    +0.048 C 
ATOM     12  C   UNL     1      31.873 -12.202 -22.437  0.00  0.00    +0.098 C 
ATOM     13  C   UNL     1      33.776 -13.833 -22.593  0.00  0.00    -0.019 C 
ATOM     14  C   UNL     1      33.789 -11.702 -23.942  0.00  0.00    +0.120 C 
ATOM     15  C   UNL     1      34.268 -13.083 -23.597  0.00  0.00    -0.009 C 
ATOM     16  C   UNL     1      32.553  -9.847 -22.742  0.00  0.00    +0.255 C 
BRANCH  16  17
ATOM     17  C   UNL     1      33.423  -8.869 -23.493  0.00  0.00    +0.217 C 
BRANCH  17  18
ATOM     18  O   UNL     1      32.528  -7.986 -24.140  0.00  0.00    -0.374 OA
ATOM     19  H   UNL     1      33.011  -7.204 -24.450  0.00  0.00    +0.211 HD
ENDBRANCH  17  18
BRANCH  17  20
ATOM     20  C   UNL     1      34.296  -8.088 -22.536  0.00  0.00    +0.176 C 
BRANCH  20  21
ATOM     21  O   UNL     1      33.481  -7.411 -21.589  0.00  0.00    -0.379 OA
ATOM     22  H   UNL     1      33.808  -7.591 -20.694  0.00  0.00    +0.211 HD
ENDBRANCH  20  21
ENDBRANCH  17  20
ENDBRANCH  16  17
ENDBRANCH   3  13
BRANCH   4  25
ATOM     23  O   UNL     1      37.282 -20.701 -20.974  0.00  0.00    -0.432 OA
ATOM     24  O   UNL     1      38.210 -18.663 -21.334  0.00  0.00    -0.226 OA
ATOM     25  N   UNL     1      35.868 -18.997 -21.411  0.00  0.00    -0.221 N 
ATOM     26  C   UNL     1      35.962 -21.207 -20.729  0.00  0.00    +0.234 C 
ATOM     27  C   UNL     1      35.045 -20.175 -21.348  0.00  0.00    +0.149 C 
ATOM     28  C   UNL     1      37.204 -19.353 -21.245  0.00  0.00    +0.409 C 
BRANCH  26  29
ATOM     29  C   UNL     1      35.767 -21.359 -19.227  0.00  0.00    +0.252 C 
BRANCH  29  30
ATOM     30  O   UNL     1      35.287 -22.667 -18.962  0.00  0.00    -0.454 OA
BRANCH  30  33
ATOM     31  O   UNL     1      31.936 -22.441 -18.113  0.00  0.00    -0.347 OA
ATOM     32  N   UNL     1      33.012 -22.175 -18.952  0.00  0.00    -0.039 NA
ATOM     33  C   UNL     1      34.061 -22.756 -18.363  0.00  0.00    +0.264 C 
ATOM     34  C   UNL     1      33.712 -23.398 -17.162  0.00  0.00    +0.104 C 
ATOM     35  C   UNL     1      32.366 -23.170 -17.050  0.00  0.00    +0.217 C 
ENDBRANCH  30  33
ENDBRANCH  29  30
ENDBRANCH  26  29
ENDBRANCH   4  25
TORSDOF 9
ENDMDL
