MODEL 1
REMARK VINA RESULT:     -11.6      0.000      0.000
REMARK  Name = 104758
REMARK  11 active torsions:
REMARK  status: ('A' for Active; 'I' for Inactive)
REMARK    1  A    between atoms: C_2  and  N_21
REMARK    2  A    between atoms: C_3  and  C_8
REMARK    3  A    between atoms: N_7  and  CA_10
REMARK    4  A    between atoms: CA_10  and  C_12
REMARK    5  A    between atoms: CA_10  and  CB_15
REMARK    6  A    between atoms: C_12  and  O_13
REMARK    7  A    between atoms: CB_15  and  CG_16
REMARK    8  A    between atoms: CG_16  and  CD_18
REMARK    9  A    between atoms: CD_18  and  OE1_19
REMARK   10  A    between atoms: N_21  and  C_23
REMARK   11  A    between atoms: C_23  and  C_27
REMARK                            x       y       z     vdW  Elec       q    Type
REMARK                         _______ _______ _______ _____ _____    ______ ____
ROOT
ATOM      1  S   UNL     1      36.387 -21.805 -18.345  0.00  0.00    -0.068 S 
ATOM      2  C   UNL     1      34.868 -21.694 -19.126  0.00  0.00    +0.079 C 
ATOM      3  C   UNL     1      35.751 -22.835 -17.134  0.00  0.00    +0.084 C 
ATOM      4  C   UNL     1      33.898 -22.426 -18.476  0.00  0.00    +0.022 C 
ATOM      5  C   UNL     1      34.410 -23.087 -17.323  0.00  0.00    +0.013 C 
ENDROOT
BRANCH   3   8
ATOM      6  O   UNL     1      37.624 -22.686 -15.692  0.00  0.00    -0.270 OA
ATOM      7  N   UNL     1      36.318 -24.569 -15.538  0.00  0.00    -0.293 N 
ATOM      8  C   ACE A   0      36.614 -23.309 -16.101  0.00  0.00    +0.252 C 
ATOM      9  H   UNL     1      35.524 -25.050 -15.867  0.00  0.00    +0.150 HD
BRANCH   7  10
ATOM     10  CA  UNL     1      37.116 -25.194 -14.508  0.00  0.00    +0.172 C 
BRANCH  10  12
ATOM     11  OXT UNL     1      38.484 -27.205 -14.615  0.00  0.00    -0.248 OA
ATOM     12  C   UNL     1      37.517 -26.567 -15.007  0.00  0.00    +0.332 C 
BRANCH  12  13
ATOM     13  O   UNL     1      36.645 -27.044 -15.934  0.00  0.00    -0.479 OA
ATOM     14  H   UNL     1      35.872 -26.558 -16.145  0.00  0.00    +0.295 HD
ENDBRANCH  12  13
ENDBRANCH  10  12
BRANCH  10  15
ATOM     15  CB  UNL     1      36.412 -25.213 -13.145  0.00  0.00    +0.043 C 
BRANCH  15  16
ATOM     16  CG  UNL     1      36.093 -23.841 -12.538  0.00  0.00    +0.112 C 
BRANCH  16  18
ATOM     17  OE2 UNL     1      36.705 -24.281 -10.221  0.00  0.00    -0.250 OA
ATOM     18  CD  UNL     1      36.789 -23.581 -11.220  0.00  0.00    +0.314 C 
BRANCH  18  19
ATOM     19  OE1 UNL     1      37.508 -22.428 -11.253  0.00  0.00    -0.480 OA
ATOM     20  HE1 UNL     1      37.069 -21.604 -11.346  0.00  0.00    +0.295 HD
ENDBRANCH  18  19
ENDBRANCH  16  18
ENDBRANCH  15  16
ENDBRANCH  10  15
ENDBRANCH   7  10
ENDBRANCH   3   8
BRANCH   2  21
ATOM     21  N   UNL     1      34.698 -20.937 -20.278  0.00  0.00    -0.297 N 
ATOM     22  C   UNL     1      33.359 -20.555 -20.733  0.00  0.00    +0.113 C 
BRANCH  21  23
ATOM     23  C   UNL     1      35.818 -20.486 -21.073  0.00  0.00    +0.118 C 
BRANCH  23  27
ATOM     24  O   UNL     1      33.938 -19.615 -25.791  0.00  0.00    -0.209 OA
ATOM     25  N   UNL     1      34.395 -15.960 -24.209  0.00  0.00    -0.290 N 
ATOM     26  N   UNL     1      33.743 -17.345 -26.037  0.00  0.00    -0.322 NA
ATOM     27  C   UNL     1      35.447 -19.296 -21.892  0.00  0.00    -0.002 C 
ATOM     28  C   UNL     1      34.605 -18.346 -23.944  0.00  0.00    +0.108 C 
ATOM     29  C   UNL     1      34.950 -19.467 -23.185  0.00  0.00    +0.011 C 
ATOM     30  C   UNL     1      34.753 -17.054 -23.419  0.00  0.00    +0.062 C 
ATOM     31  C   UNL     1      35.597 -18.013 -21.363  0.00  0.00    -0.001 C 
ATOM     32  C   UNL     1      35.251 -16.894 -22.123  0.00  0.00    +0.015 C 
ATOM     33  C   UNL     1      34.070 -18.487 -25.327  0.00  0.00    +0.207 C 
ATOM     34  C   UNL     1      33.912 -16.182 -25.477  0.00  0.00    +0.174 C 
ATOM     35  C   UNL     1      33.544 -14.959 -26.281  0.00  0.00    +0.085 C 
ATOM     36  H   UNL     1      34.488 -15.043 -23.864  0.00  0.00    +0.154 HD
ENDBRANCH  23  27
ENDBRANCH  21  23
ENDBRANCH   2  21
TORSDOF 11
ENDMDL
MODEL 2
REMARK VINA RESULT:     -11.2      3.079      4.093
REMARK  Name = 104758
REMARK  11 active torsions:
REMARK  status: ('A' for Active; 'I' for Inactive)
REMARK    1  A    between atoms: C_2  and  N_21
REMARK    2  A    between atoms: C_3  and  C_8
REMARK    3  A    between atoms: N_7  and  CA_10
REMARK    4  A    between atoms: CA_10  and  C_12
REMARK    5  A    between atoms: CA_10  and  CB_15
REMARK    6  A    between atoms: C_12  and  O_13
REMARK    7  A    between atoms: CB_15  and  CG_16
REMARK    8  A    between atoms: CG_16  and  CD_18
REMARK    9  A    between atoms: CD_18  and  OE1_19
REMARK   10  A    between atoms: N_21  and  C_23
REMARK   11  A    between atoms: C_23  and  C_27
REMARK                            x       y       z     vdW  Elec       q    Type
REMARK                         _______ _______ _______ _____ _____    ______ ____
ROOT
ATOM      1  S   UNL     1      35.193 -21.665 -19.523  0.00  0.00    -0.068 S 
ATOM      2  C   UNL     1      34.742 -20.539 -20.732  0.00  0.00    +0.079 C 
ATOM      3  C   UNL     1      33.558 -21.972 -19.122  0.00  0.00    +0.084 C 
ATOM      4  C   UNL     1      33.375 -20.401 -20.824  0.00  0.00    +0.022 C 
ATOM      5  C   UNL     1      32.689 -21.232 -19.892  0.00  0.00    +0.013 C 
ENDROOT
BRANCH   3   8
ATOM      6  O   UNL     1      33.987 -23.893 -17.803  0.00  0.00    -0.270 OA
ATOM      7  N   UNL     1      32.059 -22.722 -17.369  0.00  0.00    -0.293 N 
ATOM      8  C   ACE A   0      33.261 -22.909 -18.087  0.00  0.00    +0.252 C 
ATOM      9  H   UNL     1      31.497 -21.947 -17.600  0.00  0.00    +0.150 HD
BRANCH   7  10
ATOM     10  CA  UNL     1      31.608 -23.603 -16.316  0.00  0.00    +0.172 C 
BRANCH  10  12
ATOM     11  OXT UNL     1      29.393 -24.034 -15.402  0.00  0.00    -0.248 OA
ATOM     12  C   UNL     1      30.099 -23.497 -16.245  0.00  0.00    +0.332 C 
BRANCH  12  13
ATOM     13  O   UNL     1      29.601 -22.690 -17.218  0.00  0.00    -0.479 OA
ATOM     14  H   UNL     1      29.078 -23.053 -17.906  0.00  0.00    +0.295 HD
ENDBRANCH  12  13
ENDBRANCH  10  12
BRANCH  10  15
ATOM     15  CB  UNL     1      32.311 -23.335 -14.980  0.00  0.00    +0.043 C 
BRANCH  15  16
ATOM     16  CG  UNL     1      32.885 -24.567 -14.268  0.00  0.00    +0.112 C 
BRANCH  16  18
ATOM     17  OE2 UNL     1      35.319 -24.602 -14.166  0.00  0.00    -0.250 OA
ATOM     18  CD  UNL     1      34.245 -24.333 -13.647  0.00  0.00    +0.314 C 
BRANCH  18  19
ATOM     19  OE1 UNL     1      34.141 -23.813 -12.395  0.00  0.00    -0.480 OA
ATOM     20  HE1 UNL     1      34.880 -23.829 -11.818  0.00  0.00    +0.295 HD
ENDBRANCH  18  19
ENDBRANCH  16  18
ENDBRANCH  15  16
ENDBRANCH  10  15
ENDBRANCH   7  10
ENDBRANCH   3   8
BRANCH   2  21
ATOM     21  N   UNL     1      35.693 -19.874 -21.495  0.00  0.00    -0.297 N 
ATOM     22  C   UNL     1      36.985 -19.496 -20.920  0.00  0.00    +0.113 C 
BRANCH  21  23
ATOM     23  C   UNL     1      35.462 -19.531 -22.881  0.00  0.00    +0.118 C 
BRANCH  23  27
ATOM     24  O   UNL     1      33.349 -16.504 -26.477  0.00  0.00    -0.209 OA
ATOM     25  N   UNL     1      34.194 -14.017 -23.449  0.00  0.00    -0.290 N 
ATOM     26  N   UNL     1      33.316 -14.372 -25.637  0.00  0.00    -0.322 NA
ATOM     27  C   UNL     1      35.132 -18.084 -23.026  0.00  0.00    -0.002 C 
ATOM     28  C   UNL     1      34.233 -16.261 -24.326  0.00  0.00    +0.108 C 
ATOM     29  C   UNL     1      34.539 -17.618 -24.200  0.00  0.00    +0.011 C 
ATOM     30  C   UNL     1      34.516 -15.366 -23.284  0.00  0.00    +0.062 C 
ATOM     31  C   UNL     1      35.416 -17.198 -21.985  0.00  0.00    -0.001 C 
ATOM     32  C   UNL     1      35.109 -15.843 -22.113  0.00  0.00    +0.015 C 
ATOM     33  C   UNL     1      33.600 -15.725 -25.562  0.00  0.00    +0.207 C 
ATOM     34  C   UNL     1      33.612 -13.608 -24.626  0.00  0.00    +0.174 C 
ATOM     35  C   UNL     1      33.289 -12.138 -24.742  0.00  0.00    +0.085 C 
ATOM     36  H   UNL     1      34.381 -13.368 -22.733  0.00  0.00    +0.154 HD
ENDBRANCH  23  27
ENDBRANCH  21  23
ENDBRANCH   2  21
TORSDOF 11
ENDMDL
MODEL 3
REMARK VINA RESULT:     -11.1      5.087     12.525
REMARK  Name = 104758
REMARK  11 active torsions:
REMARK  status: ('A' for Active; 'I' for Inactive)
REMARK    1  A    between atoms: C_2  and  N_21
REMARK    2  A    between atoms: C_3  and  C_8
REMARK    3  A    between atoms: N_7  and  CA_10
REMARK    4  A    between atoms: CA_10  and  C_12
REMARK    5  A    between atoms: CA_10  and  CB_15
REMARK    6  A    between atoms: C_12  and  O_13
REMARK    7  A    between atoms: CB_15  and  CG_16
REMARK    8  A    between atoms: CG_16  and  CD_18
REMARK    9  A    between atoms: CD_18  and  OE1_19
REMARK   10  A    between atoms: N_21  and  C_23
REMARK   11  A    between atoms: C_23  and  C_27
REMARK                            x       y       z     vdW  Elec       q    Type
REMARK                         _______ _______ _______ _____ _____    ______ ____
ROOT
ATOM      1  S   UNL     1      34.561 -15.382 -22.916  0.00  0.00    -0.068 S 
ATOM      2  C   UNL     1      34.845 -17.046 -23.204  0.00  0.00    +0.079 C 
ATOM      3  C   UNL     1      34.004 -15.144 -24.517  0.00  0.00    +0.084 C 
ATOM      4  C   UNL     1      34.522 -17.409 -24.492  0.00  0.00    +0.022 C 
ATOM      5  C   UNL     1      34.035 -16.308 -25.253  0.00  0.00    +0.013 C 
ENDROOT
BRANCH   3   8
ATOM      6  O   UNL     1      32.966 -13.602 -25.986  0.00  0.00    -0.270 OA
ATOM      7  N   UNL     1      33.924 -12.762 -24.075  0.00  0.00    -0.293 N 
ATOM      8  C   ACE A   0      33.585 -13.841 -24.920  0.00  0.00    +0.252 C 
ATOM      9  H   UNL     1      34.411 -12.960 -23.243  0.00  0.00    +0.150 HD
BRANCH   7  10
ATOM     10  CA  UNL     1      33.598 -11.384 -24.364  0.00  0.00    +0.172 C 
BRANCH  10  12
ATOM     11  OXT UNL     1      35.234 -10.778 -26.062  0.00  0.00    -0.248 OA
ATOM     12  C   UNL     1      34.848 -10.719 -24.902  0.00  0.00    +0.332 C 
BRANCH  12  13
ATOM     13  O   UNL     1      35.491 -10.000 -23.946  0.00  0.00    -0.479 OA
ATOM     14  H   UNL     1      35.744  -9.114 -24.116  0.00  0.00    +0.295 HD
ENDBRANCH  12  13
ENDBRANCH  10  12
BRANCH  10  15
ATOM     15  CB  UNL     1      32.980 -10.658 -23.162  0.00  0.00    +0.043 C 
BRANCH  15  16
ATOM     16  CG  UNL     1      32.251  -9.346 -23.475  0.00  0.00    +0.112 C 
BRANCH  16  18
ATOM     17  OE2 UNL     1      33.937  -7.855 -22.540  0.00  0.00    -0.250 OA
ATOM     18  CD  UNL     1      32.761  -8.161 -22.684  0.00  0.00    +0.314 C 
BRANCH  18  19
ATOM     19  OE1 UNL     1      31.744  -7.474 -22.100  0.00  0.00    -0.480 OA
ATOM     20  HE1 UNL     1      30.861  -7.777 -22.190  0.00  0.00    +0.295 HD
ENDBRANCH  18  19
ENDBRANCH  16  18
ENDBRANCH  15  16
ENDBRANCH  10  15
ENDBRANCH   7  10
ENDBRANCH   3   8
BRANCH   2  21
ATOM     21  N   UNL     1      35.344 -17.879 -22.211  0.00  0.00    -0.297 N 
ATOM     22  C   UNL     1      35.705 -17.345 -20.896  0.00  0.00    +0.113 C 
BRANCH  21  23
ATOM     23  C   UNL     1      35.526 -19.299 -22.419  0.00  0.00    +0.118 C 
BRANCH  23  27
ATOM     24  O   UNL     1      36.657 -22.318 -18.399  0.00  0.00    -0.209 OA
ATOM     25  N   UNL     1      32.650 -22.310 -18.545  0.00  0.00    -0.290 N 
ATOM     26  N   UNL     1      34.671 -23.042 -17.512  0.00  0.00    -0.322 NA
ATOM     27  C   UNL     1      34.767 -20.088 -21.405  0.00  0.00    -0.002 C 
ATOM     28  C   UNL     1      34.734 -21.546 -19.484  0.00  0.00    +0.108 C 
ATOM     29  C   UNL     1      35.454 -20.811 -20.428  0.00  0.00    +0.011 C 
ATOM     30  C   UNL     1      33.332 -21.563 -19.508  0.00  0.00    +0.062 C 
ATOM     31  C   UNL     1      33.372 -20.100 -21.435  0.00  0.00    -0.001 C 
ATOM     32  C   UNL     1      32.655 -20.836 -20.489  0.00  0.00    +0.015 C 
ATOM     33  C   UNL     1      35.430 -22.330 -18.425  0.00  0.00    +0.207 C 
ATOM     34  C   UNL     1      33.373 -23.007 -17.605  0.00  0.00    +0.174 C 
ATOM     35  C   UNL     1      32.578 -23.795 -16.593  0.00  0.00    +0.085 C 
ATOM     36  H   UNL     1      31.666 -22.338 -18.539  0.00  0.00    +0.154 HD
ENDBRANCH  23  27
ENDBRANCH  21  23
ENDBRANCH   2  21
TORSDOF 11
ENDMDL
MODEL 4
REMARK VINA RESULT:     -11.1      4.844     11.949
REMARK  Name = 104758
REMARK  11 active torsions:
REMARK  status: ('A' for Active; 'I' for Inactive)
REMARK    1  A    between atoms: C_2  and  N_21
REMARK    2  A    between atoms: C_3  and  C_8
REMARK    3  A    between atoms: N_7  and  CA_10
REMARK    4  A    between atoms: CA_10  and  C_12
REMARK    5  A    between atoms: CA_10  and  CB_15
REMARK    6  A    between atoms: C_12  and  O_13
REMARK    7  A    between atoms: CB_15  and  CG_16
REMARK    8  A    between atoms: CG_16  and  CD_18
REMARK    9  A    between atoms: CD_18  and  OE1_19
REMARK   10  A    between atoms: N_21  and  C_23
REMARK   11  A    between atoms: C_23  and  C_27
REMARK                            x       y       z     vdW  Elec       q    Type
REMARK                         _______ _______ _______ _____ _____    ______ ____
ROOT
ATOM      1  S   UNL     1      34.175 -15.938 -24.604  0.00  0.00    -0.068 S 
ATOM      2  C   UNL     1      34.797 -16.876 -23.314  0.00  0.00    +0.079 C 
ATOM      3  C   UNL     1      34.160 -14.523 -23.641  0.00  0.00    +0.084 C 
ATOM      4  C   UNL     1      34.988 -16.125 -22.175  0.00  0.00    +0.022 C 
ATOM      5  C   UNL     1      34.620 -14.762 -22.365  0.00  0.00    +0.013 C 
ENDROOT
BRANCH   3   8
ATOM      6  O   UNL     1      33.165 -13.212 -25.345  0.00  0.00    -0.270 OA
ATOM      7  N   UNL     1      33.894 -12.120 -23.460  0.00  0.00    -0.293 N 
ATOM      8  C   ACE A   0      33.700 -13.299 -24.213  0.00  0.00    +0.252 C 
ATOM      9  H   UNL     1      34.314 -12.200 -22.573  0.00  0.00    +0.150 HD
BRANCH   7  10
ATOM     10  CA  UNL     1      33.510 -10.804 -23.917  0.00  0.00    +0.172 C 
BRANCH  10  12
ATOM     11  OXT UNL     1      35.410 -10.471 -25.403  0.00  0.00    -0.248 OA
ATOM     12  C   UNL     1      34.757 -10.115 -24.431  0.00  0.00    +0.332 C 
BRANCH  12  13
ATOM     13  O   UNL     1      35.061  -9.009 -23.703  0.00  0.00    -0.479 OA
ATOM     14  H   UNL     1      35.541  -8.306 -24.095  0.00  0.00    +0.295 HD
ENDBRANCH  12  13
ENDBRANCH  10  12
BRANCH  10  15
ATOM     15  CB  UNL     1      32.756 -10.003 -22.849  0.00  0.00    +0.043 C 
BRANCH  15  16
ATOM     16  CG  UNL     1      31.454 -10.632 -22.336  0.00  0.00    +0.112 C 
BRANCH  16  18
ATOM     17  OE2 UNL     1      31.883 -11.126 -19.988  0.00  0.00    -0.250 OA
ATOM     18  CD  UNL     1      31.642 -11.516 -21.122  0.00  0.00    +0.314 C 
BRANCH  18  19
ATOM     19  OE1 UNL     1      31.550 -12.834 -21.444  0.00  0.00    -0.480 OA
ATOM     20  HE1 UNL     1      31.891 -13.141 -22.262  0.00  0.00    +0.295 HD
ENDBRANCH  18  19
ENDBRANCH  16  18
ENDBRANCH  15  16
ENDBRANCH  10  15
ENDBRANCH   7  10
ENDBRANCH   3   8
BRANCH   2  21
ATOM     21  N   UNL     1      35.057 -18.232 -23.462  0.00  0.00    -0.297 N 
ATOM     22  C   UNL     1      34.469 -18.992 -24.567  0.00  0.00    +0.113 C 
BRANCH  21  23
ATOM     23  C   UNL     1      35.916 -18.954 -22.549  0.00  0.00    +0.118 C 
BRANCH  23  27
ATOM     24  O   UNL     1      36.866 -22.111 -18.588  0.00  0.00    -0.209 OA
ATOM     25  N   UNL     1      32.870 -22.093 -18.913  0.00  0.00    -0.290 N 
ATOM     26  N   UNL     1      34.842 -22.862 -17.817  0.00  0.00    -0.322 NA
ATOM     27  C   UNL     1      35.113 -19.776 -21.598  0.00  0.00    -0.002 C 
ATOM     28  C   UNL     1      34.994 -21.300 -19.731  0.00  0.00    +0.108 C 
ATOM     29  C   UNL     1      35.755 -20.533 -20.617  0.00  0.00    +0.011 C 
ATOM     30  C   UNL     1      33.594 -21.314 -19.819  0.00  0.00    +0.062 C 
ATOM     31  C   UNL     1      33.720 -19.786 -21.691  0.00  0.00    -0.001 C 
ATOM     32  C   UNL     1      32.962 -20.552 -20.804  0.00  0.00    +0.015 C 
ATOM     33  C   UNL     1      35.641 -22.120 -18.670  0.00  0.00    +0.207 C 
ATOM     34  C   UNL     1      33.550 -22.822 -17.967  0.00  0.00    +0.174 C 
ATOM     35  C   UNL     1      32.710 -23.644 -17.019  0.00  0.00    +0.085 C 
ATOM     36  H   UNL     1      31.887 -22.119 -18.953  0.00  0.00    +0.154 HD
ENDBRANCH  23  27
ENDBRANCH  21  23
ENDBRANCH   2  21
TORSDOF 11
ENDMDL
MODEL 5
REMARK VINA RESULT:     -11.1      1.373      2.554
REMARK  Name = 104758
REMARK  11 active torsions:
REMARK  status: ('A' for Active; 'I' for Inactive)
REMARK    1  A    between atoms: C_2  and  N_21
REMARK    2  A    between atoms: C_3  and  C_8
REMARK    3  A    between atoms: N_7  and  CA_10
REMARK    4  A    between atoms: CA_10  and  C_12
REMARK    5  A    between atoms: CA_10  and  CB_15
REMARK    6  A    between atoms: C_12  and  O_13
REMARK    7  A    between atoms: CB_15  and  CG_16
REMARK    8  A    between atoms: CG_16  and  CD_18
REMARK    9  A    between atoms: CD_18  and  OE1_19
REMARK   10  A    between atoms: N_21  and  C_23
REMARK   11  A    between atoms: C_23  and  C_27
REMARK                            x       y       z     vdW  Elec       q    Type
REMARK                         _______ _______ _______ _____ _____    ______ ____
ROOT
ATOM      1  S   UNL     1      34.312 -22.517 -18.176  0.00  0.00    -0.068 S 
ATOM      2  C   UNL     1      35.415 -21.609 -19.121  0.00  0.00    +0.079 C 
ATOM      3  C   UNL     1      35.510 -22.848 -16.999  0.00  0.00    +0.084 C 
ATOM      4  C   UNL     1      36.667 -21.561 -18.550  0.00  0.00    +0.022 C 
ATOM      5  C   UNL     1      36.722 -22.278 -17.321  0.00  0.00    +0.013 C 
ENDROOT
BRANCH   3   8
ATOM      6  O   UNL     1      33.987 -23.866 -15.498  0.00  0.00    -0.270 OA
ATOM      7  N   UNL     1      36.228 -24.157 -15.089  0.00  0.00    -0.293 N 
ATOM      8  C   ACE A   0      35.166 -23.637 -15.861  0.00  0.00    +0.252 C 
ATOM      9  H   UNL     1      37.149 -23.971 -15.382  0.00  0.00    +0.150 HD
BRANCH   7  10
ATOM     10  CA  UNL     1      36.038 -24.947 -13.894  0.00  0.00    +0.172 C 
BRANCH  10  12
ATOM     11  OXT UNL     1      36.786 -23.370 -12.197  0.00  0.00    -0.248 OA
ATOM     12  C   UNL     1      35.877 -23.989 -12.732  0.00  0.00    +0.332 C 
BRANCH  12  13
ATOM     13  O   UNL     1      34.576 -23.858 -12.361  0.00  0.00    -0.479 OA
ATOM     14  H   UNL     1      33.943 -24.490 -12.638  0.00  0.00    +0.295 HD
ENDBRANCH  12  13
ENDBRANCH  10  12
BRANCH  10  15
ATOM     15  CB  UNL     1      37.148 -25.986 -13.690  0.00  0.00    +0.043 C 
BRANCH  15  16
ATOM     16  CG  UNL     1      38.071 -26.224 -14.891  0.00  0.00    +0.112 C 
BRANCH  16  18
ATOM     17  OE2 UNL     1      39.856 -25.019 -13.752  0.00  0.00    -0.250 OA
ATOM     18  CD  UNL     1      39.478 -25.705 -14.691  0.00  0.00    +0.314 C 
BRANCH  18  19
ATOM     19  OE1 UNL     1      40.293 -26.060 -15.720  0.00  0.00    -0.480 OA
ATOM     20  HE1 UNL     1      40.463 -26.966 -15.891  0.00  0.00    +0.295 HD
ENDBRANCH  18  19
ENDBRANCH  16  18
ENDBRANCH  15  16
ENDBRANCH  10  15
ENDBRANCH   7  10
ENDBRANCH   3   8
BRANCH   2  21
ATOM     21  N   UNL     1      35.028 -21.014 -20.316  0.00  0.00    -0.297 N 
ATOM     22  C   UNL     1      33.619 -20.721 -20.585  0.00  0.00    +0.113 C 
BRANCH  21  23
ATOM     23  C   UNL     1      35.985 -20.653 -21.339  0.00  0.00    +0.118 C 
BRANCH  23  27
ATOM     24  O   UNL     1      33.867 -19.457 -25.882  0.00  0.00    -0.209 OA
ATOM     25  N   UNL     1      34.371 -15.924 -24.056  0.00  0.00    -0.290 N 
ATOM     26  N   UNL     1      33.641 -17.177 -25.948  0.00  0.00    -0.322 NA
ATOM     27  C   UNL     1      35.564 -19.410 -22.048  0.00  0.00    -0.002 C 
ATOM     28  C   UNL     1      34.614 -18.321 -23.980  0.00  0.00    +0.108 C 
ATOM     29  C   UNL     1      35.005 -19.491 -23.324  0.00  0.00    +0.011 C 
ATOM     30  C   UNL     1      34.776 -17.070 -23.367  0.00  0.00    +0.062 C 
ATOM     31  C   UNL     1      35.729 -18.168 -21.432  0.00  0.00    -0.001 C 
ATOM     32  C   UNL     1      35.336 -17.000 -22.089  0.00  0.00    +0.015 C 
ATOM     33  C   UNL     1      34.013 -18.365 -25.342  0.00  0.00    +0.207 C 
ATOM     34  C   UNL     1      33.828 -16.057 -25.312  0.00  0.00    +0.174 C 
ATOM     35  C   UNL     1      33.412 -14.782 -26.004  0.00  0.00    +0.085 C 
ATOM     36  H   UNL     1      34.474 -15.034 -23.648  0.00  0.00    +0.154 HD
ENDBRANCH  23  27
ENDBRANCH  21  23
ENDBRANCH   2  21
TORSDOF 11
ENDMDL
MODEL 6
REMARK VINA RESULT:     -11.0      5.254     11.734
REMARK  Name = 104758
REMARK  11 active torsions:
REMARK  status: ('A' for Active; 'I' for Inactive)
REMARK    1  A    between atoms: C_2  and  N_21
REMARK    2  A    between atoms: C_3  and  C_8
REMARK    3  A    between atoms: N_7  and  CA_10
REMARK    4  A    between atoms: CA_10  and  C_12
REMARK    5  A    between atoms: CA_10  and  CB_15
REMARK    6  A    between atoms: C_12  and  O_13
REMARK    7  A    between atoms: CB_15  and  CG_16
REMARK    8  A    between atoms: CG_16  and  CD_18
REMARK    9  A    between atoms: CD_18  and  OE1_19
REMARK   10  A    between atoms: N_21  and  C_23
REMARK   11  A    between atoms: C_23  and  C_27
REMARK                            x       y       z     vdW  Elec       q    Type
REMARK                         _______ _______ _______ _____ _____    ______ ____
ROOT
ATOM      1  S   UNL     1      34.562 -16.035 -24.254  0.00  0.00    -0.068 S 
ATOM      2  C   UNL     1      35.135 -16.891 -22.887  0.00  0.00    +0.079 C 
ATOM      3  C   UNL     1      34.247 -14.638 -23.315  0.00  0.00    +0.084 C 
ATOM      4  C   UNL     1      35.086 -16.128 -21.741  0.00  0.00    +0.022 C 
ATOM      5  C   UNL     1      34.572 -14.823 -21.989  0.00  0.00    +0.013 C 
ENDROOT
BRANCH   3   8
ATOM      6  O   UNL     1      33.080 -13.507 -25.038  0.00  0.00    -0.270 OA
ATOM      7  N   UNL     1      33.930 -12.235 -23.325  0.00  0.00    -0.293 N 
ATOM      8  C   ACE A   0      33.708 -13.481 -23.952  0.00  0.00    +0.252 C 
ATOM      9  H   UNL     1      34.424 -12.225 -22.474  0.00  0.00    +0.150 HD
BRANCH   7  10
ATOM     10  CA  UNL     1      33.473 -10.974 -23.863  0.00  0.00    +0.172 C 
BRANCH  10  12
ATOM     11  OXT UNL     1      35.239 -10.583 -25.493  0.00  0.00    -0.248 OA
ATOM     12  C   UNL     1      34.674 -10.266 -24.455  0.00  0.00    +0.332 C 
BRANCH  12  13
ATOM     13  O   UNL     1      35.045  -9.190 -23.713  0.00  0.00    -0.479 OA
ATOM     14  H   UNL     1      34.926  -9.198 -22.783  0.00  0.00    +0.295 HD
ENDBRANCH  12  13
ENDBRANCH  10  12
BRANCH  10  15
ATOM     15  CB  UNL     1      32.705 -10.135 -22.834  0.00  0.00    +0.043 C 
BRANCH  15  16
ATOM     16  CG  UNL     1      31.486 -10.811 -22.195  0.00  0.00    +0.112 C 
BRANCH  16  18
ATOM     17  OE2 UNL     1      31.695 -10.657 -19.772  0.00  0.00    -0.250 OA
ATOM     18  CD  UNL     1      31.739 -11.326 -20.795  0.00  0.00    +0.314 C 
BRANCH  18  19
ATOM     19  OE1 UNL     1      32.069 -12.645 -20.799  0.00  0.00    -0.480 OA
ATOM     20  HE1 UNL     1      31.400 -13.296 -20.714  0.00  0.00    +0.295 HD
ENDBRANCH  18  19
ENDBRANCH  16  18
ENDBRANCH  15  16
ENDBRANCH  10  15
ENDBRANCH   7  10
ENDBRANCH   3   8
BRANCH   2  21
ATOM     21  N   UNL     1      35.583 -18.202 -22.987  0.00  0.00    -0.297 N 
ATOM     22  C   UNL     1      34.946 -19.143 -23.911  0.00  0.00    +0.113 C 
BRANCH  21  23
ATOM     23  C   UNL     1      36.692 -18.697 -22.202  0.00  0.00    +0.118 C 
BRANCH  23  27
ATOM     24  O   UNL     1      32.181 -20.626 -20.623  0.00  0.00    -0.209 OA
ATOM     25  N   UNL     1      34.916 -22.539 -18.403  0.00  0.00    -0.290 N 
ATOM     26  N   UNL     1      32.636 -22.169 -18.991  0.00  0.00    -0.322 NA
ATOM     27  C   UNL     1      36.231 -19.705 -21.203  0.00  0.00    -0.002 C 
ATOM     28  C   UNL     1      34.447 -20.914 -20.119  0.00  0.00    +0.108 C 
ATOM     29  C   UNL     1      34.868 -19.968 -21.057  0.00  0.00    +0.011 C 
ATOM     30  C   UNL     1      35.379 -21.600 -19.328  0.00  0.00    +0.062 C 
ATOM     31  C   UNL     1      37.164 -20.385 -20.419  0.00  0.00    -0.001 C 
ATOM     32  C   UNL     1      36.741 -21.330 -19.483  0.00  0.00    +0.015 C 
ATOM     33  C   UNL     1      33.002 -21.223 -19.933  0.00  0.00    +0.207 C 
ATOM     34  C   UNL     1      33.564 -22.760 -18.295  0.00  0.00    +0.174 C 
ATOM     35  C   UNL     1      33.128 -23.786 -17.277  0.00  0.00    +0.085 C 
ATOM     36  H   UNL     1      35.550 -23.035 -17.836  0.00  0.00    +0.154 HD
ENDBRANCH  23  27
ENDBRANCH  21  23
ENDBRANCH   2  21
TORSDOF 11
ENDMDL
MODEL 7
REMARK VINA RESULT:     -10.8      2.587      4.439
REMARK  Name = 104758
REMARK  11 active torsions:
REMARK  status: ('A' for Active; 'I' for Inactive)
REMARK    1  A    between atoms: C_2  and  N_21
REMARK    2  A    between atoms: C_3  and  C_8
REMARK    3  A    between atoms: N_7  and  CA_10
REMARK    4  A    between atoms: CA_10  and  C_12
REMARK    5  A    between atoms: CA_10  and  CB_15
REMARK    6  A    between atoms: C_12  and  O_13
REMARK    7  A    between atoms: CB_15  and  CG_16
REMARK    8  A    between atoms: CG_16  and  CD_18
REMARK    9  A    between atoms: CD_18  and  OE1_19
REMARK   10  A    between atoms: N_21  and  C_23
REMARK   11  A    between atoms: C_23  and  C_27
REMARK                            x       y       z     vdW  Elec       q    Type
REMARK                         _______ _______ _______ _____ _____    ______ ____
ROOT
ATOM      1  S   UNL     1      35.149 -23.765 -15.444  0.00  0.00    -0.068 S 
ATOM      2  C   UNL     1      33.607 -23.441 -16.114  0.00  0.00    +0.079 C 
ATOM      3  C   UNL     1      34.461 -24.228 -13.946  0.00  0.00    +0.084 C 
ATOM      4  C   UNL     1      32.592 -23.680 -15.214  0.00  0.00    +0.022 C 
ATOM      5  C   UNL     1      33.087 -24.136 -13.958  0.00  0.00    +0.013 C 
ENDROOT
BRANCH   3   8
ATOM      6  O   UNL     1      34.919 -24.949 -11.737  0.00  0.00    -0.270 OA
ATOM      7  N   UNL     1      36.708 -24.664 -13.148  0.00  0.00    -0.293 N 
ATOM      8  C   ACE A   0      35.322 -24.639 -12.884  0.00  0.00    +0.252 C 
ATOM      9  H   UNL     1      37.014 -24.419 -14.051  0.00  0.00    +0.150 HD
BRANCH   7  10
ATOM     10  CA  UNL     1      37.705 -25.028 -12.167  0.00  0.00    +0.172 C 
BRANCH  10  12
ATOM     11  OXT UNL     1      39.361 -23.349 -11.564  0.00  0.00    -0.248 OA
ATOM     12  C   UNL     1      38.206 -23.751 -11.526  0.00  0.00    +0.332 C 
BRANCH  12  13
ATOM     13  O   UNL     1      37.205 -23.060 -10.921  0.00  0.00    -0.479 OA
ATOM     14  H   UNL     1      37.167 -22.127 -10.994  0.00  0.00    +0.295 HD
ENDBRANCH  12  13
ENDBRANCH  10  12
BRANCH  10  15
ATOM     15  CB  UNL     1      38.819 -25.905 -12.752  0.00  0.00    +0.043 C 
BRANCH  15  16
ATOM     16  CG  UNL     1      39.078 -25.742 -14.256  0.00  0.00    +0.112 C 
BRANCH  16  18
ATOM     17  OE2 UNL     1      41.225 -26.863 -13.992  0.00  0.00    -0.250 OA
ATOM     18  CD  UNL     1      40.398 -26.323 -14.713  0.00  0.00    +0.314 C 
BRANCH  18  19
ATOM     19  OE1 UNL     1      40.590 -26.140 -16.046  0.00  0.00    -0.480 OA
ATOM     20  HE1 UNL     1      39.979 -25.629 -16.542  0.00  0.00    +0.295 HD
ENDBRANCH  18  19
ENDBRANCH  16  18
ENDBRANCH  15  16
ENDBRANCH  10  15
ENDBRANCH   7  10
ENDBRANCH   3   8
BRANCH   2  21
ATOM     21  N   UNL     1      33.463 -22.991 -17.420  0.00  0.00    -0.297 N 
ATOM     22  C   UNL     1      32.204 -22.399 -17.874  0.00  0.00    +0.113 C 
BRANCH  21  23
ATOM     23  C   UNL     1      34.538 -23.075 -18.384  0.00  0.00    +0.118 C 
BRANCH  23  27
ATOM     24  O   UNL     1      37.793 -19.701 -20.524  0.00  0.00    -0.209 OA
ATOM     25  N   UNL     1      34.238 -18.837 -22.165  0.00  0.00    -0.290 N 
ATOM     26  N   UNL     1      36.573 -18.400 -21.965  0.00  0.00    -0.322 NA
ATOM     27  C   UNL     1      34.455 -21.964 -19.376  0.00  0.00    -0.002 C 
ATOM     28  C   UNL     1      35.513 -20.208 -20.647  0.00  0.00    +0.108 C 
ATOM     29  C   UNL     1      35.602 -21.247 -19.717  0.00  0.00    +0.011 C 
ATOM     30  C   UNL     1      34.284 -19.882 -21.239  0.00  0.00    +0.062 C 
ATOM     31  C   UNL     1      33.228 -21.644 -19.961  0.00  0.00    -0.001 C 
ATOM     32  C   UNL     1      33.142 -20.606 -20.890  0.00  0.00    +0.015 C 
ATOM     33  C   UNL     1      36.714 -19.419 -21.039  0.00  0.00    +0.207 C 
ATOM     34  C   UNL     1      35.397 -18.160 -22.466  0.00  0.00    +0.174 C 
ATOM     35  C   UNL     1      35.280 -17.041 -23.473  0.00  0.00    +0.085 C 
ATOM     36  H   UNL     1      33.389 -18.589 -22.595  0.00  0.00    +0.154 HD
ENDBRANCH  23  27
ENDBRANCH  21  23
ENDBRANCH   2  21
TORSDOF 11
ENDMDL
MODEL 8
REMARK VINA RESULT:     -10.8      2.048      2.647
REMARK  Name = 104758
REMARK  11 active torsions:
REMARK  status: ('A' for Active; 'I' for Inactive)
REMARK    1  A    between atoms: C_2  and  N_21
REMARK    2  A    between atoms: C_3  and  C_8
REMARK    3  A    between atoms: N_7  and  CA_10
REMARK    4  A    between atoms: CA_10  and  C_12
REMARK    5  A    between atoms: CA_10  and  CB_15
REMARK    6  A    between atoms: C_12  and  O_13
REMARK    7  A    between atoms: CB_15  and  CG_16
REMARK    8  A    between atoms: CG_16  and  CD_18
REMARK    9  A    between atoms: CD_18  and  OE1_19
REMARK   10  A    between atoms: N_21  and  C_23
REMARK   11  A    between atoms: C_23  and  C_27
REMARK                            x       y       z     vdW  Elec       q    Type
REMARK                         _______ _______ _______ _____ _____    ______ ____
ROOT
ATOM      1  S   UNL     1      34.203 -22.653 -18.275  0.00  0.00    -0.068 S 
ATOM      2  C   UNL     1      35.344 -21.663 -19.081  0.00  0.00    +0.079 C 
ATOM      3  C   UNL     1      35.329 -23.040 -17.044  0.00  0.00    +0.084 C 
ATOM      4  C   UNL     1      36.555 -21.630 -18.426  0.00  0.00    +0.022 C 
ATOM      5  C   UNL     1      36.546 -22.427 -17.245  0.00  0.00    +0.013 C 
ENDROOT
BRANCH   3   8
ATOM      6  O   UNL     1      35.245 -25.124 -15.920  0.00  0.00    -0.270 OA
ATOM      7  N   UNL     1      34.102 -23.368 -14.979  0.00  0.00    -0.293 N 
ATOM      8  C   ACE A   0      34.929 -23.911 -15.986  0.00  0.00    +0.252 C 
ATOM      9  H   UNL     1      33.859 -22.416 -15.041  0.00  0.00    +0.150 HD
BRANCH   7  10
ATOM     10  CA  UNL     1      33.592 -24.131 -13.863  0.00  0.00    +0.172 C 
BRANCH  10  12
ATOM     11  OXT UNL     1      31.536 -22.895 -14.281  0.00  0.00    -0.248 OA
ATOM     12  C   UNL     1      32.113 -23.826 -13.736  0.00  0.00    +0.332 C 
BRANCH  12  13
ATOM     13  O   UNL     1      31.472 -24.742 -12.964  0.00  0.00    -0.479 OA
ATOM     14  H   UNL     1      31.767 -25.631 -12.947  0.00  0.00    +0.295 HD
ENDBRANCH  12  13
ENDBRANCH  10  12
BRANCH  10  15
ATOM     15  CB  UNL     1      34.385 -23.893 -12.572  0.00  0.00    +0.043 C 
BRANCH  15  16
ATOM     16  CG  UNL     1      35.785 -24.518 -12.522  0.00  0.00    +0.112 C 
BRANCH  16  18
ATOM     17  OE2 UNL     1      37.412 -24.480 -10.708  0.00  0.00    -0.250 OA
ATOM     18  CD  UNL     1      36.294 -24.761 -11.118  0.00  0.00    +0.314 C 
BRANCH  18  19
ATOM     19  OE1 UNL     1      35.362 -25.382 -10.348  0.00  0.00    -0.480 OA
ATOM     20  HE1 UNL     1      35.152 -26.283 -10.500  0.00  0.00    +0.295 HD
ENDBRANCH  18  19
ENDBRANCH  16  18
ENDBRANCH  15  16
ENDBRANCH  10  15
ENDBRANCH   7  10
ENDBRANCH   3   8
BRANCH   2  21
ATOM     21  N   UNL     1      35.023 -20.997 -20.258  0.00  0.00    -0.297 N 
ATOM     22  C   UNL     1      33.631 -20.680 -20.584  0.00  0.00    +0.113 C 
BRANCH  21  23
ATOM     23  C   UNL     1      36.034 -20.581 -21.205  0.00  0.00    +0.118 C 
BRANCH  23  27
ATOM     24  O   UNL     1      33.960 -19.534 -25.805  0.00  0.00    -0.209 OA
ATOM     25  N   UNL     1      34.368 -15.950 -24.056  0.00  0.00    -0.290 N 
ATOM     26  N   UNL     1      33.690 -17.261 -25.928  0.00  0.00    -0.322 NA
ATOM     27  C   UNL     1      35.599 -19.364 -21.949  0.00  0.00    -0.002 C 
ATOM     28  C   UNL     1      34.656 -18.339 -23.919  0.00  0.00    +0.108 C 
ATOM     29  C   UNL     1      35.060 -19.485 -23.231  0.00  0.00    +0.011 C 
ATOM     30  C   UNL     1      34.785 -17.071 -23.334  0.00  0.00    +0.062 C 
ATOM     31  C   UNL     1      35.730 -18.105 -21.361  0.00  0.00    -0.001 C 
ATOM     32  C   UNL     1      35.325 -16.961 -22.051  0.00  0.00    +0.015 C 
ATOM     33  C   UNL     1      34.076 -18.427 -25.289  0.00  0.00    +0.207 C 
ATOM     34  C   UNL     1      33.846 -16.124 -25.316  0.00  0.00    +0.174 C 
ATOM     35  C   UNL     1      33.414 -14.873 -26.043  0.00  0.00    +0.085 C 
ATOM     36  H   UNL     1      34.447 -15.049 -23.668  0.00  0.00    +0.154 HD
ENDBRANCH  23  27
ENDBRANCH  21  23
ENDBRANCH   2  21
TORSDOF 11
ENDMDL
MODEL 9
REMARK VINA RESULT:     -10.7      2.461      3.651
REMARK  Name = 104758
REMARK  11 active torsions:
REMARK  status: ('A' for Active; 'I' for Inactive)
REMARK    1  A    between atoms: C_2  and  N_21
REMARK    2  A    between atoms: C_3  and  C_8
REMARK    3  A    between atoms: N_7  and  CA_10
REMARK    4  A    between atoms: CA_10  and  C_12
REMARK    5  A    between atoms: CA_10  and  CB_15
REMARK    6  A    between atoms: C_12  and  O_13
REMARK    7  A    between atoms: CB_15  and  CG_16
REMARK    8  A    between atoms: CG_16  and  CD_18
REMARK    9  A    between atoms: CD_18  and  OE1_19
REMARK   10  A    between atoms: N_21  and  C_23
REMARK   11  A    between atoms: C_23  and  C_27
REMARK                            x       y       z     vdW  Elec       q    Type
REMARK                         _______ _______ _______ _____ _____    ______ ____
ROOT
ATOM      1  S   UNL     1      35.610 -21.662 -19.843  0.00  0.00    -0.068 S 
ATOM      2  C   UNL     1      34.979 -20.428 -20.848  0.00  0.00    +0.079 C 
ATOM      3  C   UNL     1      34.045 -22.099 -19.305  0.00  0.00    +0.084 C 
ATOM      4  C   UNL     1      33.606 -20.352 -20.773  0.00  0.00    +0.022 C 
ATOM      5  C   UNL     1      33.065 -21.321 -19.880  0.00  0.00    +0.013 C 
ENDROOT
BRANCH   3   8
ATOM      6  O   UNL     1      33.785 -24.372 -18.689  0.00  0.00    -0.270 OA
ATOM      7  N   UNL     1      33.872 -22.821 -16.997  0.00  0.00    -0.293 N 
ATOM      8  C   ACE A   0      33.906 -23.165 -18.366  0.00  0.00    +0.252 C 
ATOM      9  H   UNL     1      33.967 -21.872 -16.755  0.00  0.00    +0.150 HD
BRANCH   7  10
ATOM     10  CA  UNL     1      33.706 -23.784 -15.932  0.00  0.00    +0.172 C 
BRANCH  10  12
ATOM     11  OXT UNL     1      31.355 -23.184 -16.132  0.00  0.00    -0.248 OA
ATOM     12  C   UNL     1      32.239 -23.800 -15.554  0.00  0.00    +0.332 C 
BRANCH  12  13
ATOM     13  O   UNL     1      31.997 -24.623 -14.500  0.00  0.00    -0.479 OA
ATOM     14  H   UNL     1      31.755 -25.516 -14.648  0.00  0.00    +0.295 HD
ENDBRANCH  12  13
ENDBRANCH  10  12
BRANCH  10  15
ATOM     15  CB  UNL     1      34.647 -23.526 -14.750  0.00  0.00    +0.043 C 
BRANCH  15  16
ATOM     16  CG  UNL     1      36.041 -22.993 -15.107  0.00  0.00    +0.112 C 
BRANCH  16  18
ATOM     17  OE2 UNL     1      36.838 -25.283 -15.349  0.00  0.00    -0.250 OA
ATOM     18  CD  UNL     1      37.057 -24.080 -15.382  0.00  0.00    +0.314 C 
BRANCH  18  19
ATOM     19  OE1 UNL     1      38.287 -23.562 -15.638  0.00  0.00    -0.480 OA
ATOM     20  HE1 UNL     1      38.780 -23.866 -16.375  0.00  0.00    +0.295 HD
ENDBRANCH  18  19
ENDBRANCH  16  18
ENDBRANCH  15  16
ENDBRANCH  10  15
ENDBRANCH   7  10
ENDBRANCH   3   8
BRANCH   2  21
ATOM     21  N   UNL     1      35.809 -19.629 -21.624  0.00  0.00    -0.297 N 
ATOM     22  C   UNL     1      37.064 -19.104 -21.083  0.00  0.00    +0.113 C 
BRANCH  21  23
ATOM     23  C   UNL     1      35.485 -19.285 -22.992  0.00  0.00    +0.118 C 
BRANCH  23  27
ATOM     24  O   UNL     1      33.376 -16.215 -26.554  0.00  0.00    -0.209 OA
ATOM     25  N   UNL     1      34.113 -13.785 -23.452  0.00  0.00    -0.290 N 
ATOM     26  N   UNL     1      33.284 -14.105 -25.664  0.00  0.00    -0.322 NA
ATOM     27  C   UNL     1      35.128 -17.841 -23.108  0.00  0.00    -0.002 C 
ATOM     28  C   UNL     1      34.215 -16.006 -24.381  0.00  0.00    +0.108 C 
ATOM     29  C   UNL     1      34.547 -17.360 -24.282  0.00  0.00    +0.011 C 
ATOM     30  C   UNL     1      34.460 -15.130 -23.314  0.00  0.00    +0.062 C 
ATOM     31  C   UNL     1      35.374 -16.975 -22.042  0.00  0.00    -0.001 C 
ATOM     32  C   UNL     1      35.042 -15.623 -22.143  0.00  0.00    +0.015 C 
ATOM     33  C   UNL     1      33.594 -15.453 -25.617  0.00  0.00    +0.207 C 
ATOM     34  C   UNL     1      33.545 -13.360 -24.630  0.00  0.00    +0.174 C 
ATOM     35  C   UNL     1      33.195 -11.894 -24.718  0.00  0.00    +0.085 C 
ATOM     36  H   UNL     1      34.274 -13.150 -22.718  0.00  0.00    +0.154 HD
ENDBRANCH  23  27
ENDBRANCH  21  23
ENDBRANCH   2  21
TORSDOF 11
ENDMDL
