MODEL 1
REMARK VINA RESULT:     -11.7      0.000      0.000
REMARK  Name = 6852141
REMARK  6 active torsions:
REMARK  status: ('A' for Active; 'I' for Inactive)
REMARK    1  A    between atoms: C_3  and  N_18
REMARK    2  A    between atoms: C_7  and  C_31
REMARK    3  A    between atoms: C_9  and  C_13
REMARK    4  A    between atoms: C_19  and  C_21
REMARK    5  A    between atoms: C_24  and  O_28
REMARK    6  A    between atoms: C_31  and  O_32
REMARK                            x       y       z     vdW  Elec       q    Type
REMARK                         _______ _______ _______ _____ _____    ______ ____
ROOT
ATOM      1  C   UNL     1      31.822 -23.856 -15.429  0.00  0.00    +0.014 C 
ATOM      2  C   UNL     1      31.676 -24.641 -14.261  0.00  0.00    +0.001 C 
ATOM      3  C   UNL     1      33.104 -23.423 -15.809  0.00  0.00    +0.051 C 
ATOM      4  C   UNL     1      30.684 -23.525 -16.181  0.00  0.00    +0.004 C 
ATOM      5  C   UNL     1      32.814 -24.973 -13.508  0.00  0.00    +0.007 C 
ATOM      6  C   UNL     1      34.224 -23.762 -15.050  0.00  0.00    +0.021 C 
ATOM      7  C   UNL     1      34.079 -24.535 -13.901  0.00  0.00    +0.077 C 
ATOM      8  C   UNL     1      30.395 -25.073 -13.880  0.00  0.00    +0.000 C 
ATOM      9  C   UNL     1      29.419 -23.963 -15.788  0.00  0.00    +0.031 C 
ATOM     10  C   UNL     1      29.275 -24.736 -14.641  0.00  0.00    +0.003 C 
ENDROOT
BRANCH   9  13
ATOM     11  N   UNL     1      27.485 -22.486 -16.282  0.00  0.00    -0.343 N 
ATOM     12  N   UNL     1      27.895 -24.371 -17.602  0.00  0.00    -0.285 NA
ATOM     13  C   UNL     1      28.251 -23.612 -16.580  0.00  0.00    +0.117 C 
ATOM     14  H   UNL     1      26.698 -22.267 -16.831  0.00  0.00    +0.144 HD
ATOM     15  H   UNL     1      27.732 -21.909 -15.523  0.00  0.00    +0.144 HD
ATOM     16  H   UNL     1      27.104 -24.135 -18.138  0.00  0.00    +0.188 HD
ENDBRANCH   9  13
BRANCH   3  18
ATOM     17  O   UNL     1      33.868 -24.229 -18.593  0.00  0.00    -0.270 OA
ATOM     18  N   UNL     1      33.310 -22.642 -16.953  0.00  0.00    -0.280 N 
ATOM     19  C   UNL     1      33.667 -23.075 -18.233  0.00  0.00    +0.249 C 
ATOM     20  H   UNL     1      33.189 -21.672 -16.842  0.00  0.00    +0.155 HD
BRANCH  19  21
ATOM     21  C   UNL     1      33.842 -21.995 -19.240  0.00  0.00    +0.053 C 
ATOM     22  C   UNL     1      35.096 -21.479 -19.493  0.00  0.00    +0.016 C 
ATOM     23  C   UNL     1      32.716 -21.542 -19.897  0.00  0.00    +0.004 C 
ATOM     24  C   UNL     1      35.231 -20.466 -20.443  0.00  0.00    +0.130 C 
ATOM     25  C   UNL     1      36.307 -21.982 -18.772  0.00  0.00    +0.034 C 
ATOM     26  C   UNL     1      32.850 -20.529 -20.847  0.00  0.00    +0.003 C 
ATOM     27  C   UNL     1      34.108 -19.992 -21.120  0.00  0.00    +0.036 C 
BRANCH  24  28
ATOM     28  O   UNL     1      36.452 -19.929 -20.725  0.00  0.00    -0.506 OA
ATOM     29  H   UNL     1      36.954 -20.259 -21.443  0.00  0.00    +0.292 HD
ENDBRANCH  24  28
ENDBRANCH  19  21
ENDBRANCH   3  18
BRANCH   7  31
ATOM     30  O   UNL     1      36.371 -25.114 -13.582  0.00  0.00    -0.245 OA
ATOM     31  C   UNL     1      35.249 -24.887 -13.110  0.00  0.00    +0.341 C 
BRANCH  31  32
ATOM     32  O   UNL     1      34.957 -24.935 -11.774  0.00  0.00    -0.441 OA
ATOM     33  C   UNL     1      35.979 -24.500 -10.872  0.00  0.00    +0.256 C 
ENDBRANCH  31  32
ENDBRANCH   7  31
TORSDOF 6
ENDMDL
MODEL 2
REMARK VINA RESULT:     -11.5      2.512      5.319
REMARK  Name = 6852141
REMARK  6 active torsions:
REMARK  status: ('A' for Active; 'I' for Inactive)
REMARK    1  A    between atoms: C_3  and  N_18
REMARK    2  A    between atoms: C_7  and  C_31
REMARK    3  A    between atoms: C_9  and  C_13
REMARK    4  A    between atoms: C_19  and  C_21
REMARK    5  A    between atoms: C_24  and  O_28
REMARK    6  A    between atoms: C_31  and  O_32
REMARK                            x       y       z     vdW  Elec       q    Type
REMARK                         _______ _______ _______ _____ _____    ______ ____
ROOT
ATOM      1  C   UNL     1      32.259 -23.625 -15.678  0.00  0.00    +0.014 C 
ATOM      2  C   UNL     1      31.245 -24.242 -14.908  0.00  0.00    +0.001 C 
ATOM      3  C   UNL     1      31.911 -22.959 -16.865  0.00  0.00    +0.051 C 
ATOM      4  C   UNL     1      33.591 -23.692 -15.239  0.00  0.00    +0.004 C 
ATOM      5  C   UNL     1      29.913 -24.175 -15.347  0.00  0.00    +0.007 C 
ATOM      6  C   UNL     1      30.582 -22.902 -17.285  0.00  0.00    +0.021 C 
ATOM      7  C   UNL     1      29.585 -23.509 -16.528  0.00  0.00    +0.077 C 
ATOM      8  C   UNL     1      31.593 -24.909 -13.722  0.00  0.00    +0.000 C 
ATOM      9  C   UNL     1      33.919 -24.358 -14.058  0.00  0.00    +0.031 C 
ATOM     10  C   UNL     1      32.922 -24.965 -13.301  0.00  0.00    +0.003 C 
ENDROOT
BRANCH   9  13
ATOM     11  N   UNL     1      35.967 -25.634 -13.471  0.00  0.00    -0.343 N 
ATOM     12  N   UNL     1      35.956 -23.301 -13.343  0.00  0.00    -0.285 NA
ATOM     13  C   UNL     1      35.304 -24.417 -13.617  0.00  0.00    +0.117 C 
ATOM     14  H   UNL     1      36.904 -25.652 -13.171  0.00  0.00    +0.144 HD
ATOM     15  H   UNL     1      35.496 -26.477 -13.667  0.00  0.00    +0.144 HD
ATOM     16  H   UNL     1      36.893 -23.339 -13.045  0.00  0.00    +0.188 HD
ENDBRANCH   9  13
BRANCH   3  18
ATOM     17  O   UNL     1      33.687 -24.085 -19.001  0.00  0.00    -0.270 OA
ATOM     18  N   UNL     1      32.872 -22.331 -17.668  0.00  0.00    -0.280 N 
ATOM     19  C   UNL     1      33.675 -22.910 -18.655  0.00  0.00    +0.249 C 
ATOM     20  H   UNL     1      32.995 -21.366 -17.519  0.00  0.00    +0.155 HD
BRANCH  19  21
ATOM     21  C   UNL     1      34.627 -21.982 -19.320  0.00  0.00    +0.053 C 
ATOM     22  C   UNL     1      34.166 -21.039 -20.215  0.00  0.00    +0.016 C 
ATOM     23  C   UNL     1      35.966 -22.104 -19.007  0.00  0.00    +0.004 C 
ATOM     24  C   UNL     1      35.082 -20.181 -20.824  0.00  0.00    +0.130 C 
ATOM     25  C   UNL     1      32.711 -20.919 -20.542  0.00  0.00    +0.034 C 
ATOM     26  C   UNL     1      36.883 -21.246 -19.616  0.00  0.00    +0.003 C 
ATOM     27  C   UNL     1      36.440 -20.285 -20.524  0.00  0.00    +0.036 C 
BRANCH  24  28
ATOM     28  O   UNL     1      34.669 -19.234 -21.713  0.00  0.00    -0.506 OA
ATOM     29  H   UNL     1      33.959 -18.663 -21.493  0.00  0.00    +0.292 HD
ENDBRANCH  24  28
ENDBRANCH  19  21
ENDBRANCH   3  18
BRANCH   7  31
ATOM     30  O   UNL     1      27.607 -24.372 -17.544  0.00  0.00    -0.245 OA
ATOM     31  C   UNL     1      28.200 -23.449 -16.969  0.00  0.00    +0.341 C 
BRANCH  31  32
ATOM     32  O   UNL     1      27.628 -22.243 -16.668  0.00  0.00    -0.441 OA
ATOM     33  C   UNL     1      26.473 -21.867 -17.426  0.00  0.00    +0.256 C 
ENDBRANCH  31  32
ENDBRANCH   7  31
TORSDOF 6
ENDMDL
MODEL 3
REMARK VINA RESULT:     -11.4      2.437      5.017
REMARK  Name = 6852141
REMARK  6 active torsions:
REMARK  status: ('A' for Active; 'I' for Inactive)
REMARK    1  A    between atoms: C_3  and  N_18
REMARK    2  A    between atoms: C_7  and  C_31
REMARK    3  A    between atoms: C_9  and  C_13
REMARK    4  A    between atoms: C_19  and  C_21
REMARK    5  A    between atoms: C_24  and  O_28
REMARK    6  A    between atoms: C_31  and  O_32
REMARK                            x       y       z     vdW  Elec       q    Type
REMARK                         _______ _______ _______ _____ _____    ______ ____
ROOT
ATOM      1  C   UNL     1      33.381 -23.635 -15.447  0.00  0.00    +0.014 C 
ATOM      2  C   UNL     1      32.845 -24.432 -14.409  0.00  0.00    +0.001 C 
ATOM      3  C   UNL     1      32.530 -23.166 -16.462  0.00  0.00    +0.051 C 
ATOM      4  C   UNL     1      34.751 -23.331 -15.442  0.00  0.00    +0.004 C 
ATOM      5  C   UNL     1      31.474 -24.737 -14.413  0.00  0.00    +0.007 C 
ATOM      6  C   UNL     1      31.170 -23.478 -16.450  0.00  0.00    +0.021 C 
ATOM      7  C   UNL     1      30.643 -24.262 -15.428  0.00  0.00    +0.077 C 
ATOM      8  C   UNL     1      33.696 -24.902 -13.395  0.00  0.00    +0.000 C 
ATOM      9  C   UNL     1      35.582 -23.805 -14.427  0.00  0.00    +0.031 C 
ATOM     10  C   UNL     1      35.055 -24.589 -13.405  0.00  0.00    +0.003 C 
ENDROOT
BRANCH   9  13
ATOM     11  N   UNL     1      37.738 -23.491 -15.617  0.00  0.00    -0.343 N 
ATOM     12  N   UNL     1      37.611 -23.169 -13.306  0.00  0.00    -0.285 NA
ATOM     13  C   UNL     1      36.999 -23.480 -14.436  0.00  0.00    +0.117 C 
ATOM     14  H   UNL     1      38.696 -23.268 -15.601  0.00  0.00    +0.144 HD
ATOM     15  H   UNL     1      37.301 -23.723 -16.469  0.00  0.00    +0.144 HD
ATOM     16  H   UNL     1      38.570 -22.949 -13.310  0.00  0.00    +0.188 HD
ENDBRANCH   9  13
BRANCH   3  18
ATOM     17  O   UNL     1      33.873 -23.952 -19.023  0.00  0.00    -0.270 OA
ATOM     18  N   UNL     1      33.003 -22.374 -17.516  0.00  0.00    -0.280 N 
ATOM     19  C   UNL     1      33.625 -22.798 -18.693  0.00  0.00    +0.249 C 
ATOM     20  H   UNL     1      32.884 -21.403 -17.414  0.00  0.00    +0.155 HD
BRANCH  19  21
ATOM     21  C   UNL     1      34.045 -21.709 -19.614  0.00  0.00    +0.053 C 
ATOM     22  C   UNL     1      35.362 -21.301 -19.652  0.00  0.00    +0.016 C 
ATOM     23  C   UNL     1      33.076 -21.136 -20.413  0.00  0.00    +0.004 C 
ATOM     24  C   UNL     1      35.727 -20.277 -20.526  0.00  0.00    +0.130 C 
ATOM     25  C   UNL     1      36.400 -21.934 -18.780  0.00  0.00    +0.034 C 
ATOM     26  C   UNL     1      33.441 -20.111 -21.287  0.00  0.00    +0.003 C 
ATOM     27  C   UNL     1      34.766 -19.683 -21.343  0.00  0.00    +0.036 C 
BRANCH  24  28
ATOM     28  O   UNL     1      37.018 -19.845 -20.597  0.00  0.00    -0.506 OA
ATOM     29  H   UNL     1      37.685 -20.281 -20.103  0.00  0.00    +0.292 HD
ENDBRANCH  24  28
ENDBRANCH  19  21
ENDBRANCH   3  18
BRANCH   7  31
ATOM     30  O   UNL     1      28.692 -25.378 -14.630  0.00  0.00    -0.245 OA
ATOM     31  C   UNL     1      29.225 -24.587 -15.419  0.00  0.00    +0.341 C 
BRANCH  31  32
ATOM     32  O   UNL     1      28.547 -23.907 -16.395  0.00  0.00    -0.441 OA
ATOM     33  C   UNL     1      27.682 -22.851 -15.965  0.00  0.00    +0.256 C 
ENDBRANCH  31  32
ENDBRANCH   7  31
TORSDOF 6
ENDMDL
MODEL 4
REMARK VINA RESULT:     -10.7      2.204      6.763
REMARK  Name = 6852141
REMARK  6 active torsions:
REMARK  status: ('A' for Active; 'I' for Inactive)
REMARK    1  A    between atoms: C_3  and  N_18
REMARK    2  A    between atoms: C_7  and  C_31
REMARK    3  A    between atoms: C_9  and  C_13
REMARK    4  A    between atoms: C_19  and  C_21
REMARK    5  A    between atoms: C_24  and  O_28
REMARK    6  A    between atoms: C_31  and  O_32
REMARK                            x       y       z     vdW  Elec       q    Type
REMARK                         _______ _______ _______ _____ _____    ______ ____
ROOT
ATOM      1  C   UNL     1      33.285 -23.268 -16.347  0.00  0.00    +0.014 C 
ATOM      2  C   UNL     1      32.436 -22.846 -17.397  0.00  0.00    +0.001 C 
ATOM      3  C   UNL     1      34.676 -23.136 -16.493  0.00  0.00    +0.051 C 
ATOM      4  C   UNL     1      32.719 -23.810 -15.182  0.00  0.00    +0.004 C 
ATOM      5  C   UNL     1      33.002 -22.303 -18.562  0.00  0.00    +0.007 C 
ATOM      6  C   UNL     1      35.221 -22.594 -17.657  0.00  0.00    +0.021 C 
ATOM      7  C   UNL     1      34.385 -22.179 -18.690  0.00  0.00    +0.077 C 
ATOM      8  C   UNL     1      31.045 -22.978 -17.252  0.00  0.00    +0.000 C 
ATOM      9  C   UNL     1      31.335 -23.934 -15.054  0.00  0.00    +0.031 C 
ATOM     10  C   UNL     1      30.500 -23.519 -16.087  0.00  0.00    +0.003 C 
ENDROOT
BRANCH   9  13
ATOM     11  N   UNL     1      29.889 -25.581 -13.886  0.00  0.00    -0.343 N 
ATOM     12  N   UNL     1      31.073 -23.978 -12.665  0.00  0.00    -0.285 NA
ATOM     13  C   UNL     1      30.765 -24.497 -13.841  0.00  0.00    +0.117 C 
ATOM     14  H   UNL     1      29.515 -25.946 -13.053  0.00  0.00    +0.144 HD
ATOM     15  H   UNL     1      29.645 -25.980 -14.753  0.00  0.00    +0.144 HD
ATOM     16  H   UNL     1      30.688 -24.357 -11.843  0.00  0.00    +0.188 HD
ENDBRANCH   9  13
BRANCH   3  18
ATOM     17  O   UNL     1      35.629 -25.874 -15.730  0.00  0.00    -0.270 OA
ATOM     18  N   UNL     1      35.565 -23.538 -15.488  0.00  0.00    -0.280 N 
ATOM     19  C   UNL     1      35.975 -24.837 -15.176  0.00  0.00    +0.249 C 
ATOM     20  H   UNL     1      35.946 -22.818 -14.936  0.00  0.00    +0.155 HD
BRANCH  19  21
ATOM     21  C   UNL     1      36.912 -24.945 -14.027  0.00  0.00    +0.053 C 
ATOM     22  C   UNL     1      36.470 -24.697 -12.744  0.00  0.00    +0.016 C 
ATOM     23  C   UNL     1      38.220 -25.299 -14.297  0.00  0.00    +0.004 C 
ATOM     24  C   UNL     1      37.372 -24.806 -11.686  0.00  0.00    +0.130 C 
ATOM     25  C   UNL     1      35.050 -24.314 -12.470  0.00  0.00    +0.034 C 
ATOM     26  C   UNL     1      39.122 -25.409 -13.238  0.00  0.00    +0.003 C 
ATOM     27  C   UNL     1      38.697 -25.162 -11.933  0.00  0.00    +0.036 C 
BRANCH  24  28
ATOM     28  O   UNL     1      36.976 -24.570 -10.403  0.00  0.00    -0.506 OA
ATOM     29  H   UNL     1      37.483 -24.902  -9.688  0.00  0.00    +0.292 HD
ENDBRANCH  24  28
ENDBRANCH  19  21
ENDBRANCH   3  18
BRANCH   7  31
ATOM     30  O   UNL     1      36.103 -21.845 -20.312  0.00  0.00    -0.245 OA
ATOM     31  C   UNL     1      34.956 -21.614 -19.904  0.00  0.00    +0.341 C 
BRANCH  31  32
ATOM     32  O   UNL     1      34.068 -20.794 -20.543  0.00  0.00    -0.441 OA
ATOM     33  C   UNL     1      34.619 -19.745 -21.347  0.00  0.00    +0.256 C 
ENDBRANCH  31  32
ENDBRANCH   7  31
TORSDOF 6
ENDMDL
MODEL 5
REMARK VINA RESULT:     -10.5      2.748      6.329
REMARK  Name = 6852141
REMARK  6 active torsions:
REMARK  status: ('A' for Active; 'I' for Inactive)
REMARK    1  A    between atoms: C_3  and  N_18
REMARK    2  A    between atoms: C_7  and  C_31
REMARK    3  A    between atoms: C_9  and  C_13
REMARK    4  A    between atoms: C_19  and  C_21
REMARK    5  A    between atoms: C_24  and  O_28
REMARK    6  A    between atoms: C_31  and  O_32
REMARK                            x       y       z     vdW  Elec       q    Type
REMARK                         _______ _______ _______ _____ _____    ______ ____
ROOT
ATOM      1  C   UNL     1      35.011 -22.523 -17.673  0.00  0.00    +0.014 C 
ATOM      2  C   UNL     1      36.404 -22.282 -17.720  0.00  0.00    +0.001 C 
ATOM      3  C   UNL     1      34.481 -23.283 -16.617  0.00  0.00    +0.051 C 
ATOM      4  C   UNL     1      34.189 -21.999 -18.683  0.00  0.00    +0.004 C 
ATOM      5  C   UNL     1      37.228 -22.806 -16.711  0.00  0.00    +0.007 C 
ATOM      6  C   UNL     1      35.314 -23.795 -15.622  0.00  0.00    +0.021 C 
ATOM      7  C   UNL     1      36.684 -23.558 -15.669  0.00  0.00    +0.077 C 
ATOM      8  C   UNL     1      36.934 -21.523 -18.777  0.00  0.00    +0.000 C 
ATOM      9  C   UNL     1      34.732 -21.247 -19.725  0.00  0.00    +0.031 C 
ATOM     10  C   UNL     1      36.102 -21.009 -19.771  0.00  0.00    +0.003 C 
ENDROOT
BRANCH   9  13
ATOM     11  N   UNL     1      32.483 -20.874 -20.709  0.00  0.00    -0.343 N 
ATOM     12  N   UNL     1      34.389 -20.056 -21.784  0.00  0.00    -0.285 NA
ATOM     13  C   UNL     1      33.866 -20.710 -20.762  0.00  0.00    +0.117 C 
ATOM     14  H   UNL     1      31.915 -20.503 -21.421  0.00  0.00    +0.144 HD
ATOM     15  H   UNL     1      32.074 -21.362 -19.957  0.00  0.00    +0.144 HD
ATOM     16  H   UNL     1      33.804 -19.692 -22.487  0.00  0.00    +0.188 HD
ENDBRANCH   9  13
BRANCH   3  18
ATOM     17  O   UNL     1      32.513 -22.573 -14.471  0.00  0.00    -0.270 OA
ATOM     18  N   UNL     1      33.111 -23.556 -16.519  0.00  0.00    -0.280 N 
ATOM     19  C   UNL     1      32.238 -23.198 -15.488  0.00  0.00    +0.249 C 
ATOM     20  H   UNL     1      32.717 -24.062 -17.265  0.00  0.00    +0.155 HD
BRANCH  19  21
ATOM     21  C   UNL     1      30.836 -23.662 -15.658  0.00  0.00    +0.053 C 
ATOM     22  C   UNL     1      30.344 -24.686 -14.876  0.00  0.00    +0.016 C 
ATOM     23  C   UNL     1      30.063 -23.033 -16.614  0.00  0.00    +0.004 C 
ATOM     24  C   UNL     1      29.024 -25.100 -15.057  0.00  0.00    +0.130 C 
ATOM     25  C   UNL     1      31.194 -25.357 -13.843  0.00  0.00    +0.034 C 
ATOM     26  C   UNL     1      28.743 -23.447 -16.795  0.00  0.00    +0.003 C 
ATOM     27  C   UNL     1      28.225 -24.480 -16.016  0.00  0.00    +0.036 C 
BRANCH  24  28
ATOM     28  O   UNL     1      28.498 -26.108 -14.304  0.00  0.00    -0.506 OA
ATOM     29  H   UNL     1      29.013 -26.868 -14.113  0.00  0.00    +0.292 HD
ENDBRANCH  24  28
ENDBRANCH  19  21
ENDBRANCH   3  18
BRANCH   7  31
ATOM     30  O   UNL     1      37.930 -23.459 -13.637  0.00  0.00    -0.245 OA
ATOM     31  C   UNL     1      37.551 -24.094 -14.630  0.00  0.00    +0.341 C 
BRANCH  31  32
ATOM     32  O   UNL     1      37.897 -25.393 -14.885  0.00  0.00    -0.441 OA
ATOM     33  C   UNL     1      37.536 -26.365 -13.897  0.00  0.00    +0.256 C 
ENDBRANCH  31  32
ENDBRANCH   7  31
TORSDOF 6
ENDMDL
MODEL 6
REMARK VINA RESULT:     -10.2      2.951      6.173
REMARK  Name = 6852141
REMARK  6 active torsions:
REMARK  status: ('A' for Active; 'I' for Inactive)
REMARK    1  A    between atoms: C_3  and  N_18
REMARK    2  A    between atoms: C_7  and  C_31
REMARK    3  A    between atoms: C_9  and  C_13
REMARK    4  A    between atoms: C_19  and  C_21
REMARK    5  A    between atoms: C_24  and  O_28
REMARK    6  A    between atoms: C_31  and  O_32
REMARK                            x       y       z     vdW  Elec       q    Type
REMARK                         _______ _______ _______ _____ _____    ______ ____
ROOT
ATOM      1  C   UNL     1      35.364 -23.223 -15.675  0.00  0.00    +0.014 C 
ATOM      2  C   UNL     1      36.708 -22.860 -15.424  0.00  0.00    +0.001 C 
ATOM      3  C   UNL     1      34.617 -23.839 -14.658  0.00  0.00    +0.051 C 
ATOM      4  C   UNL     1      34.807 -22.961 -16.937  0.00  0.00    +0.004 C 
ATOM      5  C   UNL     1      37.266 -23.122 -14.162  0.00  0.00    +0.007 C 
ATOM      6  C   UNL     1      35.187 -24.091 -13.410  0.00  0.00    +0.021 C 
ATOM      7  C   UNL     1      36.510 -23.734 -13.162  0.00  0.00    +0.077 C 
ATOM      8  C   UNL     1      37.456 -22.245 -16.442  0.00  0.00    +0.000 C 
ATOM      9  C   UNL     1      35.563 -22.349 -17.936  0.00  0.00    +0.031 C 
ATOM     10  C   UNL     1      36.885 -21.991 -17.689  0.00  0.00    +0.003 C 
ENDROOT
BRANCH   9  13
ATOM     11  N   UNL     1      33.711 -22.578 -19.575  0.00  0.00    -0.343 N 
ATOM     12  N   UNL     1      35.630 -21.364 -20.128  0.00  0.00    -0.285 NA
ATOM     13  C   UNL     1      34.970 -22.084 -19.237  0.00  0.00    +0.117 C 
ATOM     14  H   UNL     1      33.328 -22.386 -20.461  0.00  0.00    +0.144 HD
ATOM     15  H   UNL     1      33.205 -23.119 -18.925  0.00  0.00    +0.144 HD
ATOM     16  H   UNL     1      35.230 -21.183 -21.009  0.00  0.00    +0.188 HD
ENDBRANCH   9  13
BRANCH   3  18
ATOM     17  O   UNL     1      32.073 -22.448 -13.896  0.00  0.00    -0.270 OA
ATOM     18  N   UNL     1      33.283 -24.222 -14.849  0.00  0.00    -0.280 N 
ATOM     19  C   UNL     1      32.130 -23.529 -14.470  0.00  0.00    +0.249 C 
ATOM     20  H   UNL     1      33.142 -25.083 -15.304  0.00  0.00    +0.155 HD
BRANCH  19  21
ATOM     21  C   UNL     1      30.849 -24.213 -14.787  0.00  0.00    +0.053 C 
ATOM     22  C   UNL     1      30.143 -23.873 -15.923  0.00  0.00    +0.016 C 
ATOM     23  C   UNL     1      30.406 -25.185 -13.912  0.00  0.00    +0.004 C 
ATOM     24  C   UNL     1      28.943 -24.531 -16.195  0.00  0.00    +0.130 C 
ATOM     25  C   UNL     1      30.637 -22.817 -16.861  0.00  0.00    +0.034 C 
ATOM     26  C   UNL     1      29.207 -25.843 -14.184  0.00  0.00    +0.003 C 
ATOM     27  C   UNL     1      28.477 -25.516 -15.326  0.00  0.00    +0.036 C 
BRANCH  24  28
ATOM     28  O   UNL     1      28.215 -24.227 -17.306  0.00  0.00    -0.506 OA
ATOM     29  H   UNL     1      27.486 -24.762 -17.550  0.00  0.00    +0.292 HD
ENDBRANCH  24  28
ENDBRANCH  19  21
ENDBRANCH   3  18
BRANCH   7  31
ATOM     30  O   UNL     1      37.560 -23.127 -11.108  0.00  0.00    -0.245 OA
ATOM     31  C   UNL     1      37.102 -23.999 -11.860  0.00  0.00    +0.341 C 
BRANCH  31  32
ATOM     32  O   UNL     1      37.093 -25.335 -11.566  0.00  0.00    -0.441 OA
ATOM     33  C   UNL     1      37.882 -26.188 -12.402  0.00  0.00    +0.256 C 
ENDBRANCH  31  32
ENDBRANCH   7  31
TORSDOF 6
ENDMDL
MODEL 7
REMARK VINA RESULT:     -10.1      1.555      2.373
REMARK  Name = 6852141
REMARK  6 active torsions:
REMARK  status: ('A' for Active; 'I' for Inactive)
REMARK    1  A    between atoms: C_3  and  N_18
REMARK    2  A    between atoms: C_7  and  C_31
REMARK    3  A    between atoms: C_9  and  C_13
REMARK    4  A    between atoms: C_19  and  C_21
REMARK    5  A    between atoms: C_24  and  O_28
REMARK    6  A    between atoms: C_31  and  O_32
REMARK                            x       y       z     vdW  Elec       q    Type
REMARK                         _______ _______ _______ _____ _____    ______ ____
ROOT
ATOM      1  C   UNL     1      33.653 -23.690 -15.123  0.00  0.00    +0.014 C 
ATOM      2  C   UNL     1      33.531 -24.454 -13.939  0.00  0.00    +0.001 C 
ATOM      3  C   UNL     1      34.933 -23.369 -15.604  0.00  0.00    +0.051 C 
ATOM      4  C   UNL     1      32.492 -23.270 -15.791  0.00  0.00    +0.004 C 
ATOM      5  C   UNL     1      34.692 -24.876 -13.270  0.00  0.00    +0.007 C 
ATOM      6  C   UNL     1      36.076 -23.797 -14.927  0.00  0.00    +0.021 C 
ATOM      7  C   UNL     1      35.955 -24.548 -13.762  0.00  0.00    +0.077 C 
ATOM      8  C   UNL     1      32.251 -24.775 -13.457  0.00  0.00    +0.000 C 
ATOM      9  C   UNL     1      31.229 -23.598 -15.299  0.00  0.00    +0.031 C 
ATOM     10  C   UNL     1      31.109 -24.350 -14.134  0.00  0.00    +0.003 C 
ENDROOT
BRANCH   9  13
ATOM     11  N   UNL     1      28.778 -23.213 -15.408  0.00  0.00    -0.343 N 
ATOM     12  N   UNL     1      30.135 -22.689 -17.237  0.00  0.00    -0.285 NA
ATOM     13  C   UNL     1      30.037 -23.154 -16.004  0.00  0.00    +0.117 C 
ATOM     14  H   UNL     1      27.984 -22.908 -15.903  0.00  0.00    +0.144 HD
ATOM     15  H   UNL     1      28.684 -23.560 -14.491  0.00  0.00    +0.144 HD
ATOM     16  H   UNL     1      29.330 -22.388 -17.716  0.00  0.00    +0.188 HD
ENDBRANCH   9  13
BRANCH   3  18
ATOM     17  O   UNL     1      34.150 -23.960 -18.437  0.00  0.00    -0.270 OA
ATOM     18  N   UNL     1      35.116 -22.615 -16.770  0.00  0.00    -0.280 N 
ATOM     19  C   UNL     1      34.728 -22.942 -18.072  0.00  0.00    +0.249 C 
ATOM     20  H   UNL     1      35.574 -21.751 -16.658  0.00  0.00    +0.155 HD
BRANCH  19  21
ATOM     21  C   UNL     1      35.092 -21.942 -19.111  0.00  0.00    +0.053 C 
ATOM     22  C   UNL     1      34.107 -21.314 -19.845  0.00  0.00    +0.016 C 
ATOM     23  C   UNL     1      36.433 -21.675 -19.303  0.00  0.00    +0.004 C 
ATOM     24  C   UNL     1      34.478 -20.380 -20.813  0.00  0.00    +0.130 C 
ATOM     25  C   UNL     1      32.658 -21.615 -19.624  0.00  0.00    +0.034 C 
ATOM     26  C   UNL     1      36.803 -20.741 -20.270  0.00  0.00    +0.003 C 
ATOM     27  C   UNL     1      35.825 -20.094 -21.024  0.00  0.00    +0.036 C 
BRANCH  24  28
ATOM     28  O   UNL     1      33.536 -19.736 -21.559  0.00  0.00    -0.506 OA
ATOM     29  H   UNL     1      32.626 -19.897 -21.405  0.00  0.00    +0.292 HD
ENDBRANCH  24  28
ENDBRANCH  19  21
ENDBRANCH   3  18
BRANCH   7  31
ATOM     30  O   UNL     1      37.139 -25.602 -11.980  0.00  0.00    -0.245 OA
ATOM     31  C   UNL     1      37.149 -24.992 -13.057  0.00  0.00    +0.341 C 
BRANCH  31  32
ATOM     32  O   UNL     1      38.288 -24.652 -13.734  0.00  0.00    -0.441 OA
ATOM     33  C   UNL     1      39.366 -25.594 -13.701  0.00  0.00    +0.256 C 
ENDBRANCH  31  32
ENDBRANCH   7  31
TORSDOF 6
ENDMDL
MODEL 8
REMARK VINA RESULT:     -10.0      2.471      6.562
REMARK  Name = 6852141
REMARK  6 active torsions:
REMARK  status: ('A' for Active; 'I' for Inactive)
REMARK    1  A    between atoms: C_3  and  N_18
REMARK    2  A    between atoms: C_7  and  C_31
REMARK    3  A    between atoms: C_9  and  C_13
REMARK    4  A    between atoms: C_19  and  C_21
REMARK    5  A    between atoms: C_24  and  O_28
REMARK    6  A    between atoms: C_31  and  O_32
REMARK                            x       y       z     vdW  Elec       q    Type
REMARK                         _______ _______ _______ _____ _____    ______ ____
ROOT
ATOM      1  C   UNL     1      33.041 -23.507 -16.382  0.00  0.00    +0.014 C 
ATOM      2  C   UNL     1      32.237 -22.855 -17.347  0.00  0.00    +0.001 C 
ATOM      3  C   UNL     1      34.435 -23.529 -16.551  0.00  0.00    +0.051 C 
ATOM      4  C   UNL     1      32.427 -24.119 -15.277  0.00  0.00    +0.004 C 
ATOM      5  C   UNL     1      32.850 -22.243 -18.452  0.00  0.00    +0.007 C 
ATOM      6  C   UNL     1      35.027 -22.914 -17.655  0.00  0.00    +0.021 C 
ATOM      7  C   UNL     1      34.237 -22.274 -18.604  0.00  0.00    +0.077 C 
ATOM      8  C   UNL     1      30.843 -22.835 -17.179  0.00  0.00    +0.000 C 
ATOM      9  C   UNL     1      31.041 -24.088 -15.126  0.00  0.00    +0.031 C 
ATOM     10  C   UNL     1      30.250 -23.447 -16.074  0.00  0.00    +0.003 C 
ENDROOT
BRANCH   9  13
ATOM     11  N   UNL     1      29.409 -25.672 -14.128  0.00  0.00    -0.343 N 
ATOM     12  N   UNL     1      30.815 -24.408 -12.754  0.00  0.00    -0.285 NA
ATOM     13  C   UNL     1      30.421 -24.726 -13.975  0.00  0.00    +0.117 C 
ATOM     14  H   UNL     1      29.003 -26.091 -13.335  0.00  0.00    +0.144 HD
ATOM     15  H   UNL     1      29.099 -25.920 -15.030  0.00  0.00    +0.144 HD
ATOM     16  H   UNL     1      30.397 -24.839 -11.974  0.00  0.00    +0.188 HD
ENDBRANCH   9  13
BRANCH   3  18
ATOM     17  O   UNL     1      36.556 -22.384 -14.768  0.00  0.00    -0.270 OA
ATOM     18  N   UNL     1      35.281 -24.159 -15.630  0.00  0.00    -0.280 N 
ATOM     19  C   UNL     1      36.258 -23.572 -14.821  0.00  0.00    +0.249 C 
ATOM     20  H   UNL     1      35.175 -25.134 -15.543  0.00  0.00    +0.155 HD
BRANCH  19  21
ATOM     21  C   UNL     1      37.019 -24.516 -13.962  0.00  0.00    +0.053 C 
ATOM     22  C   UNL     1      38.289 -24.916 -14.325  0.00  0.00    +0.016 C 
ATOM     23  C   UNL     1      36.410 -24.966 -12.807  0.00  0.00    +0.004 C 
ATOM     24  C   UNL     1      38.980 -25.803 -13.499  0.00  0.00    +0.130 C 
ATOM     25  C   UNL     1      38.934 -24.418 -15.580  0.00  0.00    +0.034 C 
ATOM     26  C   UNL     1      37.101 -25.853 -11.981  0.00  0.00    +0.003 C 
ATOM     27  C   UNL     1      38.386 -26.270 -12.328  0.00  0.00    +0.036 C 
BRANCH  24  28
ATOM     28  O   UNL     1      40.236 -26.222 -13.820  0.00  0.00    -0.506 OA
ATOM     29  H   UNL     1      40.965 -25.642 -13.713  0.00  0.00    +0.292 HD
ENDBRANCH  24  28
ENDBRANCH  19  21
ENDBRANCH   3  18
BRANCH   7  31
ATOM     30  O   UNL     1      36.030 -21.815 -20.108  0.00  0.00    -0.245 OA
ATOM     31  C   UNL     1      34.857 -21.635 -19.755  0.00  0.00    +0.341 C 
BRANCH  31  32
ATOM     32  O   UNL     1      33.982 -20.806 -20.403  0.00  0.00    -0.441 OA
ATOM     33  C   UNL     1      34.546 -19.842 -21.298  0.00  0.00    +0.256 C 
ENDBRANCH  31  32
ENDBRANCH   7  31
TORSDOF 6
ENDMDL
MODEL 9
REMARK VINA RESULT:      -9.9      2.586      7.267
REMARK  Name = 6852141
REMARK  6 active torsions:
REMARK  status: ('A' for Active; 'I' for Inactive)
REMARK    1  A    between atoms: C_3  and  N_18
REMARK    2  A    between atoms: C_7  and  C_31
REMARK    3  A    between atoms: C_9  and  C_13
REMARK    4  A    between atoms: C_19  and  C_21
REMARK    5  A    between atoms: C_24  and  O_28
REMARK    6  A    between atoms: C_31  and  O_32
REMARK                            x       y       z     vdW  Elec       q    Type
REMARK                         _______ _______ _______ _____ _____    ______ ____
ROOT
ATOM      1  C   UNL     1      35.268 -23.317 -16.207  0.00  0.00    +0.014 C 
ATOM      2  C   UNL     1      36.583 -22.886 -16.503  0.00  0.00    +0.001 C 
ATOM      3  C   UNL     1      34.236 -23.050 -17.121  0.00  0.00    +0.051 C 
ATOM      4  C   UNL     1      35.024 -23.999 -15.004  0.00  0.00    +0.004 C 
ATOM      5  C   UNL     1      36.829 -22.203 -17.706  0.00  0.00    +0.007 C 
ATOM      6  C   UNL     1      34.498 -22.371 -18.312  0.00  0.00    +0.021 C 
ATOM      7  C   UNL     1      35.791 -21.948 -18.603  0.00  0.00    +0.077 C 
ATOM      8  C   UNL     1      37.615 -23.152 -15.588  0.00  0.00    +0.000 C 
ATOM      9  C   UNL     1      36.061 -24.255 -14.107  0.00  0.00    +0.031 C 
ATOM     10  C   UNL     1      37.354 -23.832 -14.399  0.00  0.00    +0.003 C 
ENDROOT
BRANCH   9  13
ATOM     11  N   UNL     1      36.717 -25.853 -12.323  0.00  0.00    -0.343 N 
ATOM     12  N   UNL     1      34.645 -24.774 -12.235  0.00  0.00    -0.285 NA
ATOM     13  C   UNL     1      35.791 -24.964 -12.867  0.00  0.00    +0.117 C 
ATOM     14  H   UNL     1      36.514 -26.323 -11.483  0.00  0.00    +0.144 HD
ATOM     15  H   UNL     1      37.575 -26.010 -12.781  0.00  0.00    +0.144 HD
ATOM     16  H   UNL     1      34.461 -25.254 -11.396  0.00  0.00    +0.188 HD
ENDBRANCH   9  13
BRANCH   3  18
ATOM     17  O   UNL     1      32.392 -22.386 -14.854  0.00  0.00    -0.270 OA
ATOM     18  N   UNL     1      32.915 -23.450 -16.882  0.00  0.00    -0.280 N 
ATOM     19  C   UNL     1      32.099 -23.107 -15.800  0.00  0.00    +0.249 C 
ATOM     20  H   UNL     1      32.515 -24.045 -17.556  0.00  0.00    +0.155 HD
BRANCH  19  21
ATOM     21  C   UNL     1      30.744 -23.719 -15.812  0.00  0.00    +0.053 C 
ATOM     22  C   UNL     1      30.463 -24.800 -15.002  0.00  0.00    +0.016 C 
ATOM     23  C   UNL     1      29.798 -23.167 -16.653  0.00  0.00    +0.004 C 
ATOM     24  C   UNL     1      29.183 -25.354 -15.034  0.00  0.00    +0.130 C 
ATOM     25  C   UNL     1      31.500 -25.386 -14.096  0.00  0.00    +0.034 C 
ATOM     26  C   UNL     1      28.518 -23.720 -16.685  0.00  0.00    +0.003 C 
ATOM     27  C   UNL     1      28.211 -24.813 -15.875  0.00  0.00    +0.036 C 
BRANCH  24  28
ATOM     28  O   UNL     1      28.863 -26.421 -14.249  0.00  0.00    -0.506 OA
ATOM     29  H   UNL     1      29.257 -27.256 -14.411  0.00  0.00    +0.292 HD
ENDBRANCH  24  28
ENDBRANCH  19  21
ENDBRANCH   3  18
BRANCH   7  31
ATOM     30  O   UNL     1      37.195 -20.972 -20.266  0.00  0.00    -0.245 OA
ATOM     31  C   UNL     1      36.061 -21.239 -19.844  0.00  0.00    +0.341 C 
BRANCH  31  32
ATOM     32  O   UNL     1      34.905 -20.902 -20.493  0.00  0.00    -0.441 OA
ATOM     33  C   UNL     1      34.917 -19.684 -21.246  0.00  0.00    +0.256 C 
ENDBRANCH  31  32
ENDBRANCH   7  31
TORSDOF 6
ENDMDL
