MODEL 1
REMARK VINA RESULT:     -12.3      0.000      0.000
REMARK  Name = 44123754
REMARK  11 active torsions:
REMARK  status: ('A' for Active; 'I' for Inactive)
REMARK    1  A    between atoms: C_3  and  C_22
REMARK    2  A    between atoms: C_4  and  C_7
REMARK    3  A    between atoms: N_6  and  C_15
REMARK    4  A    between atoms: C_8  and  N_12
REMARK    5  A    between atoms: C_15  and  O_16
REMARK    6  A    between atoms: O_16  and  P_17
REMARK    7  A    between atoms: P_17  and  O_20
REMARK    8  A    between atoms: C_22  and  C_23
REMARK    9  A    between atoms: C_26  and  C_29
REMARK   10  A    between atoms: C_29  and  O_30
REMARK   11  A    between atoms: O_30  and  C_32
REMARK                            x       y       z     vdW  Elec       q    Type
REMARK                         _______ _______ _______ _____ _____    ______ ____
ROOT
ATOM      1  O   UNL     1      35.925 -23.223 -16.452  0.00  0.00    -0.354 OA
ATOM      2  N   UNL     1      35.371 -22.770 -17.644  0.00  0.00    -0.081 NA
ATOM      3  C   UNL     1      34.056 -22.966 -17.510  0.00  0.00    +0.105 C 
ATOM      4  C   UNL     1      34.935 -23.676 -15.641  0.00  0.00    +0.175 C 
ATOM      5  C   UNL     1      33.725 -23.535 -16.268  0.00  0.00    +0.058 C 
ENDROOT
BRANCH   4   7
ATOM      6  N   UNL     1      36.763 -25.538 -13.023  0.00  0.00    -0.266 N 
ATOM      7  C   UNL     1      35.361 -24.183 -14.357  0.00  0.00    +0.048 C 
ATOM      8  C   UNL     1      36.399 -25.095 -14.234  0.00  0.00    +0.156 C 
ATOM      9  C   UNL     1      34.714 -23.745 -13.206  0.00  0.00    +0.003 C 
ATOM     10  C   UNL     1      36.157 -25.134 -11.899  0.00  0.00    +0.064 C 
ATOM     11  C   UNL     1      35.112 -24.224 -11.961  0.00  0.00    +0.016 C 
BRANCH   8  12
ATOM     12  N   UNL     1      37.083 -25.564 -15.377  0.00  0.00    -0.303 NA
ATOM     13  H   UNL     1      38.036 -25.350 -15.503  0.00  0.00    +0.121 HD
ATOM     14  H   UNL     1      36.606 -26.104 -16.047  0.00  0.00    +0.121 HD
ENDBRANCH   8  12
BRANCH   6  15
ATOM     15  C   UNL     1      37.860 -26.501 -12.894  0.00  0.00    +0.251 C 
BRANCH  15  16
ATOM     16  O   UNL     1      39.092 -25.803 -13.002  0.00  0.00    -0.250 OA
BRANCH  16  17
ATOM     17  P   UNL     1      40.101 -26.148 -14.240  0.00  0.00    +0.504 P 
ATOM     18  O   UNL     1      41.376 -26.763 -13.706  0.00  0.00    -0.225 OA
ATOM     19  O   UNL     1      40.155 -24.950 -15.163  0.00  0.00    -0.116 OA
BRANCH  17  20
ATOM     20  O   UNL     1      39.230 -27.317 -14.977  0.00  0.00    -0.301 OA
ATOM     21  H   UNL     1      38.388 -26.947 -15.286  0.00  0.00    +0.222 HD
ENDBRANCH  17  20
ENDBRANCH  16  17
ENDBRANCH  15  16
ENDBRANCH   6  15
ENDBRANCH   4   7
BRANCH   3  22
ATOM     22  C   UNL     1      33.143 -22.593 -18.602  0.00  0.00    +0.075 C 
BRANCH  22  23
ATOM     23  C   UNL     1      33.735 -21.628 -19.622  0.00  0.00    -0.016 C 
ATOM     24  C   UNL     1      35.118 -21.532 -19.770  0.00  0.00    -0.004 C 
ATOM     25  C   UNL     1      32.893 -20.841 -20.408  0.00  0.00    -0.004 C 
ATOM     26  C   UNL     1      34.818 -19.861 -21.489  0.00  0.00    +0.021 C 
ATOM     27  C   UNL     1      35.660 -20.648 -20.703  0.00  0.00    -0.001 C 
ATOM     28  C   UNL     1      33.435 -19.957 -21.341  0.00  0.00    -0.001 C 
BRANCH  26  29
ATOM     29  C   UNL     1      35.398 -18.919 -22.489  0.00  0.00    +0.234 C 
BRANCH  29  30
ATOM     30  O   UNL     1      35.977 -17.810 -21.812  0.00  0.00    -0.455 OA
BRANCH  30  32
ATOM     31  N   UNL     1      35.193 -16.134 -23.213  0.00  0.00    -0.210 NA
ATOM     32  C   UNL     1      35.345 -16.602 -21.953  0.00  0.00    +0.225 C 
ATOM     33  C   UNL     1      34.902 -15.939 -20.820  0.00  0.00    +0.058 C 
ATOM     34  C   UNL     1      34.262 -14.716 -20.990  0.00  0.00    +0.006 C 
ATOM     35  C   UNL     1      34.566 -14.942 -23.338  0.00  0.00    +0.102 C 
ATOM     36  C   UNL     1      34.087 -14.202 -22.270  0.00  0.00    +0.021 C 
ENDBRANCH  30  32
ENDBRANCH  29  30
ENDBRANCH  26  29
ENDBRANCH  22  23
ENDBRANCH   3  22
TORSDOF 11
ENDMDL
MODEL 2
REMARK VINA RESULT:     -12.2      1.180      1.394
REMARK  Name = 44123754
REMARK  11 active torsions:
REMARK  status: ('A' for Active; 'I' for Inactive)
REMARK    1  A    between atoms: C_3  and  C_22
REMARK    2  A    between atoms: C_4  and  C_7
REMARK    3  A    between atoms: N_6  and  C_15
REMARK    4  A    between atoms: C_8  and  N_12
REMARK    5  A    between atoms: C_15  and  O_16
REMARK    6  A    between atoms: O_16  and  P_17
REMARK    7  A    between atoms: P_17  and  O_20
REMARK    8  A    between atoms: C_22  and  C_23
REMARK    9  A    between atoms: C_26  and  C_29
REMARK   10  A    between atoms: C_29  and  O_30
REMARK   11  A    between atoms: O_30  and  C_32
REMARK                            x       y       z     vdW  Elec       q    Type
REMARK                         _______ _______ _______ _____ _____    ______ ____
ROOT
ATOM      1  O   UNL     1      33.214 -23.409 -14.913  0.00  0.00    -0.354 OA
ATOM      2  N   UNL     1      32.586 -23.119 -16.120  0.00  0.00    -0.081 NA
ATOM      3  C   UNL     1      33.440 -23.532 -17.061  0.00  0.00    +0.105 C 
ATOM      4  C   UNL     1      34.419 -23.983 -15.162  0.00  0.00    +0.175 C 
ATOM      5  C   UNL     1      34.611 -24.085 -16.514  0.00  0.00    +0.058 C 
ENDROOT
BRANCH   4   7
ATOM      6  N   UNL     1      37.056 -25.383 -12.982  0.00  0.00    -0.266 N 
ATOM      7  C   UNL     1      35.192 -24.343 -13.996  0.00  0.00    +0.048 C 
ATOM      8  C   UNL     1      36.369 -25.071 -14.090  0.00  0.00    +0.156 C 
ATOM      9  C   UNL     1      34.746 -23.949 -12.738  0.00  0.00    +0.003 C 
ATOM     10  C   UNL     1      36.649 -25.017 -11.759  0.00  0.00    +0.064 C 
ATOM     11  C   UNL     1      35.480 -24.288 -11.605  0.00  0.00    +0.016 C 
BRANCH   8  12
ATOM     12  N   UNL     1      36.856 -25.490 -15.347  0.00  0.00    -0.303 NA
ATOM     13  H   UNL     1      36.229 -25.651 -16.089  0.00  0.00    +0.121 HD
ATOM     14  H   UNL     1      37.823 -25.620 -15.481  0.00  0.00    +0.121 HD
ENDBRANCH   8  12
BRANCH   6  15
ATOM     15  C   UNL     1      38.299 -26.151 -13.082  0.00  0.00    +0.251 C 
BRANCH  15  16
ATOM     16  O   UNL     1      39.350 -25.269 -13.451  0.00  0.00    -0.250 OA
BRANCH  16  17
ATOM     17  P   UNL     1      40.505 -25.789 -14.483  0.00  0.00    +0.504 P 
ATOM     18  O   UNL     1      41.176 -27.023 -13.920  0.00  0.00    -0.225 OA
ATOM     19  O   UNL     1      41.331 -24.598 -14.918  0.00  0.00    -0.116 OA
BRANCH  17  20
ATOM     20  O   UNL     1      39.561 -26.238 -15.738  0.00  0.00    -0.301 OA
ATOM     21  H   UNL     1      38.678 -25.852 -15.632  0.00  0.00    +0.222 HD
ENDBRANCH  17  20
ENDBRANCH  16  17
ENDBRANCH  15  16
ENDBRANCH   6  15
ENDBRANCH   4   7
BRANCH   3  22
ATOM     22  C   UNL     1      33.095 -23.378 -18.483  0.00  0.00    +0.075 C 
BRANCH  22  23
ATOM     23  C   UNL     1      33.879 -22.294 -19.212  0.00  0.00    -0.016 C 
ATOM     24  C   UNL     1      35.272 -22.274 -19.142  0.00  0.00    -0.004 C 
ATOM     25  C   UNL     1      33.204 -21.322 -19.951  0.00  0.00    -0.004 C 
ATOM     26  C   UNL     1      35.314 -20.309 -20.547  0.00  0.00    +0.021 C 
ATOM     27  C   UNL     1      35.990 -21.281 -19.809  0.00  0.00    -0.001 C 
ATOM     28  C   UNL     1      33.922 -20.329 -20.618  0.00  0.00    -0.001 C 
BRANCH  26  29
ATOM     29  C   UNL     1      36.082 -19.250 -21.263  0.00  0.00    +0.234 C 
BRANCH  29  30
ATOM     30  O   UNL     1      35.808 -17.986 -20.671  0.00  0.00    -0.455 OA
BRANCH  30  32
ATOM     31  N   UNL     1      34.991 -15.830 -20.934  0.00  0.00    -0.210 NA
ATOM     32  C   UNL     1      35.362 -16.997 -21.508  0.00  0.00    +0.225 C 
ATOM     33  C   UNL     1      35.319 -17.239 -22.871  0.00  0.00    +0.058 C 
ATOM     34  C   UNL     1      34.864 -16.218 -23.699  0.00  0.00    +0.006 C 
ATOM     35  C   UNL     1      34.556 -14.861 -21.770  0.00  0.00    +0.102 C 
ATOM     36  C   UNL     1      34.474 -15.004 -23.146  0.00  0.00    +0.021 C 
ENDBRANCH  30  32
ENDBRANCH  29  30
ENDBRANCH  26  29
ENDBRANCH  22  23
ENDBRANCH   3  22
TORSDOF 11
ENDMDL
MODEL 3
REMARK VINA RESULT:     -12.1      1.281      1.848
REMARK  Name = 44123754
REMARK  11 active torsions:
REMARK  status: ('A' for Active; 'I' for Inactive)
REMARK    1  A    between atoms: C_3  and  C_22
REMARK    2  A    between atoms: C_4  and  C_7
REMARK    3  A    between atoms: N_6  and  C_15
REMARK    4  A    between atoms: C_8  and  N_12
REMARK    5  A    between atoms: C_15  and  O_16
REMARK    6  A    between atoms: O_16  and  P_17
REMARK    7  A    between atoms: P_17  and  O_20
REMARK    8  A    between atoms: C_22  and  C_23
REMARK    9  A    between atoms: C_26  and  C_29
REMARK   10  A    between atoms: C_29  and  O_30
REMARK   11  A    between atoms: O_30  and  C_32
REMARK                            x       y       z     vdW  Elec       q    Type
REMARK                         _______ _______ _______ _____ _____    ______ ____
ROOT
ATOM      1  O   UNL     1      36.393 -22.843 -16.614  0.00  0.00    -0.354 OA
ATOM      2  N   UNL     1      35.922 -22.401 -17.844  0.00  0.00    -0.081 NA
ATOM      3  C   UNL     1      34.641 -22.778 -17.880  0.00  0.00    +0.105 C 
ATOM      4  C   UNL     1      35.389 -23.472 -15.949  0.00  0.00    +0.175 C 
ATOM      5  C   UNL     1      34.252 -23.457 -16.712  0.00  0.00    +0.058 C 
ENDROOT
BRANCH   4   7
ATOM      6  N   UNL     1      37.309 -24.789 -13.078  0.00  0.00    -0.266 N 
ATOM      7  C   UNL     1      35.731 -23.989 -14.645  0.00  0.00    +0.048 C 
ATOM      8  C   UNL     1      37.036 -24.312 -14.301  0.00  0.00    +0.156 C 
ATOM      9  C   UNL     1      34.725 -24.172 -13.702  0.00  0.00    +0.003 C 
ATOM     10  C   UNL     1      36.360 -24.975 -12.152  0.00  0.00    +0.064 C 
ATOM     11  C   UNL     1      35.038 -24.670 -12.440  0.00  0.00    +0.016 C 
BRANCH   8  12
ATOM     12  N   UNL     1      38.087 -24.141 -15.228  0.00  0.00    -0.303 NA
ATOM     13  H   UNL     1      39.022 -24.152 -14.920  0.00  0.00    +0.121 HD
ATOM     14  H   UNL     1      37.884 -24.012 -16.182  0.00  0.00    +0.121 HD
ENDBRANCH   8  12
BRANCH   6  15
ATOM     15  C   UNL     1      38.688 -25.129 -12.716  0.00  0.00    +0.251 C 
BRANCH  15  16
ATOM     16  O   UNL     1      39.112 -26.223 -13.518  0.00  0.00    -0.250 OA
BRANCH  16  17
ATOM     17  P   UNL     1      40.541 -26.130 -14.304  0.00  0.00    +0.504 P 
ATOM     18  O   UNL     1      41.405 -27.318 -13.938  0.00  0.00    -0.225 OA
ATOM     19  O   UNL     1      41.075 -24.721 -14.164  0.00  0.00    -0.116 OA
BRANCH  17  20
ATOM     20  O   UNL     1      40.016 -26.323 -15.839  0.00  0.00    -0.301 OA
ATOM     21  H   UNL     1      40.185 -27.234 -16.126  0.00  0.00    +0.222 HD
ENDBRANCH  17  20
ENDBRANCH  16  17
ENDBRANCH  15  16
ENDBRANCH   6  15
ENDBRANCH   4   7
BRANCH   3  22
ATOM     22  C   UNL     1      33.816 -22.469 -19.059  0.00  0.00    +0.075 C 
BRANCH  22  23
ATOM     23  C   UNL     1      34.370 -21.362 -19.947  0.00  0.00    -0.016 C 
ATOM     24  C   UNL     1      33.498 -20.523 -20.641  0.00  0.00    -0.004 C 
ATOM     25  C   UNL     1      35.749 -21.187 -20.066  0.00  0.00    -0.004 C 
ATOM     26  C   UNL     1      35.383 -19.334 -21.573  0.00  0.00    +0.021 C 
ATOM     27  C   UNL     1      34.004 -19.509 -21.454  0.00  0.00    -0.001 C 
ATOM     28  C   UNL     1      36.255 -20.173 -20.879  0.00  0.00    -0.001 C 
BRANCH  26  29
ATOM     29  C   UNL     1      35.924 -18.248 -22.440  0.00  0.00    +0.234 C 
BRANCH  29  30
ATOM     30  O   UNL     1      35.308 -18.315 -23.721  0.00  0.00    -0.455 OA
BRANCH  30  32
ATOM     31  N   UNL     1      34.724 -16.100 -23.352  0.00  0.00    -0.210 NA
ATOM     32  C   UNL     1      34.684 -17.179 -24.166  0.00  0.00    +0.225 C 
ATOM     33  C   UNL     1      34.060 -17.197 -25.402  0.00  0.00    +0.058 C 
ATOM     34  C   UNL     1      33.435 -16.031 -25.832  0.00  0.00    +0.006 C 
ATOM     35  C   UNL     1      34.106 -14.985 -23.804  0.00  0.00    +0.102 C 
ATOM     36  C   UNL     1      33.454 -14.900 -25.024  0.00  0.00    +0.021 C 
ENDBRANCH  30  32
ENDBRANCH  29  30
ENDBRANCH  26  29
ENDBRANCH  22  23
ENDBRANCH   3  22
TORSDOF 11
ENDMDL
MODEL 4
REMARK VINA RESULT:     -12.0      4.153      5.712
REMARK  Name = 44123754
REMARK  11 active torsions:
REMARK  status: ('A' for Active; 'I' for Inactive)
REMARK    1  A    between atoms: C_3  and  C_22
REMARK    2  A    between atoms: C_4  and  C_7
REMARK    3  A    between atoms: N_6  and  C_15
REMARK    4  A    between atoms: C_8  and  N_12
REMARK    5  A    between atoms: C_15  and  O_16
REMARK    6  A    between atoms: O_16  and  P_17
REMARK    7  A    between atoms: P_17  and  O_20
REMARK    8  A    between atoms: C_22  and  C_23
REMARK    9  A    between atoms: C_26  and  C_29
REMARK   10  A    between atoms: C_29  and  O_30
REMARK   11  A    between atoms: O_30  and  C_32
REMARK                            x       y       z     vdW  Elec       q    Type
REMARK                         _______ _______ _______ _____ _____    ______ ____
ROOT
ATOM      1  O   UNL     1      33.922 -23.420 -18.439  0.00  0.00    -0.354 OA
ATOM      2  N   UNL     1      34.755 -22.902 -19.423  0.00  0.00    -0.081 NA
ATOM      3  C   UNL     1      35.727 -22.272 -18.758  0.00  0.00    +0.105 C 
ATOM      4  C   UNL     1      34.413 -23.090 -17.217  0.00  0.00    +0.175 C 
ATOM      5  C   UNL     1      35.562 -22.358 -17.364  0.00  0.00    +0.058 C 
ENDROOT
BRANCH   4   7
ATOM      6  N   UNL     1      31.607 -23.825 -14.925  0.00  0.00    -0.266 N 
ATOM      7  C   UNL     1      33.649 -23.564 -16.086  0.00  0.00    +0.048 C 
ATOM      8  C   UNL     1      32.278 -23.368 -15.991  0.00  0.00    +0.156 C 
ATOM      9  C   UNL     1      34.302 -24.237 -15.059  0.00  0.00    +0.003 C 
ATOM     10  C   UNL     1      32.212 -24.476 -13.923  0.00  0.00    +0.064 C 
ATOM     11  C   UNL     1      33.580 -24.700 -13.963  0.00  0.00    +0.016 C 
BRANCH   8  12
ATOM     12  N   UNL     1      31.577 -22.689 -17.012  0.00  0.00    -0.303 NA
ATOM     13  H   UNL     1      31.707 -21.721 -17.138  0.00  0.00    +0.121 HD
ATOM     14  H   UNL     1      30.959 -23.185 -17.596  0.00  0.00    +0.121 HD
ENDBRANCH   8  12
BRANCH   6  15
ATOM     15  C   UNL     1      30.160 -23.618 -14.826  0.00  0.00    +0.251 C 
BRANCH  15  16
ATOM     16  O   UNL     1      29.532 -24.272 -15.920  0.00  0.00    -0.250 OA
BRANCH  16  17
ATOM     17  P   UNL     1      28.168 -23.635 -16.555  0.00  0.00    +0.504 P 
ATOM     18  O   UNL     1      27.260 -23.157 -15.443  0.00  0.00    -0.225 OA
ATOM     19  O   UNL     1      27.648 -24.578 -17.618  0.00  0.00    -0.116 OA
BRANCH  17  20
ATOM     20  O   UNL     1      28.805 -22.330 -17.303  0.00  0.00    -0.301 OA
ATOM     21  H   UNL     1      28.911 -21.609 -16.662  0.00  0.00    +0.222 HD
ENDBRANCH  17  20
ENDBRANCH  16  17
ENDBRANCH  15  16
ENDBRANCH   6  15
ENDBRANCH   4   7
BRANCH   3  22
ATOM     22  C   UNL     1      36.803 -21.594 -19.497  0.00  0.00    +0.075 C 
BRANCH  22  23
ATOM     23  C   UNL     1      36.327 -20.527 -20.475  0.00  0.00    -0.016 C 
ATOM     24  C   UNL     1      37.216 -19.555 -20.934  0.00  0.00    -0.004 C 
ATOM     25  C   UNL     1      35.002 -20.524 -20.913  0.00  0.00    -0.004 C 
ATOM     26  C   UNL     1      35.455 -18.575 -22.267  0.00  0.00    +0.021 C 
ATOM     27  C   UNL     1      36.780 -18.578 -21.829  0.00  0.00    -0.001 C 
ATOM     28  C   UNL     1      34.567 -19.547 -21.808  0.00  0.00    -0.001 C 
BRANCH  26  29
ATOM     29  C   UNL     1      34.990 -17.532 -23.226  0.00  0.00    +0.234 C 
BRANCH  29  30
ATOM     30  O   UNL     1      35.495 -16.264 -22.827  0.00  0.00    -0.455 OA
BRANCH  30  32
ATOM     31  N   UNL     1      34.038 -14.761 -23.828  0.00  0.00    -0.210 NA
ATOM     32  C   UNL     1      34.583 -15.251 -22.692  0.00  0.00    +0.225 C 
ATOM     33  C   UNL     1      34.271 -14.793 -21.422  0.00  0.00    +0.058 C 
ATOM     34  C   UNL     1      33.340 -13.765 -21.311  0.00  0.00    +0.006 C 
ATOM     35  C   UNL     1      33.138 -13.764 -23.681  0.00  0.00    +0.102 C 
ATOM     36  C   UNL     1      32.758 -13.236 -22.458  0.00  0.00    +0.021 C 
ENDBRANCH  30  32
ENDBRANCH  29  30
ENDBRANCH  26  29
ENDBRANCH  22  23
ENDBRANCH   3  22
TORSDOF 11
ENDMDL
MODEL 5
REMARK VINA RESULT:     -12.0      5.965     12.305
REMARK  Name = 44123754
REMARK  11 active torsions:
REMARK  status: ('A' for Active; 'I' for Inactive)
REMARK    1  A    between atoms: C_3  and  C_22
REMARK    2  A    between atoms: C_4  and  C_7
REMARK    3  A    between atoms: N_6  and  C_15
REMARK    4  A    between atoms: C_8  and  N_12
REMARK    5  A    between atoms: C_15  and  O_16
REMARK    6  A    between atoms: O_16  and  P_17
REMARK    7  A    between atoms: P_17  and  O_20
REMARK    8  A    between atoms: C_22  and  C_23
REMARK    9  A    between atoms: C_26  and  C_29
REMARK   10  A    between atoms: C_29  and  O_30
REMARK   11  A    between atoms: O_30  and  C_32
REMARK                            x       y       z     vdW  Elec       q    Type
REMARK                         _______ _______ _______ _____ _____    ______ ____
ROOT
ATOM      1  O   UNL     1      35.465 -16.874 -21.484  0.00  0.00    -0.354 OA
ATOM      2  N   UNL     1      36.044 -17.859 -20.692  0.00  0.00    -0.081 NA
ATOM      3  C   UNL     1      36.082 -18.946 -21.466  0.00  0.00    +0.105 C 
ATOM      4  C   UNL     1      35.173 -17.394 -22.704  0.00  0.00    +0.175 C 
ATOM      5  C   UNL     1      35.547 -18.711 -22.745  0.00  0.00    +0.058 C 
ENDROOT
BRANCH   4   7
ATOM      6  N   UNL     1      33.571 -14.402 -24.169  0.00  0.00    -0.266 N 
ATOM      7  C   UNL     1      34.562 -16.482 -23.642  0.00  0.00    +0.048 C 
ATOM      8  C   UNL     1      34.132 -15.217 -23.266  0.00  0.00    +0.156 C 
ATOM      9  C   UNL     1      34.398 -16.878 -24.965  0.00  0.00    +0.003 C 
ATOM     10  C   UNL     1      33.401 -14.759 -25.449  0.00  0.00    +0.064 C 
ATOM     11  C   UNL     1      33.811 -16.011 -25.882  0.00  0.00    +0.016 C 
BRANCH   8  12
ATOM     12  N   UNL     1      34.280 -14.776 -21.933  0.00  0.00    -0.303 NA
ATOM     13  H   UNL     1      34.289 -15.429 -21.196  0.00  0.00    +0.121 HD
ATOM     14  H   UNL     1      34.375 -13.815 -21.741  0.00  0.00    +0.121 HD
ENDBRANCH   8  12
BRANCH   6  15
ATOM     15  C   UNL     1      33.118 -13.067 -23.771  0.00  0.00    +0.251 C 
BRANCH  15  16
ATOM     16  O   UNL     1      34.247 -12.209 -23.693  0.00  0.00    -0.250 OA
BRANCH  16  17
ATOM     17  P   UNL     1      34.288 -10.857 -24.610  0.00  0.00    +0.504 P 
ATOM     18  O   UNL     1      33.058 -10.018 -24.342  0.00  0.00    -0.225 OA
ATOM     19  O   UNL     1      34.655 -11.250 -26.025  0.00  0.00    -0.116 OA
BRANCH  17  20
ATOM     20  O   UNL     1      35.580 -10.117 -23.938  0.00  0.00    -0.301 OA
ATOM     21  H   UNL     1      36.380 -10.636 -24.117  0.00  0.00    +0.222 HD
ENDBRANCH  17  20
ENDBRANCH  16  17
ENDBRANCH  15  16
ENDBRANCH   6  15
ENDBRANCH   4   7
BRANCH   3  22
ATOM     22  C   UNL     1      36.644 -20.202 -20.942  0.00  0.00    +0.075 C 
BRANCH  22  23
ATOM     23  C   UNL     1      35.695 -21.001 -20.058  0.00  0.00    -0.016 C 
ATOM     24  C   UNL     1      34.325 -20.996 -20.322  0.00  0.00    -0.004 C 
ATOM     25  C   UNL     1      36.195 -21.738 -18.984  0.00  0.00    -0.004 C 
ATOM     26  C   UNL     1      33.956 -22.464 -18.439  0.00  0.00    +0.021 C 
ATOM     27  C   UNL     1      33.456 -21.726 -19.513  0.00  0.00    -0.001 C 
ATOM     28  C   UNL     1      35.326 -22.469 -18.175  0.00  0.00    -0.001 C 
BRANCH  26  29
ATOM     29  C   UNL     1      33.027 -23.247 -17.576  0.00  0.00    +0.234 C 
BRANCH  29  30
ATOM     30  O   UNL     1      31.719 -22.697 -17.669  0.00  0.00    -0.455 OA
BRANCH  30  32
ATOM     31  N   UNL     1      29.486 -22.860 -17.059  0.00  0.00    -0.210 NA
ATOM     32  C   UNL     1      30.769 -23.217 -16.828  0.00  0.00    +0.225 C 
ATOM     33  C   UNL     1      31.168 -24.065 -15.808  0.00  0.00    +0.058 C 
ATOM     34  C   UNL     1      30.185 -24.581 -14.969  0.00  0.00    +0.006 C 
ATOM     35  C   UNL     1      28.558 -23.382 -16.224  0.00  0.00    +0.102 C 
ATOM     36  C   UNL     1      28.853 -24.238 -15.175  0.00  0.00    +0.021 C 
ENDBRANCH  30  32
ENDBRANCH  29  30
ENDBRANCH  26  29
ENDBRANCH  22  23
ENDBRANCH   3  22
TORSDOF 11
ENDMDL
MODEL 6
REMARK VINA RESULT:     -11.6      2.152      3.583
REMARK  Name = 44123754
REMARK  11 active torsions:
REMARK  status: ('A' for Active; 'I' for Inactive)
REMARK    1  A    between atoms: C_3  and  C_22
REMARK    2  A    between atoms: C_4  and  C_7
REMARK    3  A    between atoms: N_6  and  C_15
REMARK    4  A    between atoms: C_8  and  N_12
REMARK    5  A    between atoms: C_15  and  O_16
REMARK    6  A    between atoms: O_16  and  P_17
REMARK    7  A    between atoms: P_17  and  O_20
REMARK    8  A    between atoms: C_22  and  C_23
REMARK    9  A    between atoms: C_26  and  C_29
REMARK   10  A    between atoms: C_29  and  O_30
REMARK   11  A    between atoms: O_30  and  C_32
REMARK                            x       y       z     vdW  Elec       q    Type
REMARK                         _______ _______ _______ _____ _____    ______ ____
ROOT
ATOM      1  O   UNL     1      33.226 -21.715 -19.213  0.00  0.00    -0.354 OA
ATOM      2  N   UNL     1      33.842 -21.091 -20.291  0.00  0.00    -0.081 NA
ATOM      3  C   UNL     1      35.149 -21.296 -20.109  0.00  0.00    +0.105 C 
ATOM      4  C   UNL     1      34.174 -22.274 -18.418  0.00  0.00    +0.175 C 
ATOM      5  C   UNL     1      35.416 -22.036 -18.944  0.00  0.00    +0.058 C 
ENDROOT
BRANCH   4   7
ATOM      6  N   UNL     1      34.038 -24.143 -15.231  0.00  0.00    -0.266 N 
ATOM      7  C   UNL     1      33.682 -22.964 -17.248  0.00  0.00    +0.048 C 
ATOM      8  C   UNL     1      34.537 -23.512 -16.303  0.00  0.00    +0.156 C 
ATOM      9  C   UNL     1      32.309 -23.084 -17.059  0.00  0.00    +0.003 C 
ATOM     10  C   UNL     1      32.720 -24.274 -15.025  0.00  0.00    +0.064 C 
ATOM     11  C   UNL     1      31.818 -23.746 -15.937  0.00  0.00    +0.016 C 
BRANCH   8  12
ATOM     12  N   UNL     1      35.937 -23.412 -16.457  0.00  0.00    -0.303 NA
ATOM     13  H   UNL     1      36.365 -22.526 -16.498  0.00  0.00    +0.121 HD
ATOM     14  H   UNL     1      36.484 -24.227 -16.523  0.00  0.00    +0.121 HD
ENDBRANCH   8  12
BRANCH   6  15
ATOM     15  C   UNL     1      34.941 -24.722 -14.234  0.00  0.00    +0.251 C 
BRANCH  15  16
ATOM     16  O   UNL     1      35.545 -25.883 -14.787  0.00  0.00    -0.250 OA
BRANCH  16  17
ATOM     17  P   UNL     1      37.136 -26.155 -14.533  0.00  0.00    +0.504 P 
ATOM     18  O   UNL     1      37.312 -27.139 -13.397  0.00  0.00    -0.225 OA
ATOM     19  O   UNL     1      37.852 -24.822 -14.512  0.00  0.00    -0.116 OA
BRANCH  17  20
ATOM     20  O   UNL     1      37.506 -26.907 -15.935  0.00  0.00    -0.301 OA
ATOM     21  H   UNL     1      37.429 -26.278 -16.670  0.00  0.00    +0.222 HD
ENDBRANCH  17  20
ENDBRANCH  16  17
ENDBRANCH  15  16
ENDBRANCH   6  15
ENDBRANCH   4   7
BRANCH   3  22
ATOM     22  C   UNL     1      36.119 -20.764 -21.080  0.00  0.00    +0.075 C 
BRANCH  22  23
ATOM     23  C   UNL     1      35.699 -19.459 -21.746  0.00  0.00    -0.016 C 
ATOM     24  C   UNL     1      35.227 -19.466 -23.058  0.00  0.00    -0.004 C 
ATOM     25  C   UNL     1      35.785 -18.258 -21.042  0.00  0.00    -0.004 C 
ATOM     26  C   UNL     1      34.929 -17.071 -22.964  0.00  0.00    +0.021 C 
ATOM     27  C   UNL     1      34.843 -18.273 -23.668  0.00  0.00    -0.001 C 
ATOM     28  C   UNL     1      35.400 -17.064 -21.651  0.00  0.00    -0.001 C 
BRANCH  26  29
ATOM     29  C   UNL     1      34.515 -15.795 -23.615  0.00  0.00    +0.234 C 
BRANCH  29  30
ATOM     30  O   UNL     1      34.874 -14.700 -22.780  0.00  0.00    -0.455 OA
BRANCH  30  32
ATOM     31  N   UNL     1      33.598 -12.808 -23.196  0.00  0.00    -0.210 NA
ATOM     32  C   UNL     1      33.862 -13.862 -22.392  0.00  0.00    +0.225 C 
ATOM     33  C   UNL     1      33.175 -14.136 -21.220  0.00  0.00    +0.058 C 
ATOM     34  C   UNL     1      32.151 -13.271 -20.849  0.00  0.00    +0.006 C 
ATOM     35  C   UNL     1      32.595 -11.989 -22.803  0.00  0.00    +0.102 C 
ATOM     36  C   UNL     1      31.849 -12.175 -21.650  0.00  0.00    +0.021 C 
ENDBRANCH  30  32
ENDBRANCH  29  30
ENDBRANCH  26  29
ENDBRANCH  22  23
ENDBRANCH   3  22
TORSDOF 11
ENDMDL
MODEL 7
REMARK VINA RESULT:     -11.6      5.636     13.217
REMARK  Name = 44123754
REMARK  11 active torsions:
REMARK  status: ('A' for Active; 'I' for Inactive)
REMARK    1  A    between atoms: C_3  and  C_22
REMARK    2  A    between atoms: C_4  and  C_7
REMARK    3  A    between atoms: N_6  and  C_15
REMARK    4  A    between atoms: C_8  and  N_12
REMARK    5  A    between atoms: C_15  and  O_16
REMARK    6  A    between atoms: O_16  and  P_17
REMARK    7  A    between atoms: P_17  and  O_20
REMARK    8  A    between atoms: C_22  and  C_23
REMARK    9  A    between atoms: C_26  and  C_29
REMARK   10  A    between atoms: C_29  and  O_30
REMARK   11  A    between atoms: O_30  and  C_32
REMARK                            x       y       z     vdW  Elec       q    Type
REMARK                         _______ _______ _______ _____ _____    ______ ____
ROOT
ATOM      1  O   UNL     1      34.838 -14.484 -22.253  0.00  0.00    -0.354 OA
ATOM      2  N   UNL     1      35.227 -15.817 -22.312  0.00  0.00    -0.081 NA
ATOM      3  C   UNL     1      34.775 -16.257 -23.489  0.00  0.00    +0.105 C 
ATOM      4  C   UNL     1      34.168 -14.162 -23.389  0.00  0.00    +0.175 C 
ATOM      5  C   UNL     1      34.100 -15.256 -24.210  0.00  0.00    +0.058 C 
ENDROOT
BRANCH   4   7
ATOM      6  N   UNL     1      32.431 -10.985 -22.642  0.00  0.00    -0.266 N 
ATOM      7  C   UNL     1      33.699 -12.798 -23.472  0.00  0.00    +0.048 C 
ATOM      8  C   UNL     1      32.841 -12.256 -22.527  0.00  0.00    +0.156 C 
ATOM      9  C   UNL     1      34.119 -12.000 -24.532  0.00  0.00    +0.003 C 
ATOM     10  C   UNL     1      32.819 -10.195 -23.652  0.00  0.00    +0.064 C 
ATOM     11  C   UNL     1      33.676 -10.684 -24.627  0.00  0.00    +0.016 C 
BRANCH   8  12
ATOM     12  N   UNL     1      32.392 -13.032 -21.436  0.00  0.00    -0.303 NA
ATOM     13  H   UNL     1      32.530 -12.712 -20.515  0.00  0.00    +0.121 HD
ATOM     14  H   UNL     1      31.941 -13.891 -21.597  0.00  0.00    +0.121 HD
ENDBRANCH   8  12
BRANCH   6  15
ATOM     15  C   UNL     1      31.525 -10.414 -21.643  0.00  0.00    +0.251 C 
BRANCH  15  16
ATOM     16  O   UNL     1      31.540  -8.999 -21.773  0.00  0.00    -0.250 OA
BRANCH  16  17
ATOM     17  P   UNL     1      32.445  -8.111 -20.742  0.00  0.00    +0.504 P 
ATOM     18  O   UNL     1      33.763  -7.753 -21.395  0.00  0.00    -0.225 OA
ATOM     19  O   UNL     1      32.419  -8.778 -19.384  0.00  0.00    -0.116 OA
BRANCH  17  20
ATOM     20  O   UNL     1      31.521  -6.766 -20.664  0.00  0.00    -0.301 OA
ATOM     21  H   UNL     1      31.710  -6.291 -19.840  0.00  0.00    +0.222 HD
ENDBRANCH  17  20
ENDBRANCH  16  17
ENDBRANCH  15  16
ENDBRANCH   6  15
ENDBRANCH   4   7
BRANCH   3  22
ATOM     22  C   UNL     1      35.010 -17.653 -23.892  0.00  0.00    +0.075 C 
BRANCH  22  23
ATOM     23  C   UNL     1      35.303 -18.605 -22.739  0.00  0.00    -0.016 C 
ATOM     24  C   UNL     1      36.564 -18.612 -22.144  0.00  0.00    -0.004 C 
ATOM     25  C   UNL     1      34.308 -19.468 -22.277  0.00  0.00    -0.004 C 
ATOM     26  C   UNL     1      35.838 -20.347 -20.627  0.00  0.00    +0.021 C 
ATOM     27  C   UNL     1      36.832 -19.483 -21.088  0.00  0.00    -0.001 C 
ATOM     28  C   UNL     1      34.576 -20.339 -21.222  0.00  0.00    -0.001 C 
BRANCH  26  29
ATOM     29  C   UNL     1      36.124 -21.276 -19.497  0.00  0.00    +0.234 C 
BRANCH  29  30
ATOM     30  O   UNL     1      35.158 -22.320 -19.487  0.00  0.00    -0.455 OA
BRANCH  30  32
ATOM     31  N   UNL     1      35.599 -22.832 -17.267  0.00  0.00    -0.210 NA
ATOM     32  C   UNL     1      34.690 -22.717 -18.262  0.00  0.00    +0.225 C 
ATOM     33  C   UNL     1      33.337 -22.972 -18.110  0.00  0.00    +0.058 C 
ATOM     34  C   UNL     1      32.886 -23.372 -16.856  0.00  0.00    +0.006 C 
ATOM     35  C   UNL     1      35.124 -23.222 -16.062  0.00  0.00    +0.102 C 
ATOM     36  C   UNL     1      33.791 -23.501 -15.807  0.00  0.00    +0.021 C 
ENDBRANCH  30  32
ENDBRANCH  29  30
ENDBRANCH  26  29
ENDBRANCH  22  23
ENDBRANCH   3  22
TORSDOF 11
ENDMDL
MODEL 8
REMARK VINA RESULT:     -11.5      7.284     14.857
REMARK  Name = 44123754
REMARK  11 active torsions:
REMARK  status: ('A' for Active; 'I' for Inactive)
REMARK    1  A    between atoms: C_3  and  C_22
REMARK    2  A    between atoms: C_4  and  C_7
REMARK    3  A    between atoms: N_6  and  C_15
REMARK    4  A    between atoms: C_8  and  N_12
REMARK    5  A    between atoms: C_15  and  O_16
REMARK    6  A    between atoms: O_16  and  P_17
REMARK    7  A    between atoms: P_17  and  O_20
REMARK    8  A    between atoms: C_22  and  C_23
REMARK    9  A    between atoms: C_26  and  C_29
REMARK   10  A    between atoms: C_29  and  O_30
REMARK   11  A    between atoms: O_30  and  C_32
REMARK                            x       y       z     vdW  Elec       q    Type
REMARK                         _______ _______ _______ _____ _____    ______ ____
ROOT
ATOM      1  O   UNL     1      33.007 -12.507 -23.052  0.00  0.00    -0.354 OA
ATOM      2  N   UNL     1      32.925 -13.801 -23.553  0.00  0.00    -0.081 NA
ATOM      3  C   UNL     1      33.327 -13.706 -24.823  0.00  0.00    +0.105 C 
ATOM      4  C   UNL     1      33.453 -11.675 -24.029  0.00  0.00    +0.175 C 
ATOM      5  C   UNL     1      33.672 -12.389 -25.177  0.00  0.00    +0.058 C 
ENDROOT
BRANCH   4   7
ATOM      6  N   UNL     1      32.797  -8.341 -22.574  0.00  0.00    -0.266 N 
ATOM      7  C   UNL     1      33.591 -10.287 -23.653  0.00  0.00    +0.048 C 
ATOM      8  C   UNL     1      32.629  -9.630 -22.901  0.00  0.00    +0.156 C 
ATOM      9  C   UNL     1      34.722  -9.585 -24.057  0.00  0.00    +0.003 C 
ATOM     10  C   UNL     1      33.876  -7.641 -22.950  0.00  0.00    +0.064 C 
ATOM     11  C   UNL     1      34.870  -8.246 -23.704  0.00  0.00    +0.016 C 
BRANCH   8  12
ATOM     12  N   UNL     1      31.467 -10.307 -22.471  0.00  0.00    -0.303 NA
ATOM     13  H   UNL     1      30.861  -9.881 -21.821  0.00  0.00    +0.121 HD
ATOM     14  H   UNL     1      31.263 -11.203 -22.821  0.00  0.00    +0.121 HD
ENDBRANCH   8  12
BRANCH   6  15
ATOM     15  C   UNL     1      31.781  -7.648 -21.779  0.00  0.00    +0.251 C 
BRANCH  15  16
ATOM     16  O   UNL     1      31.061  -6.767 -22.631  0.00  0.00    -0.250 OA
BRANCH  16  17
ATOM     17  P   UNL     1      31.289  -5.155 -22.491  0.00  0.00    +0.504 P 
ATOM     18  O   UNL     1      29.981  -4.481 -22.141  0.00  0.00    -0.225 OA
ATOM     19  O   UNL     1      32.103  -4.682 -23.676  0.00  0.00    -0.116 OA
BRANCH  17  20
ATOM     20  O   UNL     1      32.254  -5.135 -21.173  0.00  0.00    -0.301 OA
ATOM     21  H   UNL     1      31.708  -5.164 -20.372  0.00  0.00    +0.222 HD
ENDBRANCH  17  20
ENDBRANCH  16  17
ENDBRANCH  15  16
ENDBRANCH   6  15
ENDBRANCH   4   7
BRANCH   3  22
ATOM     22  C   UNL     1      33.366 -14.907 -25.673  0.00  0.00    +0.075 C 
BRANCH  22  23
ATOM     23  C   UNL     1      33.890 -16.158 -24.979  0.00  0.00    -0.016 C 
ATOM     24  C   UNL     1      34.732 -16.040 -23.873  0.00  0.00    -0.004 C 
ATOM     25  C   UNL     1      33.527 -17.420 -25.449  0.00  0.00    -0.004 C 
ATOM     26  C   UNL     1      34.849 -18.448 -23.707  0.00  0.00    +0.021 C 
ATOM     27  C   UNL     1      35.212 -17.185 -23.237  0.00  0.00    -0.001 C 
ATOM     28  C   UNL     1      34.007 -18.565 -24.813  0.00  0.00    -0.001 C 
BRANCH  26  29
ATOM     29  C   UNL     1      35.360 -19.672 -23.026  0.00  0.00    +0.234 C 
BRANCH  29  30
ATOM     30  O   UNL     1      35.530 -19.404 -21.639  0.00  0.00    -0.455 OA
BRANCH  30  32
ATOM     31  N   UNL     1      35.981 -21.028 -20.045  0.00  0.00    -0.210 NA
ATOM     32  C   UNL     1      35.060 -20.350 -20.766  0.00  0.00    +0.225 C 
ATOM     33  C   UNL     1      33.694 -20.554 -20.669  0.00  0.00    +0.058 C 
ATOM     34  C   UNL     1      33.241 -21.518 -19.774  0.00  0.00    +0.006 C 
ATOM     35  C   UNL     1      35.504 -21.957 -19.185  0.00  0.00    +0.102 C 
ATOM     36  C   UNL     1      34.158 -22.237 -19.014  0.00  0.00    +0.021 C 
ENDBRANCH  30  32
ENDBRANCH  29  30
ENDBRANCH  26  29
ENDBRANCH  22  23
ENDBRANCH   3  22
TORSDOF 11
ENDMDL
MODEL 9
REMARK VINA RESULT:     -11.5      2.367      4.407
REMARK  Name = 44123754
REMARK  11 active torsions:
REMARK  status: ('A' for Active; 'I' for Inactive)
REMARK    1  A    between atoms: C_3  and  C_22
REMARK    2  A    between atoms: C_4  and  C_7
REMARK    3  A    between atoms: N_6  and  C_15
REMARK    4  A    between atoms: C_8  and  N_12
REMARK    5  A    between atoms: C_15  and  O_16
REMARK    6  A    between atoms: O_16  and  P_17
REMARK    7  A    between atoms: P_17  and  O_20
REMARK    8  A    between atoms: C_22  and  C_23
REMARK    9  A    between atoms: C_26  and  C_29
REMARK   10  A    between atoms: C_29  and  O_30
REMARK   11  A    between atoms: O_30  and  C_32
REMARK                            x       y       z     vdW  Elec       q    Type
REMARK                         _______ _______ _______ _____ _____    ______ ____
ROOT
ATOM      1  O   UNL     1      36.434 -21.164 -19.135  0.00  0.00    -0.354 OA
ATOM      2  N   UNL     1      36.769 -20.434 -20.270  0.00  0.00    -0.081 NA
ATOM      3  C   UNL     1      35.666 -20.441 -21.024  0.00  0.00    +0.105 C 
ATOM      4  C   UNL     1      35.148 -21.587 -19.238  0.00  0.00    +0.175 C 
ATOM      5  C   UNL     1      34.614 -21.154 -20.422  0.00  0.00    +0.058 C 
ENDROOT
BRANCH   4   7
ATOM      6  N   UNL     1      34.980 -23.482 -16.069  0.00  0.00    -0.266 N 
ATOM      7  C   UNL     1      34.655 -22.365 -18.125  0.00  0.00    +0.048 C 
ATOM      8  C   UNL     1      35.480 -22.762 -17.083  0.00  0.00    +0.156 C 
ATOM      9  C   UNL     1      33.313 -22.728 -18.094  0.00  0.00    +0.003 C 
ATOM     10  C   UNL     1      33.692 -23.846 -16.013  0.00  0.00    +0.064 C 
ATOM     11  C   UNL     1      32.821 -23.477 -17.028  0.00  0.00    +0.016 C 
BRANCH   8  12
ATOM     12  N   UNL     1      36.848 -22.414 -17.076  0.00  0.00    -0.303 NA
ATOM     13  H   UNL     1      37.477 -22.878 -17.675  0.00  0.00    +0.121 HD
ATOM     14  H   UNL     1      37.172 -21.707 -16.474  0.00  0.00    +0.121 HD
ENDBRANCH   8  12
BRANCH   6  15
ATOM     15  C   UNL     1      35.852 -23.901 -14.968  0.00  0.00    +0.251 C 
BRANCH  15  16
ATOM     16  O   UNL     1      36.626 -25.011 -15.399  0.00  0.00    -0.250 OA
BRANCH  16  17
ATOM     17  P   UNL     1      38.097 -25.266 -14.735  0.00  0.00    +0.504 P 
ATOM     18  O   UNL     1      38.619 -26.624 -15.151  0.00  0.00    -0.225 OA
ATOM     19  O   UNL     1      38.035 -24.883 -13.272  0.00  0.00    -0.116 OA
BRANCH  17  20
ATOM     20  O   UNL     1      38.950 -24.118 -15.524  0.00  0.00    -0.301 OA
ATOM     21  H   UNL     1      38.448 -23.288 -15.529  0.00  0.00    +0.222 HD
ENDBRANCH  17  20
ENDBRANCH  16  17
ENDBRANCH  15  16
ENDBRANCH   6  15
ENDBRANCH   4   7
BRANCH   3  22
ATOM     22  C   UNL     1      35.660 -19.750 -22.323  0.00  0.00    +0.075 C 
BRANCH  22  23
ATOM     23  C   UNL     1      35.369 -18.257 -22.246  0.00  0.00    -0.016 C 
ATOM     24  C   UNL     1      35.212 -17.516 -23.417  0.00  0.00    -0.004 C 
ATOM     25  C   UNL     1      35.258 -17.631 -21.004  0.00  0.00    -0.004 C 
ATOM     26  C   UNL     1      34.834 -15.523 -22.105  0.00  0.00    +0.021 C 
ATOM     27  C   UNL     1      34.945 -16.149 -23.347  0.00  0.00    -0.001 C 
ATOM     28  C   UNL     1      34.991 -16.264 -20.934  0.00  0.00    -0.001 C 
BRANCH  26  29
ATOM     29  C   UNL     1      34.547 -14.062 -22.030  0.00  0.00    +0.234 C 
BRANCH  29  30
ATOM     30  O   UNL     1      33.355 -13.777 -22.752  0.00  0.00    -0.455 OA
BRANCH  30  32
ATOM     31  N   UNL     1      33.081 -11.525 -23.241  0.00  0.00    -0.210 NA
ATOM     32  C   UNL     1      32.736 -12.586 -22.477  0.00  0.00    +0.225 C 
ATOM     33  C   UNL     1      31.805 -12.534 -21.452  0.00  0.00    +0.058 C 
ATOM     34  C   UNL     1      31.189 -11.314 -21.194  0.00  0.00    +0.006 C 
ATOM     35  C   UNL     1      32.461 -10.357 -22.962  0.00  0.00    +0.102 C 
ATOM     36  C   UNL     1      31.518 -10.200 -21.959  0.00  0.00    +0.021 C 
ENDBRANCH  30  32
ENDBRANCH  29  30
ENDBRANCH  26  29
ENDBRANCH  22  23
ENDBRANCH   3  22
TORSDOF 11
ENDMDL
