MODEL 1
REMARK VINA RESULT:     -11.9      0.000      0.000
REMARK  Name = 9865515
REMARK  6 active torsions:
REMARK  status: ('A' for Active; 'I' for Inactive)
REMARK    1  A    between atoms: C_1  and  C_20
REMARK    2  A    between atoms: C_2  and  C_9
REMARK    3  A    between atoms: N_8  and  C_11
REMARK    4  A    between atoms: C_12  and  N_17
REMARK    5  A    between atoms: C_20  and  N_21
REMARK    6  A    between atoms: C_25  and  C_30
REMARK                            x       y       z     vdW  Elec       q    Type
REMARK                         _______ _______ _______ _____ _____    ______ ____
ROOT
ATOM      1  C   UNL     1      34.903 -20.380 -20.738  0.00  0.00    -0.002 C 
ATOM      2  C   UNL     1      33.943 -22.258 -18.913  0.00  0.00    +0.054 C 
ATOM      3  C   UNL     1      33.529 -20.558 -20.578  0.00  0.00    -0.002 C 
ATOM      4  C   UNL     1      35.797 -21.141 -19.986  0.00  0.00    -0.002 C 
ATOM      5  C   UNL     1      33.048 -21.497 -19.666  0.00  0.00    +0.004 C 
ATOM      6  C   UNL     1      35.317 -22.081 -19.074  0.00  0.00    +0.004 C 
ENDROOT
BRANCH   2   9
ATOM      7  O   UNL     1      33.844 -24.413 -18.040  0.00  0.00    -0.270 OA
ATOM      8  N   UNL     1      32.543 -22.758 -17.002  0.00  0.00    -0.279 N 
ATOM      9  C   UNL     1      33.442 -23.240 -17.964  0.00  0.00    +0.250 C 
ATOM     10  H   UNL     1      32.318 -21.803 -17.069  0.00  0.00    +0.155 HD
BRANCH   8  11
ATOM     11  C   UNL     1      31.917 -23.468 -15.947  0.00  0.00    +0.064 C 
ATOM     12  C   UNL     1      30.544 -23.652 -15.947  0.00  0.00    +0.055 C 
ATOM     13  C   UNL     1      32.712 -23.965 -14.927  0.00  0.00    +0.016 C 
ATOM     14  C   UNL     1      29.950 -24.353 -14.897  0.00  0.00    +0.015 C 
ATOM     15  C   UNL     1      32.118 -24.666 -13.878  0.00  0.00    +0.001 C 
ATOM     16  C   UNL     1      30.736 -24.860 -13.863  0.00  0.00    +0.001 C 
BRANCH  12  17
ATOM     17  N   UNL     1      29.729 -23.149 -16.984  0.00  0.00    -0.356 N 
ATOM     18  H   UNL     1      28.777 -22.963 -16.816  0.00  0.00    +0.142 HD
ATOM     19  H   UNL     1      30.112 -22.983 -17.876  0.00  0.00    +0.142 HD
ENDBRANCH  12  17
ENDBRANCH   8  11
ENDBRANCH   2   9
BRANCH   1  20
ATOM     20  C   UNL     1      35.417 -19.374 -21.713  0.00  0.00    +0.124 C 
BRANCH  20  21
ATOM     21  N   UNL     1      35.021 -19.712 -23.063  0.00  0.00    -0.264 N 
ATOM     22  N   UNL     1      34.490 -17.486 -23.583  0.00  0.00    -0.338 NA
ATOM     23  N   UNL     1      34.226 -19.236 -25.218  0.00  0.00    -0.170 NA
ATOM     24  C   UNL     1      34.565 -18.783 -23.982  0.00  0.00    +0.145 C 
ATOM     25  C   UNL     1      34.042 -16.609 -24.504  0.00  0.00    +0.147 C 
ATOM     26  C   UNL     1      33.672 -16.963 -25.785  0.00  0.00    +0.055 C 
ATOM     27  C   UNL     1      33.786 -18.304 -26.090  0.00  0.00    +0.114 C 
ATOM     28  H   UNL     1      35.079 -20.654 -23.342  0.00  0.00    +0.160 HD
BRANCH  25  30
ATOM     29  N   UNL     1      33.387 -12.940 -24.538  0.00  0.00    -0.242 NA
ATOM     30  C   UNL     1      33.970 -15.237 -24.060  0.00  0.00    +0.050 C 
ATOM     31  C   UNL     1      34.391 -14.872 -22.785  0.00  0.00    +0.006 C 
ATOM     32  C   UNL     1      33.480 -14.241 -24.890  0.00  0.00    +0.101 C 
ATOM     33  C   UNL     1      34.310 -13.542 -22.387  0.00  0.00    +0.021 C 
ATOM     34  C   UNL     1      33.805 -12.623 -23.292  0.00  0.00    +0.099 C 
ENDBRANCH  25  30
ENDBRANCH  20  21
ENDBRANCH   1  20
TORSDOF 6
ENDMDL
MODEL 2
REMARK VINA RESULT:     -11.6      2.261      3.279
REMARK  Name = 9865515
REMARK  6 active torsions:
REMARK  status: ('A' for Active; 'I' for Inactive)
REMARK    1  A    between atoms: C_1  and  C_20
REMARK    2  A    between atoms: C_2  and  C_9
REMARK    3  A    between atoms: N_8  and  C_11
REMARK    4  A    between atoms: C_12  and  N_17
REMARK    5  A    between atoms: C_20  and  N_21
REMARK    6  A    between atoms: C_25  and  C_30
REMARK                            x       y       z     vdW  Elec       q    Type
REMARK                         _______ _______ _______ _____ _____    ______ ____
ROOT
ATOM      1  C   UNL     1      35.790 -18.877 -21.527  0.00  0.00    -0.002 C 
ATOM      2  C   UNL     1      35.390 -21.098 -19.888  0.00  0.00    +0.054 C 
ATOM      3  C   UNL     1      36.857 -19.413 -20.805  0.00  0.00    -0.002 C 
ATOM      4  C   UNL     1      34.524 -19.452 -21.429  0.00  0.00    -0.002 C 
ATOM      5  C   UNL     1      36.657 -20.523 -19.985  0.00  0.00    +0.004 C 
ATOM      6  C   UNL     1      34.324 -20.563 -20.610  0.00  0.00    +0.004 C 
ENDROOT
BRANCH   2   9
ATOM      7  O   UNL     1      34.713 -23.294 -19.524  0.00  0.00    -0.270 OA
ATOM      8  N   UNL     1      35.559 -22.099 -17.690  0.00  0.00    -0.279 N 
ATOM      9  C   UNL     1      35.181 -22.255 -19.031  0.00  0.00    +0.250 C 
ATOM     10  H   UNL     1      35.914 -21.215 -17.446  0.00  0.00    +0.155 HD
BRANCH   8  11
ATOM     11  C   UNL     1      35.496 -23.050 -16.641  0.00  0.00    +0.064 C 
ATOM     12  C   UNL     1      36.650 -23.436 -15.978  0.00  0.00    +0.055 C 
ATOM     13  C   UNL     1      34.260 -23.576 -16.304  0.00  0.00    +0.016 C 
ATOM     14  C   UNL     1      36.563 -24.374 -14.948  0.00  0.00    +0.015 C 
ATOM     15  C   UNL     1      34.173 -24.513 -15.275  0.00  0.00    +0.001 C 
ATOM     16  C   UNL     1      35.325 -24.912 -14.597  0.00  0.00    +0.001 C 
BRANCH  12  17
ATOM     17  N   UNL     1      37.913 -22.903 -16.316  0.00  0.00    -0.356 N 
ATOM     18  H   UNL     1      38.300 -23.078 -17.204  0.00  0.00    +0.142 HD
ATOM     19  H   UNL     1      38.407 -22.355 -15.663  0.00  0.00    +0.142 HD
ENDBRANCH  12  17
ENDBRANCH   8  11
ENDBRANCH   2   9
BRANCH   1  20
ATOM     20  C   UNL     1      36.004 -17.690 -22.405  0.00  0.00    +0.124 C 
BRANCH  20  21
ATOM     21  N   UNL     1      35.477 -17.927 -23.732  0.00  0.00    -0.264 N 
ATOM     22  N   UNL     1      34.417 -15.835 -23.804  0.00  0.00    -0.338 NA
ATOM     23  N   UNL     1      34.266 -17.363 -25.660  0.00  0.00    -0.170 NA
ATOM     24  C   UNL     1      34.696 -17.014 -24.419  0.00  0.00    +0.145 C 
ATOM     25  C   UNL     1      33.654 -14.969 -24.502  0.00  0.00    +0.147 C 
ATOM     26  C   UNL     1      33.166 -15.225 -25.768  0.00  0.00    +0.055 C 
ATOM     27  C   UNL     1      33.507 -16.450 -26.303  0.00  0.00    +0.114 C 
ATOM     28  H   UNL     1      35.685 -18.784 -24.168  0.00  0.00    +0.160 HD
BRANCH  25  30
ATOM     29  N   UNL     1      32.341 -12.565 -21.976  0.00  0.00    -0.242 NA
ATOM     30  C   UNL     1      33.369 -13.722 -23.832  0.00  0.00    +0.050 C 
ATOM     31  C   UNL     1      33.815 -12.510 -24.350  0.00  0.00    +0.006 C 
ATOM     32  C   UNL     1      32.643 -13.695 -22.652  0.00  0.00    +0.101 C 
ATOM     33  C   UNL     1      33.524 -11.326 -23.682  0.00  0.00    +0.021 C 
ATOM     34  C   UNL     1      32.790 -11.407 -22.509  0.00  0.00    +0.099 C 
ENDBRANCH  25  30
ENDBRANCH  20  21
ENDBRANCH   1  20
TORSDOF 6
ENDMDL
MODEL 3
REMARK VINA RESULT:     -11.2      3.076     10.855
REMARK  Name = 9865515
REMARK  6 active torsions:
REMARK  status: ('A' for Active; 'I' for Inactive)
REMARK    1  A    between atoms: C_1  and  C_20
REMARK    2  A    between atoms: C_2  and  C_9
REMARK    3  A    between atoms: N_8  and  C_11
REMARK    4  A    between atoms: C_12  and  N_17
REMARK    5  A    between atoms: C_20  and  N_21
REMARK    6  A    between atoms: C_25  and  C_30
REMARK                            x       y       z     vdW  Elec       q    Type
REMARK                         _______ _______ _______ _____ _____    ______ ____
ROOT
ATOM      1  C   UNL     1      35.127 -19.833 -21.304  0.00  0.00    -0.002 C 
ATOM      2  C   UNL     1      34.939 -17.700 -23.091  0.00  0.00    +0.054 C 
ATOM      3  C   UNL     1      34.565 -20.028 -22.565  0.00  0.00    -0.002 C 
ATOM      4  C   UNL     1      35.596 -18.572 -20.936  0.00  0.00    -0.002 C 
ATOM      5  C   UNL     1      34.469 -18.961 -23.458  0.00  0.00    +0.004 C 
ATOM      6  C   UNL     1      35.502 -17.506 -21.829  0.00  0.00    +0.004 C 
ENDROOT
BRANCH   2   9
ATOM      7  O   UNL     1      35.313 -16.710 -25.162  0.00  0.00    -0.270 OA
ATOM      8  N   UNL     1      34.172 -15.449 -23.545  0.00  0.00    -0.279 N 
ATOM      9  C   UNL     1      34.838 -16.587 -24.022  0.00  0.00    +0.250 C 
ATOM     10  H   UNL     1      33.851 -15.500 -22.616  0.00  0.00    +0.155 HD
BRANCH   8  11
ATOM     11  C   UNL     1      33.903 -14.236 -24.225  0.00  0.00    +0.064 C 
ATOM     12  C   UNL     1      33.320 -14.254 -25.482  0.00  0.00    +0.055 C 
ATOM     13  C   UNL     1      34.238 -13.045 -23.602  0.00  0.00    +0.016 C 
ATOM     14  C   UNL     1      33.065 -13.046 -26.133  0.00  0.00    +0.015 C 
ATOM     15  C   UNL     1      33.983 -11.838 -24.253  0.00  0.00    +0.001 C 
ATOM     16  C   UNL     1      33.397 -11.839 -25.519  0.00  0.00    +0.001 C 
BRANCH  12  17
ATOM     17  N   UNL     1      32.976 -15.464 -26.122  0.00  0.00    -0.356 N 
ATOM     18  H   UNL     1      33.526 -16.269 -25.984  0.00  0.00    +0.142 HD
ATOM     19  H   UNL     1      32.183 -15.505 -26.706  0.00  0.00    +0.142 HD
ENDBRANCH  12  17
ENDBRANCH   8  11
ENDBRANCH   2   9
BRANCH   1  20
ATOM     20  C   UNL     1      35.230 -20.975 -20.348  0.00  0.00    +0.124 C 
BRANCH  20  21
ATOM     21  N   UNL     1      33.921 -21.380 -19.883  0.00  0.00    -0.264 N 
ATOM     22  N   UNL     1      34.805 -22.483 -18.010  0.00  0.00    -0.338 NA
ATOM     23  N   UNL     1      32.430 -22.434 -18.410  0.00  0.00    -0.170 NA
ATOM     24  C   UNL     1      33.713 -22.121 -18.733  0.00  0.00    +0.145 C 
ATOM     25  C   UNL     1      34.566 -23.204 -16.896  0.00  0.00    +0.147 C 
ATOM     26  C   UNL     1      33.303 -23.575 -16.479  0.00  0.00    +0.055 C 
ATOM     27  C   UNL     1      32.262 -23.158 -17.283  0.00  0.00    +0.114 C 
ATOM     28  H   UNL     1      33.136 -21.113 -20.414  0.00  0.00    +0.160 HD
BRANCH  25  30
ATOM     29  N   UNL     1      38.051 -23.155 -15.577  0.00  0.00    -0.242 NA
ATOM     30  C   UNL     1      35.739 -23.578 -16.142  0.00  0.00    +0.050 C 
ATOM     31  C   UNL     1      35.721 -24.671 -15.282  0.00  0.00    +0.006 C 
ATOM     32  C   UNL     1      36.919 -22.859 -16.252  0.00  0.00    +0.101 C 
ATOM     33  C   UNL     1      36.867 -25.007 -14.571  0.00  0.00    +0.021 C 
ATOM     34  C   UNL     1      37.996 -24.224 -14.751  0.00  0.00    +0.099 C 
ENDBRANCH  25  30
ENDBRANCH  20  21
ENDBRANCH   1  20
TORSDOF 6
ENDMDL
MODEL 4
REMARK VINA RESULT:     -11.1      1.852      2.584
REMARK  Name = 9865515
REMARK  6 active torsions:
REMARK  status: ('A' for Active; 'I' for Inactive)
REMARK    1  A    between atoms: C_1  and  C_20
REMARK    2  A    between atoms: C_2  and  C_9
REMARK    3  A    between atoms: N_8  and  C_11
REMARK    4  A    between atoms: C_12  and  N_17
REMARK    5  A    between atoms: C_20  and  N_21
REMARK    6  A    between atoms: C_25  and  C_30
REMARK                            x       y       z     vdW  Elec       q    Type
REMARK                         _______ _______ _______ _____ _____    ______ ____
ROOT
ATOM      1  C   UNL     1      35.507 -20.193 -20.931  0.00  0.00    -0.002 C 
ATOM      2  C   UNL     1      34.994 -22.020 -18.886  0.00  0.00    +0.054 C 
ATOM      3  C   UNL     1      34.195 -20.579 -20.653  0.00  0.00    -0.002 C 
ATOM      4  C   UNL     1      36.561 -20.719 -20.186  0.00  0.00    -0.002 C 
ATOM      5  C   UNL     1      33.939 -21.493 -19.632  0.00  0.00    +0.004 C 
ATOM      6  C   UNL     1      36.305 -21.633 -19.164  0.00  0.00    +0.004 C 
ENDROOT
BRANCH   2   9
ATOM      7  O   UNL     1      33.980 -23.940 -18.052  0.00  0.00    -0.270 OA
ATOM      8  N   UNL     1      35.373 -22.729 -16.603  0.00  0.00    -0.279 N 
ATOM      9  C   UNL     1      34.727 -22.975 -17.822  0.00  0.00    +0.250 C 
ATOM     10  H   UNL     1      35.935 -21.922 -16.572  0.00  0.00    +0.155 HD
BRANCH   8  11
ATOM     11  C   UNL     1      35.324 -23.492 -15.410  0.00  0.00    +0.064 C 
ATOM     12  C   UNL     1      36.467 -24.107 -14.925  0.00  0.00    +0.055 C 
ATOM     13  C   UNL     1      34.110 -23.604 -14.752  0.00  0.00    +0.016 C 
ATOM     14  C   UNL     1      36.393 -24.854 -13.749  0.00  0.00    +0.015 C 
ATOM     15  C   UNL     1      34.037 -24.350 -13.576  0.00  0.00    +0.001 C 
ATOM     16  C   UNL     1      35.178 -24.976 -13.075  0.00  0.00    +0.001 C 
BRANCH  12  17
ATOM     17  N   UNL     1      37.707 -23.996 -15.591  0.00  0.00    -0.356 N 
ATOM     18  H   UNL     1      38.545 -24.161 -15.102  0.00  0.00    +0.142 HD
ATOM     19  H   UNL     1      37.734 -23.753 -16.545  0.00  0.00    +0.142 HD
ENDBRANCH  12  17
ENDBRANCH   8  11
ENDBRANCH   2   9
BRANCH   1  20
ATOM     20  C   UNL     1      35.781 -19.214 -22.023  0.00  0.00    +0.124 C 
BRANCH  20  21
ATOM     21  N   UNL     1      35.149 -19.626 -23.257  0.00  0.00    -0.264 N 
ATOM     22  N   UNL     1      34.499 -17.433 -23.786  0.00  0.00    -0.338 NA
ATOM     23  N   UNL     1      33.965 -19.269 -25.252  0.00  0.00    -0.170 NA
ATOM     24  C   UNL     1      34.519 -18.749 -24.124  0.00  0.00    +0.145 C 
ATOM     25  C   UNL     1      33.878 -16.608 -24.652  0.00  0.00    +0.147 C 
ATOM     26  C   UNL     1      33.283 -17.033 -25.823  0.00  0.00    +0.055 C 
ATOM     27  C   UNL     1      33.359 -18.387 -26.074  0.00  0.00    +0.114 C 
ATOM     28  H   UNL     1      35.169 -20.581 -23.494  0.00  0.00    +0.160 HD
BRANCH  25  30
ATOM     29  N   UNL     1      33.397 -12.919 -24.865  0.00  0.00    -0.242 NA
ATOM     30  C   UNL     1      33.868 -15.215 -24.274  0.00  0.00    +0.050 C 
ATOM     31  C   UNL     1      34.299 -14.810 -23.015  0.00  0.00    +0.006 C 
ATOM     32  C   UNL     1      33.430 -14.238 -25.154  0.00  0.00    +0.101 C 
ATOM     33  C   UNL     1      34.279 -13.461 -22.680  0.00  0.00    +0.021 C 
ATOM     34  C   UNL     1      33.823 -12.563 -23.632  0.00  0.00    +0.099 C 
ENDBRANCH  25  30
ENDBRANCH  20  21
ENDBRANCH   1  20
TORSDOF 6
ENDMDL
MODEL 5
REMARK VINA RESULT:     -10.9      5.369     12.692
REMARK  Name = 9865515
REMARK  6 active torsions:
REMARK  status: ('A' for Active; 'I' for Inactive)
REMARK    1  A    between atoms: C_1  and  C_20
REMARK    2  A    between atoms: C_2  and  C_9
REMARK    3  A    between atoms: N_8  and  C_11
REMARK    4  A    between atoms: C_12  and  N_17
REMARK    5  A    between atoms: C_20  and  N_21
REMARK    6  A    between atoms: C_25  and  C_30
REMARK                            x       y       z     vdW  Elec       q    Type
REMARK                         _______ _______ _______ _____ _____    ______ ____
ROOT
ATOM      1  C   UNL     1      33.689 -12.770 -23.142  0.00  0.00    -0.002 C 
ATOM      2  C   UNL     1      32.570 -10.216 -23.218  0.00  0.00    +0.054 C 
ATOM      3  C   UNL     1      34.183 -11.818 -24.034  0.00  0.00    -0.002 C 
ATOM      4  C   UNL     1      32.636 -12.445 -22.288  0.00  0.00    -0.002 C 
ATOM      5  C   UNL     1      33.623 -10.542 -24.073  0.00  0.00    +0.004 C 
ATOM      6  C   UNL     1      32.076 -11.168 -22.326  0.00  0.00    +0.004 C 
ENDROOT
BRANCH   2   9
ATOM      7  O   UNL     1      30.793  -8.741 -22.941  0.00  0.00    -0.270 OA
ATOM      8  N   UNL     1      32.846  -7.850 -23.645  0.00  0.00    -0.279 N 
ATOM      9  C   UNL     1      31.984  -8.885 -23.260  0.00  0.00    +0.250 C 
ATOM     10  H   UNL     1      33.765  -8.119 -23.871  0.00  0.00    +0.155 HD
BRANCH   8  11
ATOM     11  C   UNL     1      32.566  -6.464 -23.752  0.00  0.00    +0.064 C 
ATOM     12  C   UNL     1      32.170  -5.743 -22.638  0.00  0.00    +0.055 C 
ATOM     13  C   UNL     1      32.698  -5.861 -24.992  0.00  0.00    +0.016 C 
ATOM     14  C   UNL     1      31.899  -4.381 -22.767  0.00  0.00    +0.015 C 
ATOM     15  C   UNL     1      32.428  -4.499 -25.122  0.00  0.00    +0.001 C 
ATOM     16  C   UNL     1      32.028  -3.759 -24.009  0.00  0.00    +0.001 C 
BRANCH  12  17
ATOM     17  N   UNL     1      32.034  -6.352 -21.371  0.00  0.00    -0.356 N 
ATOM     18  H   UNL     1      32.830  -6.683 -20.895  0.00  0.00    +0.142 HD
ATOM     19  H   UNL     1      31.143  -6.445 -20.962  0.00  0.00    +0.142 HD
ENDBRANCH  12  17
ENDBRANCH   8  11
ENDBRANCH   2   9
BRANCH   1  20
ATOM     20  C   UNL     1      34.289 -14.135 -23.099  0.00  0.00    +0.124 C 
BRANCH  20  21
ATOM     21  N   UNL     1      33.937 -14.892 -24.281  0.00  0.00    -0.264 N 
ATOM     22  N   UNL     1      34.671 -16.913 -23.341  0.00  0.00    -0.338 NA
ATOM     23  N   UNL     1      33.748 -16.846 -25.566  0.00  0.00    -0.170 NA
ATOM     24  C   UNL     1      34.125 -16.259 -24.399  0.00  0.00    +0.145 C 
ATOM     25  C   UNL     1      34.839 -18.243 -23.490  0.00  0.00    +0.147 C 
ATOM     26  C   UNL     1      34.492 -18.937 -24.632  0.00  0.00    +0.055 C 
ATOM     27  C   UNL     1      33.945 -18.179 -25.648  0.00  0.00    +0.114 C 
ATOM     28  H   UNL     1      33.542 -14.409 -25.042  0.00  0.00    +0.160 HD
BRANCH  25  30
ATOM     29  N   UNL     1      37.288 -19.186 -20.844  0.00  0.00    -0.242 NA
ATOM     30  C   UNL     1      35.420 -18.919 -22.355  0.00  0.00    +0.050 C 
ATOM     31  C   UNL     1      34.726 -19.922 -21.684  0.00  0.00    +0.006 C 
ATOM     32  C   UNL     1      36.687 -18.592 -21.898  0.00  0.00    +0.101 C 
ATOM     33  C   UNL     1      35.312 -20.556 -20.595  0.00  0.00    +0.021 C 
ATOM     34  C   UNL     1      36.584 -20.155 -20.218  0.00  0.00    +0.099 C 
ENDBRANCH  25  30
ENDBRANCH  20  21
ENDBRANCH   1  20
TORSDOF 6
ENDMDL
MODEL 6
REMARK VINA RESULT:     -10.9      2.811     11.213
REMARK  Name = 9865515
REMARK  6 active torsions:
REMARK  status: ('A' for Active; 'I' for Inactive)
REMARK    1  A    between atoms: C_1  and  C_20
REMARK    2  A    between atoms: C_2  and  C_9
REMARK    3  A    between atoms: N_8  and  C_11
REMARK    4  A    between atoms: C_12  and  N_17
REMARK    5  A    between atoms: C_20  and  N_21
REMARK    6  A    between atoms: C_25  and  C_30
REMARK                            x       y       z     vdW  Elec       q    Type
REMARK                         _______ _______ _______ _____ _____    ______ ____
ROOT
ATOM      1  C   UNL     1      34.236 -22.700 -18.847  0.00  0.00    -0.002 C 
ATOM      2  C   UNL     1      34.969 -20.613 -20.546  0.00  0.00    +0.054 C 
ATOM      3  C   UNL     1      35.584 -22.406 -19.049  0.00  0.00    -0.002 C 
ATOM      4  C   UNL     1      33.254 -21.951 -19.495  0.00  0.00    -0.002 C 
ATOM      5  C   UNL     1      35.951 -21.363 -19.899  0.00  0.00    +0.004 C 
ATOM      6  C   UNL     1      33.620 -20.908 -20.344  0.00  0.00    +0.004 C 
ENDROOT
BRANCH   2   9
ATOM      7  O   UNL     1      36.471 -19.007 -21.304  0.00  0.00    -0.270 OA
ATOM      8  N   UNL     1      34.405 -19.168 -22.404  0.00  0.00    -0.279 N 
ATOM      9  C   UNL     1      35.351 -19.527 -21.435  0.00  0.00    +0.250 C 
ATOM     10  H   UNL     1      33.559 -19.670 -22.383  0.00  0.00    +0.155 HD
BRANCH   8  11
ATOM     11  C   UNL     1      34.507 -18.174 -23.410  0.00  0.00    +0.064 C 
ATOM     12  C   UNL     1      34.897 -16.886 -23.083  0.00  0.00    +0.055 C 
ATOM     13  C   UNL     1      34.207 -18.528 -24.715  0.00  0.00    +0.016 C 
ATOM     14  C   UNL     1      34.990 -15.925 -24.090  0.00  0.00    +0.015 C 
ATOM     15  C   UNL     1      34.300 -17.568 -25.722  0.00  0.00    +0.001 C 
ATOM     16  C   UNL     1      34.691 -16.265 -25.409  0.00  0.00    +0.001 C 
BRANCH  12  17
ATOM     17  N   UNL     1      35.205 -16.520 -21.754  0.00  0.00    -0.356 N 
ATOM     18  H   UNL     1      34.751 -16.965 -21.003  0.00  0.00    +0.142 HD
ATOM     19  H   UNL     1      35.874 -15.819 -21.579  0.00  0.00    +0.142 HD
ENDBRANCH  12  17
ENDBRANCH   8  11
ENDBRANCH   2   9
BRANCH   1  20
ATOM     20  C   UNL     1      33.843 -23.815 -17.937  0.00  0.00    +0.124 C 
BRANCH  20  21
ATOM     21  N   UNL     1      32.783 -23.403 -17.042  0.00  0.00    -0.264 N 
ATOM     22  N   UNL     1      33.968 -24.097 -15.139  0.00  0.00    -0.338 NA
ATOM     23  N   UNL     1      31.778 -23.112 -14.942  0.00  0.00    -0.170 NA
ATOM     24  C   UNL     1      32.845 -23.542 -15.666  0.00  0.00    +0.145 C 
ATOM     25  C   UNL     1      33.995 -24.216 -13.796  0.00  0.00    +0.147 C 
ATOM     26  C   UNL     1      32.966 -23.813 -12.969  0.00  0.00    +0.055 C 
ATOM     27  C   UNL     1      31.872 -23.262 -13.604  0.00  0.00    +0.114 C 
ATOM     28  H   UNL     1      31.974 -23.002 -17.434  0.00  0.00    +0.160 HD
BRANCH  25  30
ATOM     29  N   UNL     1      36.513 -25.405 -11.320  0.00  0.00    -0.242 NA
ATOM     30  C   UNL     1      35.197 -24.807 -13.257  0.00  0.00    +0.050 C 
ATOM     31  C   UNL     1      36.175 -25.335 -14.093  0.00  0.00    +0.006 C 
ATOM     32  C   UNL     1      35.412 -24.867 -11.889  0.00  0.00    +0.101 C 
ATOM     33  C   UNL     1      37.322 -25.897 -13.544  0.00  0.00    +0.021 C 
ATOM     34  C   UNL     1      37.442 -25.908 -12.164  0.00  0.00    +0.099 C 
ENDBRANCH  25  30
ENDBRANCH  20  21
ENDBRANCH   1  20
TORSDOF 6
ENDMDL
MODEL 7
REMARK VINA RESULT:     -10.8      3.232     11.087
REMARK  Name = 9865515
REMARK  6 active torsions:
REMARK  status: ('A' for Active; 'I' for Inactive)
REMARK    1  A    between atoms: C_1  and  C_20
REMARK    2  A    between atoms: C_2  and  C_9
REMARK    3  A    between atoms: N_8  and  C_11
REMARK    4  A    between atoms: C_12  and  N_17
REMARK    5  A    between atoms: C_20  and  N_21
REMARK    6  A    between atoms: C_25  and  C_30
REMARK                            x       y       z     vdW  Elec       q    Type
REMARK                         _______ _______ _______ _____ _____    ______ ____
ROOT
ATOM      1  C   UNL     1      34.254 -22.752 -19.021  0.00  0.00    -0.002 C 
ATOM      2  C   UNL     1      34.917 -20.482 -20.501  0.00  0.00    +0.054 C 
ATOM      3  C   UNL     1      33.251 -22.003 -19.636  0.00  0.00    -0.002 C 
ATOM      4  C   UNL     1      35.589 -22.366 -19.146  0.00  0.00    -0.002 C 
ATOM      5  C   UNL     1      33.582 -20.868 -20.375  0.00  0.00    +0.004 C 
ATOM      6  C   UNL     1      35.920 -21.231 -19.886  0.00  0.00    +0.004 C 
ENDROOT
BRANCH   2   9
ATOM      7  O   UNL     1      36.243 -18.618 -20.925  0.00  0.00    -0.270 OA
ATOM      8  N   UNL     1      34.448 -19.029 -22.380  0.00  0.00    -0.279 N 
ATOM      9  C   UNL     1      35.262 -19.296 -21.270  0.00  0.00    +0.250 C 
ATOM     10  H   UNL     1      33.705 -19.658 -22.526  0.00  0.00    +0.155 HD
BRANCH   8  11
ATOM     11  C   UNL     1      34.556 -17.972 -23.317  0.00  0.00    +0.064 C 
ATOM     12  C   UNL     1      34.333 -18.207 -24.664  0.00  0.00    +0.055 C 
ATOM     13  C   UNL     1      34.888 -16.711 -22.850  0.00  0.00    +0.016 C 
ATOM     14  C   UNL     1      34.446 -17.150 -25.568  0.00  0.00    +0.015 C 
ATOM     15  C   UNL     1      35.000 -15.655 -23.754  0.00  0.00    +0.001 C 
ATOM     16  C   UNL     1      34.780 -15.875 -25.114  0.00  0.00    +0.001 C 
BRANCH  12  17
ATOM     17  N   UNL     1      33.993 -19.489 -25.147  0.00  0.00    -0.356 N 
ATOM     18  H   UNL     1      33.362 -19.582 -25.897  0.00  0.00    +0.142 HD
ATOM     19  H   UNL     1      34.387 -20.292 -24.733  0.00  0.00    +0.142 HD
ENDBRANCH  12  17
ENDBRANCH   8  11
ENDBRANCH   2   9
BRANCH   1  20
ATOM     20  C   UNL     1      33.901 -23.967 -18.231  0.00  0.00    +0.124 C 
BRANCH  20  21
ATOM     21  N   UNL     1      33.216 -23.608 -17.008  0.00  0.00    -0.264 N 
ATOM     22  N   UNL     1      34.942 -24.454 -15.662  0.00  0.00    -0.338 NA
ATOM     23  N   UNL     1      32.981 -23.458 -14.678  0.00  0.00    -0.170 NA
ATOM     24  C   UNL     1      33.729 -23.847 -15.745  0.00  0.00    +0.145 C 
ATOM     25  C   UNL     1      35.411 -24.671 -14.417  0.00  0.00    +0.147 C 
ATOM     26  C   UNL     1      34.733 -24.316 -13.268  0.00  0.00    +0.055 C 
ATOM     27  C   UNL     1      33.510 -23.706 -13.462  0.00  0.00    +0.114 C 
ATOM     28  H   UNL     1      32.338 -23.169 -17.079  0.00  0.00    +0.160 HD
BRANCH  25  30
ATOM     29  N   UNL     1      38.117 -27.172 -14.979  0.00  0.00    -0.242 NA
ATOM     30  C   UNL     1      36.702 -25.316 -14.350  0.00  0.00    +0.050 C 
ATOM     31  C   UNL     1      37.750 -24.752 -13.630  0.00  0.00    +0.006 C 
ATOM     32  C   UNL     1      36.935 -26.516 -15.002  0.00  0.00    +0.101 C 
ATOM     33  C   UNL     1      38.980 -25.396 -13.584  0.00  0.00    +0.021 C 
ATOM     34  C   UNL     1      39.112 -26.594 -14.269  0.00  0.00    +0.099 C 
ENDBRANCH  25  30
ENDBRANCH  20  21
ENDBRANCH   1  20
TORSDOF 6
ENDMDL
MODEL 8
REMARK VINA RESULT:     -10.8      4.507     11.595
REMARK  Name = 9865515
REMARK  6 active torsions:
REMARK  status: ('A' for Active; 'I' for Inactive)
REMARK    1  A    between atoms: C_1  and  C_20
REMARK    2  A    between atoms: C_2  and  C_9
REMARK    3  A    between atoms: N_8  and  C_11
REMARK    4  A    between atoms: C_12  and  N_17
REMARK    5  A    between atoms: C_20  and  N_21
REMARK    6  A    between atoms: C_25  and  C_30
REMARK                            x       y       z     vdW  Elec       q    Type
REMARK                         _______ _______ _______ _____ _____    ______ ____
ROOT
ATOM      1  C   UNL     1      33.975 -13.991 -22.303  0.00  0.00    -0.002 C 
ATOM      2  C   UNL     1      32.444 -11.661 -22.218  0.00  0.00    +0.054 C 
ATOM      3  C   UNL     1      34.115 -13.028 -23.302  0.00  0.00    -0.002 C 
ATOM      4  C   UNL     1      33.069 -13.789 -21.262  0.00  0.00    -0.002 C 
ATOM      5  C   UNL     1      33.349 -11.863 -23.260  0.00  0.00    +0.004 C 
ATOM      6  C   UNL     1      32.304 -12.624 -21.220  0.00  0.00    +0.004 C 
ENDROOT
BRANCH   2   9
ATOM      7  O   UNL     1      30.420 -10.538 -21.990  0.00  0.00    -0.270 OA
ATOM      8  N   UNL     1      32.348  -9.245 -22.329  0.00  0.00    -0.279 N 
ATOM      9  C   UNL     1      31.644 -10.447 -22.176  0.00  0.00    +0.250 C 
ATOM     10  H   UNL     1      33.318  -9.332 -22.470  0.00  0.00    +0.155 HD
BRANCH   8  11
ATOM     11  C   UNL     1      31.844  -7.920 -22.307  0.00  0.00    +0.064 C 
ATOM     12  C   UNL     1      31.958  -7.148 -21.162  0.00  0.00    +0.055 C 
ATOM     13  C   UNL     1      31.240  -7.427 -23.452  0.00  0.00    +0.016 C 
ATOM     14  C   UNL     1      31.454  -5.847 -21.164  0.00  0.00    +0.015 C 
ATOM     15  C   UNL     1      30.737  -6.127 -23.453  0.00  0.00    +0.001 C 
ATOM     16  C   UNL     1      30.844  -5.336 -22.309  0.00  0.00    +0.001 C 
BRANCH  12  17
ATOM     17  N   UNL     1      32.573  -7.644 -19.992  0.00  0.00    -0.356 N 
ATOM     18  H   UNL     1      33.555  -7.688 -19.932  0.00  0.00    +0.142 HD
ATOM     19  H   UNL     1      32.020  -7.946 -19.234  0.00  0.00    +0.142 HD
ENDBRANCH  12  17
ENDBRANCH   8  11
ENDBRANCH   2   9
BRANCH   1  20
ATOM     20  C   UNL     1      34.795 -15.237 -22.347  0.00  0.00    +0.124 C 
BRANCH  20  21
ATOM     21  N   UNL     1      34.661 -15.899 -23.626  0.00  0.00    -0.264 N 
ATOM     22  N   UNL     1      34.734 -18.034 -22.653  0.00  0.00    -0.338 NA
ATOM     23  N   UNL     1      34.500 -17.768 -25.036  0.00  0.00    -0.170 NA
ATOM     24  C   UNL     1      34.631 -17.275 -23.776  0.00  0.00    +0.145 C 
ATOM     25  C   UNL     1      34.700 -19.369 -22.836  0.00  0.00    +0.147 C 
ATOM     26  C   UNL     1      34.571 -19.972 -24.071  0.00  0.00    +0.055 C 
ATOM     27  C   UNL     1      34.474 -19.113 -25.146  0.00  0.00    +0.114 C 
ATOM     28  H   UNL     1      34.587 -15.341 -24.433  0.00  0.00    +0.160 HD
BRANCH  25  30
ATOM     29  N   UNL     1      33.716 -21.312 -19.811  0.00  0.00    -0.242 NA
ATOM     30  C   UNL     1      34.811 -20.157 -21.631  0.00  0.00    +0.050 C 
ATOM     31  C   UNL     1      36.054 -20.520 -21.122  0.00  0.00    +0.006 C 
ATOM     32  C   UNL     1      33.683 -20.576 -20.944  0.00  0.00    +0.101 C 
ATOM     33  C   UNL     1      36.129 -21.278 -19.959  0.00  0.00    +0.021 C 
ATOM     34  C   UNL     1      34.941 -21.645 -19.347  0.00  0.00    +0.099 C 
ENDBRANCH  25  30
ENDBRANCH  20  21
ENDBRANCH   1  20
TORSDOF 6
ENDMDL
MODEL 9
REMARK VINA RESULT:     -10.5      3.360     11.122
REMARK  Name = 9865515
REMARK  6 active torsions:
REMARK  status: ('A' for Active; 'I' for Inactive)
REMARK    1  A    between atoms: C_1  and  C_20
REMARK    2  A    between atoms: C_2  and  C_9
REMARK    3  A    between atoms: N_8  and  C_11
REMARK    4  A    between atoms: C_12  and  N_17
REMARK    5  A    between atoms: C_20  and  N_21
REMARK    6  A    between atoms: C_25  and  C_30
REMARK                            x       y       z     vdW  Elec       q    Type
REMARK                         _______ _______ _______ _____ _____    ______ ____
ROOT
ATOM      1  C   UNL     1      35.688 -21.064 -19.841  0.00  0.00    -0.002 C 
ATOM      2  C   UNL     1      35.336 -19.114 -21.805  0.00  0.00    +0.054 C 
ATOM      3  C   UNL     1      36.775 -20.303 -20.272  0.00  0.00    -0.002 C 
ATOM      4  C   UNL     1      34.425 -20.849 -20.392  0.00  0.00    -0.002 C 
ATOM      5  C   UNL     1      36.600 -19.329 -21.255  0.00  0.00    +0.004 C 
ATOM      6  C   UNL     1      34.249 -19.875 -21.374  0.00  0.00    +0.004 C 
ENDROOT
BRANCH   2   9
ATOM      7  O   UNL     1      35.427 -18.378 -24.010  0.00  0.00    -0.270 OA
ATOM      8  N   UNL     1      34.646 -16.869 -22.392  0.00  0.00    -0.279 N 
ATOM      9  C   UNL     1      35.153 -18.100 -22.832  0.00  0.00    +0.250 C 
ATOM     10  H   UNL     1      34.478 -16.797 -21.425  0.00  0.00    +0.155 HD
BRANCH   8  11
ATOM     11  C   UNL     1      34.345 -15.716 -23.158  0.00  0.00    +0.064 C 
ATOM     12  C   UNL     1      34.363 -14.462 -22.570  0.00  0.00    +0.055 C 
ATOM     13  C   UNL     1      34.033 -15.880 -24.498  0.00  0.00    +0.016 C 
ATOM     14  C   UNL     1      34.062 -13.341 -23.345  0.00  0.00    +0.015 C 
ATOM     15  C   UNL     1      33.732 -14.760 -25.272  0.00  0.00    +0.001 C 
ATOM     16  C   UNL     1      33.747 -13.490 -24.695  0.00  0.00    +0.001 C 
BRANCH  12  17
ATOM     17  N   UNL     1      34.681 -14.287 -21.205  0.00  0.00    -0.356 N 
ATOM     18  H   UNL     1      35.467 -14.738 -20.821  0.00  0.00    +0.142 HD
ATOM     19  H   UNL     1      34.116 -13.714 -20.637  0.00  0.00    +0.142 HD
ENDBRANCH  12  17
ENDBRANCH   8  11
ENDBRANCH   2   9
BRANCH   1  20
ATOM     20  C   UNL     1      35.875 -22.105 -18.789  0.00  0.00    +0.124 C 
BRANCH  20  21
ATOM     21  N   UNL     1      34.616 -22.433 -18.157  0.00  0.00    -0.264 N 
ATOM     22  N   UNL     1      35.669 -23.589 -16.407  0.00  0.00    -0.338 NA
ATOM     23  N   UNL     1      33.269 -23.399 -16.496  0.00  0.00    -0.170 NA
ATOM     24  C   UNL     1      34.516 -23.162 -16.984  0.00  0.00    +0.145 C 
ATOM     25  C   UNL     1      35.535 -24.296 -15.267  0.00  0.00    +0.147 C 
ATOM     26  C   UNL     1      34.317 -24.592 -14.687  0.00  0.00    +0.055 C 
ATOM     27  C   UNL     1      33.207 -24.113 -15.352  0.00  0.00    +0.114 C 
ATOM     28  H   UNL     1      33.786 -22.119 -18.583  0.00  0.00    +0.160 HD
BRANCH  25  30
ATOM     29  N   UNL     1      38.627 -24.287 -13.187  0.00  0.00    -0.242 NA
ATOM     30  C   UNL     1      36.772 -24.739 -14.669  0.00  0.00    +0.050 C 
ATOM     31  C   UNL     1      37.306 -25.989 -14.968  0.00  0.00    +0.006 C 
ATOM     32  C   UNL     1      37.465 -23.934 -13.780  0.00  0.00    +0.101 C 
ATOM     33  C   UNL     1      38.500 -26.387 -14.377  0.00  0.00    +0.021 C 
ATOM     34  C   UNL     1      39.116 -25.508 -13.501  0.00  0.00    +0.099 C 
ENDBRANCH  25  30
ENDBRANCH  20  21
ENDBRANCH   1  20
TORSDOF 6
ENDMDL
