MODEL 1
REMARK VINA RESULT:     -10.8      0.000      0.000
REMARK  Name = 5288017
REMARK  6 active torsions:
REMARK  status: ('A' for Active; 'I' for Inactive)
REMARK    1  A    between atoms: C_4  and  C_15
REMARK    2  A    between atoms: C_10  and  N_22
REMARK    3  A    between atoms: C_23  and  C_25
REMARK    4  A    between atoms: C_25  and  N_26
REMARK    5  A    between atoms: C_27  and  C_33
REMARK    6  A    between atoms: C_33  and  N_34
REMARK                            x       y       z     vdW  Elec       q    Type
REMARK                         _______ _______ _______ _____ _____    ______ ____
ROOT
ATOM      1  O   UNL     1      33.375 -23.666 -16.750  0.00  0.00    -0.286 OA
ATOM      2  N   UNL     1      37.149 -21.649 -18.010  0.00  0.00    -0.280 N 
ATOM      3  N   UNL     1      37.699 -21.986 -16.811  0.00  0.00    -0.173 NA
ATOM      4  C   UNL     1      35.845 -22.068 -18.184  0.00  0.00    +0.056 A 
ATOM      5  C   UNL     1      35.545 -22.711 -17.024  0.00  0.00    +0.071 A 
ATOM      6  C   UNL     1      36.699 -22.632 -16.230  0.00  0.00    +0.105 A 
ATOM      7  C   UNL     1      34.493 -23.421 -16.349  0.00  0.00    +0.199 C 
ATOM      8  C   UNL     1      35.119 -23.783 -15.028  0.00  0.00    +0.054 C 
ATOM      9  C   UNL     1      36.454 -23.293 -14.985  0.00  0.00    +0.024 C 
ATOM     10  C   UNL     1      34.585 -24.467 -13.974  0.00  0.00    +0.053 C 
ATOM     11  C   UNL     1      37.257 -23.488 -13.885  0.00  0.00    +0.002 C 
ATOM     12  C   UNL     1      35.375 -24.676 -12.853  0.00  0.00    +0.015 C 
ATOM     13  C   UNL     1      36.701 -24.190 -12.810  0.00  0.00    +0.001 C 
ATOM     14  H   UNL     1      37.641 -21.148 -18.699  0.00  0.00    +0.189 HD
ENDROOT
BRANCH   4  15
ATOM     15  C   UNL     1      35.055 -21.791 -19.455  0.00  0.00    +0.040 C 
ATOM     16  C   UNL     1      33.573 -21.509 -19.158  0.00  0.00    +0.006 C 
ATOM     17  C   UNL     1      35.682 -20.656 -20.282  0.00  0.00    +0.006 C 
ATOM     18  C   UNL     1      32.788 -21.241 -20.441  0.00  0.00    +0.000 C 
ATOM     19  C   UNL     1      34.887 -20.392 -21.560  0.00  0.00    +0.000 C 
ATOM     20  C   UNL     1      33.416 -20.117 -21.262  0.00  0.00    +0.000 C 
ENDBRANCH   4  15
BRANCH  10  22
ATOM     21  O   UNL     1      32.094 -23.430 -12.659  0.00  0.00    -0.277 OA
ATOM     22  N   UNL     1      33.259 -24.962 -14.003  0.00  0.00    -0.286 N 
ATOM     23  C   UNL     1      32.138 -24.429 -13.370  0.00  0.00    +0.205 C 
ATOM     24  H   UNL     1      33.111 -25.777 -14.535  0.00  0.00    +0.155 HD
BRANCH  23  25
ATOM     25  C   UNL     1      30.914 -25.276 -13.669  0.00  0.00    +0.010 C 
BRANCH  25  26
ATOM     26  N   UNL     1      30.237 -24.751 -14.855  0.00  0.00    +0.393 N 
ATOM     27  C   UNL     1      28.133 -23.283 -16.275  0.00  0.00    -0.026 C 
ATOM     28  C   UNL     1      29.542 -22.714 -16.077  0.00  0.00    -0.025 C 
ATOM     29  C   UNL     1      28.181 -24.814 -16.230  0.00  0.00    -0.025 C 
ATOM     30  C   UNL     1      30.200 -23.282 -14.817  0.00  0.00    -0.077 C 
ATOM     31  C   UNL     1      28.883 -25.311 -14.965  0.00  0.00    -0.077 C 
ATOM     32  H   UNL     1      30.762 -25.032 -15.682  0.00  0.00    -0.079 HD
BRANCH  27  33
ATOM     33  C   UNL     1      27.522 -22.791 -17.584  0.00  0.00    -0.086 C 
BRANCH  33  34
ATOM     34  N   UNL     1      26.382 -21.921 -17.331  0.00  0.00    +0.380 N 
ATOM     35  H   UNL     1      26.697 -21.082 -16.845  0.00  0.00    -0.089 HD
ATOM     36  H   UNL     1      25.701 -22.414 -16.753  0.00  0.00    -0.089 HD
ATOM     37  H   UNL     1      25.951 -21.660 -18.217  0.00  0.00    -0.089 HD
ENDBRANCH  33  34
ENDBRANCH  27  33
ENDBRANCH  25  26
ENDBRANCH  23  25
ENDBRANCH  10  22
TORSDOF 6
ENDMDL
MODEL 2
REMARK VINA RESULT:     -10.6     11.817     15.540
REMARK  Name = 5288017
REMARK  6 active torsions:
REMARK  status: ('A' for Active; 'I' for Inactive)
REMARK    1  A    between atoms: C_4  and  C_15
REMARK    2  A    between atoms: C_10  and  N_22
REMARK    3  A    between atoms: C_23  and  C_25
REMARK    4  A    between atoms: C_25  and  N_26
REMARK    5  A    between atoms: C_27  and  C_33
REMARK    6  A    between atoms: C_33  and  N_34
REMARK                            x       y       z     vdW  Elec       q    Type
REMARK                         _______ _______ _______ _____ _____    ______ ____
ROOT
ATOM      1  O   UNL     1      32.545  -9.403 -24.295  0.00  0.00    -0.286 OA
ATOM      2  N   UNL     1      32.357  -5.610 -21.955  0.00  0.00    -0.280 N 
ATOM      3  N   UNL     1      32.155  -6.346 -20.826  0.00  0.00    -0.173 NA
ATOM      4  C   UNL     1      32.499  -6.352 -23.110  0.00  0.00    +0.056 A 
ATOM      5  C   UNL     1      32.379  -7.641 -22.692  0.00  0.00    +0.071 A 
ATOM      6  C   UNL     1      32.173  -7.581 -21.306  0.00  0.00    +0.105 A 
ATOM      7  C   UNL     1      32.391  -9.000 -23.161  0.00  0.00    +0.199 C 
ATOM      8  C   UNL     1      32.167  -9.796 -21.902  0.00  0.00    +0.054 C 
ATOM      9  C   UNL     1      32.038  -8.911 -20.796  0.00  0.00    +0.024 C 
ATOM     10  C   UNL     1      32.082 -11.149 -21.735  0.00  0.00    +0.053 C 
ATOM     11  C   UNL     1      31.826  -9.378 -19.520  0.00  0.00    +0.002 C 
ATOM     12  C   UNL     1      31.868 -11.645 -20.458  0.00  0.00    +0.015 C 
ATOM     13  C   UNL     1      31.742 -10.766 -19.358  0.00  0.00    +0.001 C 
ATOM     14  H   UNL     1      32.399  -4.626 -21.947  0.00  0.00    +0.189 HD
ENDROOT
BRANCH   4  15
ATOM     15  C   UNL     1      32.732  -5.716 -24.472  0.00  0.00    +0.040 C 
ATOM     16  C   UNL     1      32.248  -4.257 -24.513  0.00  0.00    +0.006 C 
ATOM     17  C   UNL     1      34.202  -5.826 -24.911  0.00  0.00    +0.006 C 
ATOM     18  C   UNL     1      32.478  -3.630 -25.887  0.00  0.00    +0.000 C 
ATOM     19  C   UNL     1      34.423  -5.192 -26.284  0.00  0.00    +0.000 C 
ATOM     20  C   UNL     1      33.937  -3.746 -26.321  0.00  0.00    +0.000 C 
ENDBRANCH   4  15
BRANCH  10  22
ATOM     21  O   UNL     1      34.470 -11.834 -23.419  0.00  0.00    -0.277 OA
ATOM     22  N   UNL     1      32.208 -12.042 -22.826  0.00  0.00    -0.286 N 
ATOM     23  C   UNL     1      33.353 -12.320 -23.569  0.00  0.00    +0.205 C 
ATOM     24  H   UNL     1      31.392 -12.526 -23.089  0.00  0.00    +0.155 HD
BRANCH  23  25
ATOM     25  C   UNL     1      33.044 -13.343 -24.648  0.00  0.00    +0.010 C 
BRANCH  25  26
ATOM     26  N   UNL     1      33.403 -14.678 -24.170  0.00  0.00    +0.393 N 
ATOM     27  C   UNL     1      35.200 -16.964 -23.788  0.00  0.00    -0.026 C 
ATOM     28  C   UNL     1      34.865 -15.983 -22.659  0.00  0.00    -0.025 C 
ATOM     29  C   UNL     1      34.068 -16.971 -24.821  0.00  0.00    -0.025 C 
ATOM     30  C   UNL     1      34.512 -14.599 -23.209  0.00  0.00    -0.077 C 
ATOM     31  C   UNL     1      33.742 -15.555 -25.300  0.00  0.00    -0.077 C 
ATOM     32  H   UNL     1      32.599 -15.081 -23.690  0.00  0.00    -0.079 HD
BRANCH  27  33
ATOM     33  C   UNL     1      35.453 -18.365 -23.240  0.00  0.00    -0.086 C 
BRANCH  33  34
ATOM     34  N   UNL     1      36.715 -18.421 -22.518  0.00  0.00    +0.380 N 
ATOM     35  H   UNL     1      37.006 -17.476 -22.270  0.00  0.00    -0.089 HD
ATOM     36  H   UNL     1      37.427 -18.851 -23.110  0.00  0.00    -0.089 HD
ATOM     37  H   UNL     1      36.597 -18.975 -21.670  0.00  0.00    -0.089 HD
ENDBRANCH  33  34
ENDBRANCH  27  33
ENDBRANCH  25  26
ENDBRANCH  23  25
ENDBRANCH  10  22
TORSDOF 6
ENDMDL
MODEL 3
REMARK VINA RESULT:     -10.4      2.214      7.314
REMARK  Name = 5288017
REMARK  6 active torsions:
REMARK  status: ('A' for Active; 'I' for Inactive)
REMARK    1  A    between atoms: C_4  and  C_15
REMARK    2  A    between atoms: C_10  and  N_22
REMARK    3  A    between atoms: C_23  and  C_25
REMARK    4  A    between atoms: C_25  and  N_26
REMARK    5  A    between atoms: C_27  and  C_33
REMARK    6  A    between atoms: C_33  and  N_34
REMARK                            x       y       z     vdW  Elec       q    Type
REMARK                         _______ _______ _______ _____ _____    ______ ____
ROOT
ATOM      1  O   UNL     1      32.330 -23.253 -17.238  0.00  0.00    -0.286 OA
ATOM      2  N   UNL     1      30.829 -24.371 -13.189  0.00  0.00    -0.280 N 
ATOM      3  N   UNL     1      32.117 -24.400 -12.747  0.00  0.00    -0.173 NA
ATOM      4  C   UNL     1      30.683 -24.043 -14.522  0.00  0.00    +0.056 A 
ATOM      5  C   UNL     1      31.958 -23.853 -14.957  0.00  0.00    +0.071 A 
ATOM      6  C   UNL     1      32.784 -24.081 -13.846  0.00  0.00    +0.105 A 
ATOM      7  C   UNL     1      32.729 -23.510 -16.121  0.00  0.00    +0.199 C 
ATOM      8  C   UNL     1      34.146 -23.548 -15.614  0.00  0.00    +0.054 C 
ATOM      9  C   UNL     1      34.148 -23.896 -14.235  0.00  0.00    +0.024 C 
ATOM     10  C   UNL     1      35.313 -23.306 -16.282  0.00  0.00    +0.053 C 
ATOM     11  C   UNL     1      35.319 -24.001 -13.520  0.00  0.00    +0.002 C 
ATOM     12  C   UNL     1      36.506 -23.406 -15.584  0.00  0.00    +0.015 C 
ATOM     13  C   UNL     1      36.510 -23.750 -14.213  0.00  0.00    +0.001 C 
ATOM     14  H   UNL     1      30.062 -24.566 -12.604  0.00  0.00    +0.189 HD
ENDROOT
BRANCH   4  15
ATOM     15  C   UNL     1      29.326 -23.957 -15.204  0.00  0.00    +0.040 C 
ATOM     16  C   UNL     1      28.826 -22.506 -15.303  0.00  0.00    +0.006 C 
ATOM     17  C   UNL     1      29.334 -24.638 -16.583  0.00  0.00    +0.006 C 
ATOM     18  C   UNL     1      27.459 -22.432 -15.981  0.00  0.00    +0.000 C 
ATOM     19  C   UNL     1      27.964 -24.554 -17.254  0.00  0.00    +0.000 C 
ATOM     20  C   UNL     1      27.470 -23.113 -17.347  0.00  0.00    +0.000 C 
ENDBRANCH   4  15
BRANCH  10  22
ATOM     21  O   UNL     1      36.949 -21.265 -17.753  0.00  0.00    -0.277 OA
ATOM     22  N   UNL     1      35.326 -22.958 -17.654  0.00  0.00    -0.286 N 
ATOM     23  C   UNL     1      36.117 -21.997 -18.279  0.00  0.00    +0.205 C 
ATOM     24  H   UNL     1      34.705 -23.454 -18.234  0.00  0.00    +0.155 HD
BRANCH  23  25
ATOM     25  C   UNL     1      35.810 -21.950 -19.766  0.00  0.00    +0.010 C 
BRANCH  25  26
ATOM     26  N   UNL     1      35.696 -20.556 -20.196  0.00  0.00    +0.393 N 
ATOM     27  C   UNL     1      35.580 -18.391 -22.169  0.00  0.00    -0.026 C 
ATOM     28  C   UNL     1      34.334 -18.908 -21.442  0.00  0.00    -0.025 C 
ATOM     29  C   UNL     1      36.827 -18.665 -21.322  0.00  0.00    -0.025 C 
ATOM     30  C   UNL     1      34.498 -20.372 -21.027  0.00  0.00    -0.077 C 
ATOM     31  C   UNL     1      36.908 -20.137 -20.913  0.00  0.00    -0.077 C 
ATOM     32  H   UNL     1      35.599 -19.967 -19.370  0.00  0.00    -0.079 HD
BRANCH  27  33
ATOM     33  C   UNL     1      35.451 -16.905 -22.491  0.00  0.00    -0.086 C 
BRANCH  33  34
ATOM     34  N   UNL     1      35.443 -16.683 -23.929  0.00  0.00    +0.380 N 
ATOM     35  H   UNL     1      36.275 -17.103 -24.342  0.00  0.00    -0.089 HD
ATOM     36  H   UNL     1      35.439 -15.680 -24.119  0.00  0.00    -0.089 HD
ATOM     37  H   UNL     1      34.610 -17.110 -24.334  0.00  0.00    -0.089 HD
ENDBRANCH  33  34
ENDBRANCH  27  33
ENDBRANCH  25  26
ENDBRANCH  23  25
ENDBRANCH  10  22
TORSDOF 6
ENDMDL
MODEL 4
REMARK VINA RESULT:     -10.4      2.815      8.068
REMARK  Name = 5288017
REMARK  6 active torsions:
REMARK  status: ('A' for Active; 'I' for Inactive)
REMARK    1  A    between atoms: C_4  and  C_15
REMARK    2  A    between atoms: C_10  and  N_22
REMARK    3  A    between atoms: C_23  and  C_25
REMARK    4  A    between atoms: C_25  and  N_26
REMARK    5  A    between atoms: C_27  and  C_33
REMARK    6  A    between atoms: C_33  and  N_34
REMARK                            x       y       z     vdW  Elec       q    Type
REMARK                         _______ _______ _______ _____ _____    ______ ____
ROOT
ATOM      1  O   UNL     1      35.927 -23.139 -16.770  0.00  0.00    -0.286 OA
ATOM      2  N   UNL     1      34.526 -24.969 -12.951  0.00  0.00    -0.280 N 
ATOM      3  N   UNL     1      33.241 -24.753 -13.349  0.00  0.00    -0.173 NA
ATOM      4  C   UNL     1      35.486 -24.550 -13.850  0.00  0.00    +0.056 A 
ATOM      5  C   UNL     1      34.769 -24.034 -14.884  0.00  0.00    +0.071 A 
ATOM      6  C   UNL     1      33.419 -24.181 -14.531  0.00  0.00    +0.105 A 
ATOM      7  C   UNL     1      34.908 -23.410 -16.172  0.00  0.00    +0.199 C 
ATOM      8  C   UNL     1      33.481 -23.180 -16.594  0.00  0.00    +0.054 C 
ATOM      9  C   UNL     1      32.602 -23.656 -15.581  0.00  0.00    +0.024 C 
ATOM     10  C   UNL     1      32.995 -22.614 -17.738  0.00  0.00    +0.053 C 
ATOM     11  C   UNL     1      31.236 -23.568 -15.713  0.00  0.00    +0.002 C 
ATOM     12  C   UNL     1      31.621 -22.514 -17.894  0.00  0.00    +0.015 C 
ATOM     13  C   UNL     1      30.748 -22.988 -16.889  0.00  0.00    +0.001 C 
ATOM     14  H   UNL     1      34.752 -25.392 -12.091  0.00  0.00    +0.189 HD
ENDROOT
BRANCH   4  15
ATOM     15  C   UNL     1      36.977 -24.703 -13.590  0.00  0.00    +0.040 C 
ATOM     16  C   UNL     1      37.269 -25.815 -12.568  0.00  0.00    +0.006 C 
ATOM     17  C   UNL     1      37.765 -24.926 -14.893  0.00  0.00    +0.006 C 
ATOM     18  C   UNL     1      38.768 -25.955 -12.308  0.00  0.00    +0.000 C 
ATOM     19  C   UNL     1      39.262 -25.070 -14.621  0.00  0.00    +0.000 C 
ATOM     20  C   UNL     1      39.546 -26.170 -13.603  0.00  0.00    +0.000 C 
ENDBRANCH   4  15
BRANCH  10  22
ATOM     21  O   UNL     1      32.410 -20.911 -20.139  0.00  0.00    -0.277 OA
ATOM     22  N   UNL     1      33.856 -22.136 -18.755  0.00  0.00    -0.286 N 
ATOM     23  C   UNL     1      33.521 -21.342 -19.849  0.00  0.00    +0.205 C 
ATOM     24  H   UNL     1      34.803 -22.395 -18.679  0.00  0.00    +0.155 HD
BRANCH  23  25
ATOM     25  C   UNL     1      34.754 -21.061 -20.691  0.00  0.00    +0.010 C 
BRANCH  25  26
ATOM     26  N   UNL     1      34.595 -19.775 -21.372  0.00  0.00    +0.393 N 
ATOM     27  C   UNL     1      35.443 -17.575 -23.115  0.00  0.00    -0.026 C 
ATOM     28  C   UNL     1      34.422 -18.629 -23.558  0.00  0.00    -0.025 C 
ATOM     29  C   UNL     1      35.437 -17.458 -21.587  0.00  0.00    -0.025 C 
ATOM     30  C   UNL     1      34.640 -19.957 -22.830  0.00  0.00    -0.077 C 
ATOM     31  C   UNL     1      35.623 -18.825 -20.924  0.00  0.00    -0.077 C 
ATOM     32  H   UNL     1      33.683 -19.389 -21.131  0.00  0.00    -0.079 HD
BRANCH  27  33
ATOM     33  C   UNL     1      35.158 -16.226 -23.769  0.00  0.00    -0.086 C 
BRANCH  33  34
ATOM     34  N   UNL     1      34.763 -15.239 -22.775  0.00  0.00    +0.380 N 
ATOM     35  H   UNL     1      34.319 -14.448 -23.239  0.00  0.00    -0.089 HD
ATOM     36  H   UNL     1      35.588 -14.917 -22.269  0.00  0.00    -0.089 HD
ATOM     37  H   UNL     1      34.105 -15.662 -22.120  0.00  0.00    -0.089 HD
ENDBRANCH  33  34
ENDBRANCH  27  33
ENDBRANCH  25  26
ENDBRANCH  23  25
ENDBRANCH  10  22
TORSDOF 6
ENDMDL
MODEL 5
REMARK VINA RESULT:     -10.0      2.316      6.464
REMARK  Name = 5288017
REMARK  6 active torsions:
REMARK  status: ('A' for Active; 'I' for Inactive)
REMARK    1  A    between atoms: C_4  and  C_15
REMARK    2  A    between atoms: C_10  and  N_22
REMARK    3  A    between atoms: C_23  and  C_25
REMARK    4  A    between atoms: C_25  and  N_26
REMARK    5  A    between atoms: C_27  and  C_33
REMARK    6  A    between atoms: C_33  and  N_34
REMARK                            x       y       z     vdW  Elec       q    Type
REMARK                         _______ _______ _______ _____ _____    ______ ____
ROOT
ATOM      1  O   UNL     1      34.994 -24.062 -15.585  0.00  0.00    -0.286 OA
ATOM      2  N   UNL     1      32.216 -22.259 -18.575  0.00  0.00    -0.280 N 
ATOM      3  N   UNL     1      31.174 -22.564 -17.752  0.00  0.00    -0.173 NA
ATOM      4  C   UNL     1      33.456 -22.631 -18.096  0.00  0.00    +0.056 A 
ATOM      5  C   UNL     1      33.188 -23.211 -16.895  0.00  0.00    +0.071 A 
ATOM      6  C   UNL     1      31.796 -23.144 -16.736  0.00  0.00    +0.105 A 
ATOM      7  C   UNL     1      33.814 -23.846 -15.767  0.00  0.00    +0.199 C 
ATOM      8  C   UNL     1      32.648 -24.176 -14.873  0.00  0.00    +0.054 C 
ATOM      9  C   UNL     1      31.441 -23.739 -15.485  0.00  0.00    +0.024 C 
ATOM     10  C   UNL     1      32.638 -24.792 -13.654  0.00  0.00    +0.053 C 
ATOM     11  C   UNL     1      30.219 -23.917 -14.877  0.00  0.00    +0.002 C 
ATOM     12  C   UNL     1      31.419 -24.983 -13.020  0.00  0.00    +0.015 C 
ATOM     13  C   UNL     1      30.219 -24.548 -13.627  0.00  0.00    +0.001 C 
ATOM     14  H   UNL     1      32.095 -21.807 -19.441  0.00  0.00    +0.189 HD
ENDROOT
BRANCH   4  15
ATOM     15  C   UNL     1      34.744 -22.378 -18.866  0.00  0.00    +0.040 C 
ATOM     16  C   UNL     1      34.570 -21.276 -19.924  0.00  0.00    +0.006 C 
ATOM     17  C   UNL     1      35.921 -22.064 -17.925  0.00  0.00    +0.006 C 
ATOM     18  C   UNL     1      35.866 -21.035 -20.697  0.00  0.00    +0.000 C 
ATOM     19  C   UNL     1      37.210 -21.820 -18.708  0.00  0.00    +0.000 C 
ATOM     20  C   UNL     1      37.032 -20.729 -19.760  0.00  0.00    +0.000 C 
ENDBRANCH   4  15
BRANCH  10  22
ATOM     21  O   UNL     1      34.482 -23.366 -11.763  0.00  0.00    -0.277 OA
ATOM     22  N   UNL     1      33.831 -25.230 -13.032  0.00  0.00    -0.286 N 
ATOM     23  C   UNL     1      34.646 -24.517 -12.155  0.00  0.00    +0.205 C 
ATOM     24  H   UNL     1      34.119 -26.148 -13.242  0.00  0.00    +0.155 HD
BRANCH  23  25
ATOM     25  C   UNL     1      35.826 -25.368 -11.724  0.00  0.00    +0.010 C 
BRANCH  25  26
ATOM     26  N   UNL     1      36.858 -25.332 -12.761  0.00  0.00    +0.393 N 
ATOM     27  C   UNL     1      39.433 -26.047 -13.966  0.00  0.00    -0.026 C 
ATOM     28  C   UNL     1      38.106 -26.644 -14.447  0.00  0.00    -0.025 C 
ATOM     29  C   UNL     1      39.182 -24.684 -13.311  0.00  0.00    -0.025 C 
ATOM     30  C   UNL     1      37.069 -26.674 -13.323  0.00  0.00    -0.077 C 
ATOM     31  C   UNL     1      38.109 -24.780 -12.225  0.00  0.00    -0.077 C 
ATOM     32  H   UNL     1      36.542 -24.722 -13.515  0.00  0.00    -0.079 HD
BRANCH  27  33
ATOM     33  C   UNL     1      40.430 -25.927 -15.116  0.00  0.00    -0.086 C 
BRANCH  33  34
ATOM     34  N   UNL     1      40.121 -24.778 -15.954  0.00  0.00    +0.380 N 
ATOM     35  H   UNL     1      40.235 -23.922 -15.412  0.00  0.00    -0.089 HD
ATOM     36  H   UNL     1      39.158 -24.847 -16.284  0.00  0.00    -0.089 HD
ATOM     37  H   UNL     1      40.755 -24.761 -16.753  0.00  0.00    -0.089 HD
ENDBRANCH  33  34
ENDBRANCH  27  33
ENDBRANCH  25  26
ENDBRANCH  23  25
ENDBRANCH  10  22
TORSDOF 6
ENDMDL
MODEL 6
REMARK VINA RESULT:     -10.0      9.247     13.498
REMARK  Name = 5288017
REMARK  6 active torsions:
REMARK  status: ('A' for Active; 'I' for Inactive)
REMARK    1  A    between atoms: C_4  and  C_15
REMARK    2  A    between atoms: C_10  and  N_22
REMARK    3  A    between atoms: C_23  and  C_25
REMARK    4  A    between atoms: C_25  and  N_26
REMARK    5  A    between atoms: C_27  and  C_33
REMARK    6  A    between atoms: C_33  and  N_34
REMARK                            x       y       z     vdW  Elec       q    Type
REMARK                         _______ _______ _______ _____ _____    ______ ____
ROOT
ATOM      1  O   UNL     1      34.268 -14.732 -22.036  0.00  0.00    -0.286 OA
ATOM      2  N   UNL     1      34.832 -18.242 -24.731  0.00  0.00    -0.280 N 
ATOM      3  N   UNL     1      34.482 -17.455 -25.787  0.00  0.00    -0.173 NA
ATOM      4  C   UNL     1      34.827 -17.601 -23.508  0.00  0.00    +0.056 A 
ATOM      5  C   UNL     1      34.451 -16.328 -23.802  0.00  0.00    +0.071 A 
ATOM      6  C   UNL     1      34.255 -16.294 -25.191  0.00  0.00    +0.105 A 
ATOM      7  C   UNL     1      34.192 -15.046 -23.205  0.00  0.00    +0.199 C 
ATOM      8  C   UNL     1      33.808 -14.192 -24.385  0.00  0.00    +0.054 C 
ATOM      9  C   UNL     1      33.855 -14.974 -25.572  0.00  0.00    +0.024 C 
ATOM     10  C   UNL     1      33.454 -12.874 -24.422  0.00  0.00    +0.053 C 
ATOM     11  C   UNL     1      33.548 -14.437 -26.801  0.00  0.00    +0.002 C 
ATOM     12  C   UNL     1      33.140 -12.309 -25.649  0.00  0.00    +0.015 C 
ATOM     13  C   UNL     1      33.187 -13.084 -26.830  0.00  0.00    +0.001 C 
ATOM     14  H   UNL     1      35.070 -19.191 -24.832  0.00  0.00    +0.189 HD
ENDROOT
BRANCH   4  15
ATOM     15  C   UNL     1      35.189 -18.307 -22.210  0.00  0.00    +0.040 C 
ATOM     16  C   UNL     1      34.377 -19.599 -22.016  0.00  0.00    +0.006 C 
ATOM     17  C   UNL     1      36.699 -18.579 -22.107  0.00  0.00    +0.006 C 
ATOM     18  C   UNL     1      34.742 -20.296 -20.705  0.00  0.00    +0.000 C 
ATOM     19  C   UNL     1      37.052 -19.280 -20.797  0.00  0.00    +0.000 C 
ATOM     20  C   UNL     1      36.242 -20.559 -20.606  0.00  0.00    +0.000 C 
ENDBRANCH   4  15
BRANCH  10  22
ATOM     21  O   UNL     1      31.266 -12.540 -22.395  0.00  0.00    -0.277 OA
ATOM     22  N   UNL     1      33.404 -12.083 -23.249  0.00  0.00    -0.286 N 
ATOM     23  C   UNL     1      32.353 -11.973 -22.342  0.00  0.00    +0.205 C 
ATOM     24  H   UNL     1      34.208 -11.550 -23.051  0.00  0.00    +0.155 HD
BRANCH  23  25
ATOM     25  C   UNL     1      32.723 -11.015 -21.224  0.00  0.00    +0.010 C 
BRANCH  25  26
ATOM     26  N   UNL     1      32.056  -9.731 -21.443  0.00  0.00    +0.393 N 
ATOM     27  C   UNL     1      31.939  -6.895 -22.181  0.00  0.00    -0.026 C 
ATOM     28  C   UNL     1      31.437  -8.008 -23.107  0.00  0.00    -0.025 C 
ATOM     29  C   UNL     1      31.883  -7.369 -20.725  0.00  0.00    -0.025 C 
ATOM     30  C   UNL     1      32.174  -9.324 -22.850  0.00  0.00    -0.077 C 
ATOM     31  C   UNL     1      32.607  -8.705 -20.546  0.00  0.00    -0.077 C 
ATOM     32  H   UNL     1      31.065  -9.837 -21.228  0.00  0.00    -0.079 HD
BRANCH  27  33
ATOM     33  C   UNL     1      31.132  -5.615 -22.373  0.00  0.00    -0.086 C 
BRANCH  33  34
ATOM     34  N   UNL     1      30.683  -5.087 -21.093  0.00  0.00    +0.380 N 
ATOM     35  H   UNL     1      31.366  -5.318 -20.372  0.00  0.00    -0.089 HD
ATOM     36  H   UNL     1      29.781  -5.499 -20.852  0.00  0.00    -0.089 HD
ATOM     37  H   UNL     1      30.588  -4.073 -21.159  0.00  0.00    -0.089 HD
ENDBRANCH  33  34
ENDBRANCH  27  33
ENDBRANCH  25  26
ENDBRANCH  23  25
ENDBRANCH  10  22
TORSDOF 6
ENDMDL
MODEL 7
REMARK VINA RESULT:      -9.8      2.766      7.663
REMARK  Name = 5288017
REMARK  6 active torsions:
REMARK  status: ('A' for Active; 'I' for Inactive)
REMARK    1  A    between atoms: C_4  and  C_15
REMARK    2  A    between atoms: C_10  and  N_22
REMARK    3  A    between atoms: C_23  and  C_25
REMARK    4  A    between atoms: C_25  and  N_26
REMARK    5  A    between atoms: C_27  and  C_33
REMARK    6  A    between atoms: C_33  and  N_34
REMARK                            x       y       z     vdW  Elec       q    Type
REMARK                         _______ _______ _______ _____ _____    ______ ____
ROOT
ATOM      1  O   UNL     1      32.459 -22.715 -17.946  0.00  0.00    -0.286 OA
ATOM      2  N   UNL     1      32.351 -24.285 -13.772  0.00  0.00    -0.280 N 
ATOM      3  N   UNL     1      33.704 -24.143 -13.711  0.00  0.00    -0.173 NA
ATOM      4  C   UNL     1      31.785 -23.906 -14.973  0.00  0.00    +0.056 A 
ATOM      5  C   UNL     1      32.843 -23.498 -15.724  0.00  0.00    +0.071 A 
ATOM      6  C   UNL     1      33.977 -23.662 -14.914  0.00  0.00    +0.105 A 
ATOM      7  C   UNL     1      33.193 -22.974 -17.016  0.00  0.00    +0.199 C 
ATOM      8  C   UNL     1      34.689 -22.824 -16.928  0.00  0.00    +0.054 C 
ATOM      9  C   UNL     1      35.135 -23.248 -15.646  0.00  0.00    +0.024 C 
ATOM     10  C   UNL     1      35.571 -22.368 -17.866  0.00  0.00    +0.053 C 
ATOM     11  C   UNL     1      36.466 -23.215 -15.299  0.00  0.00    +0.002 C 
ATOM     12  C   UNL     1      36.918 -22.325 -17.540  0.00  0.00    +0.015 C 
ATOM     13  C   UNL     1      37.362 -22.745 -16.266  0.00  0.00    +0.001 C 
ATOM     14  H   UNL     1      31.818 -24.630 -13.019  0.00  0.00    +0.189 HD
ENDROOT
BRANCH   4  15
ATOM     15  C   UNL     1      30.289 -23.989 -15.238  0.00  0.00    +0.040 C 
ATOM     16  C   UNL     1      29.649 -22.595 -15.345  0.00  0.00    +0.006 C 
ATOM     17  C   UNL     1      29.974 -24.842 -16.479  0.00  0.00    +0.006 C 
ATOM     18  C   UNL     1      28.146 -22.689 -15.604  0.00  0.00    +0.000 C 
ATOM     19  C   UNL     1      28.470 -24.925 -16.732  0.00  0.00    +0.000 C 
ATOM     20  C   UNL     1      27.838 -23.540 -16.833  0.00  0.00    +0.000 C 
ENDBRANCH   4  15
BRANCH  10  22
ATOM     21  O   UNL     1      36.870 -20.510 -19.832  0.00  0.00    -0.277 OA
ATOM     22  N   UNL     1      35.142 -21.942 -19.146  0.00  0.00    -0.286 N 
ATOM     23  C   UNL     1      35.796 -21.074 -20.017  0.00  0.00    +0.205 C 
ATOM     24  H   UNL     1      34.280 -22.303 -19.458  0.00  0.00    +0.155 HD
BRANCH  23  25
ATOM     25  C   UNL     1      34.983 -20.891 -21.286  0.00  0.00    +0.010 C 
BRANCH  25  26
ATOM     26  N   UNL     1      35.310 -19.600 -21.892  0.00  0.00    +0.393 N 
ATOM     27  C   UNL     1      34.695 -16.940 -22.963  0.00  0.00    -0.026 C 
ATOM     28  C   UNL     1      35.331 -17.145 -21.583  0.00  0.00    -0.025 C 
ATOM     29  C   UNL     1      35.019 -18.136 -23.865  0.00  0.00    -0.025 C 
ATOM     30  C   UNL     1      34.947 -18.500 -20.987  0.00  0.00    -0.077 C 
ATOM     31  C   UNL     1      34.643 -19.458 -23.193  0.00  0.00    -0.077 C 
ATOM     32  H   UNL     1      36.317 -19.559 -22.048  0.00  0.00    -0.079 HD
BRANCH  27  33
ATOM     33  C   UNL     1      35.162 -15.633 -23.594  0.00  0.00    -0.086 C 
BRANCH  33  34
ATOM     34  N   UNL     1      34.557 -14.488 -22.929  0.00  0.00    +0.380 N 
ATOM     35  H   UNL     1      33.594 -14.712 -22.679  0.00  0.00    -0.089 HD
ATOM     36  H   UNL     1      34.567 -13.685 -23.558  0.00  0.00    -0.089 HD
ATOM     37  H   UNL     1      35.085 -14.267 -22.086  0.00  0.00    -0.089 HD
ENDBRANCH  33  34
ENDBRANCH  27  33
ENDBRANCH  25  26
ENDBRANCH  23  25
ENDBRANCH  10  22
TORSDOF 6
ENDMDL
MODEL 8
REMARK VINA RESULT:      -9.7      2.895      7.432
REMARK  Name = 5288017
REMARK  6 active torsions:
REMARK  status: ('A' for Active; 'I' for Inactive)
REMARK    1  A    between atoms: C_4  and  C_15
REMARK    2  A    between atoms: C_10  and  N_22
REMARK    3  A    between atoms: C_23  and  C_25
REMARK    4  A    between atoms: C_25  and  N_26
REMARK    5  A    between atoms: C_27  and  C_33
REMARK    6  A    between atoms: C_33  and  N_34
REMARK                            x       y       z     vdW  Elec       q    Type
REMARK                         _______ _______ _______ _____ _____    ______ ____
ROOT
ATOM      1  O   UNL     1      36.119 -24.438 -16.009  0.00  0.00    -0.286 OA
ATOM      2  N   UNL     1      36.075 -25.413 -11.656  0.00  0.00    -0.280 N 
ATOM      3  N   UNL     1      34.779 -24.997 -11.602  0.00  0.00    -0.173 NA
ATOM      4  C   UNL     1      36.658 -25.322 -12.904  0.00  0.00    +0.056 A 
ATOM      5  C   UNL     1      35.674 -24.817 -13.694  0.00  0.00    +0.071 A 
ATOM      6  C   UNL     1      34.561 -24.639 -12.859  0.00  0.00    +0.105 A 
ATOM      7  C   UNL     1      35.385 -24.414 -15.044  0.00  0.00    +0.199 C 
ATOM      8  C   UNL     1      33.951 -23.959 -14.964  0.00  0.00    +0.054 C 
ATOM      9  C   UNL     1      33.479 -24.106 -13.630  0.00  0.00    +0.024 C 
ATOM     10  C   UNL     1      33.142 -23.467 -15.947  0.00  0.00    +0.053 C 
ATOM     11  C   UNL     1      32.195 -23.762 -13.278  0.00  0.00    +0.002 C 
ATOM     12  C   UNL     1      31.842 -23.113 -15.618  0.00  0.00    +0.015 C 
ATOM     13  C   UNL     1      31.372 -23.260 -14.293  0.00  0.00    +0.001 C 
ATOM     14  H   UNL     1      36.557 -25.752 -10.868  0.00  0.00    +0.189 HD
ENDROOT
BRANCH   4  15
ATOM     15  C   UNL     1      38.098 -25.737 -13.170  0.00  0.00    +0.040 C 
ATOM     16  C   UNL     1      38.209 -26.664 -14.392  0.00  0.00    +0.006 C 
ATOM     17  C   UNL     1      39.028 -24.520 -13.308  0.00  0.00    +0.006 C 
ATOM     18  C   UNL     1      39.657 -27.082 -14.646  0.00  0.00    +0.000 C 
ATOM     19  C   UNL     1      40.472 -24.949 -13.566  0.00  0.00    +0.000 C 
ATOM     20  C   UNL     1      40.578 -25.871 -14.777  0.00  0.00    +0.000 C 
ENDBRANCH   4  15
BRANCH  10  22
ATOM     21  O   UNL     1      31.967 -21.926 -18.239  0.00  0.00    -0.277 OA
ATOM     22  N   UNL     1      33.597 -23.316 -17.279  0.00  0.00    -0.286 N 
ATOM     23  C   UNL     1      33.004 -22.579 -18.302  0.00  0.00    +0.205 C 
ATOM     24  H   UNL     1      34.431 -23.785 -17.509  0.00  0.00    +0.155 HD
BRANCH  23  25
ATOM     25  C   UNL     1      33.827 -22.689 -19.574  0.00  0.00    +0.010 C 
BRANCH  25  26
ATOM     26  N   UNL     1      34.440 -21.394 -19.869  0.00  0.00    +0.393 N 
ATOM     27  C   UNL     1      35.785 -19.424 -21.575  0.00  0.00    -0.026 C 
ATOM     28  C   UNL     1      34.297 -19.326 -21.221  0.00  0.00    -0.025 C 
ATOM     29  C   UNL     1      36.525 -20.214 -20.490  0.00  0.00    -0.025 C 
ATOM     30  C   UNL     1      33.700 -20.706 -20.936  0.00  0.00    -0.077 C 
ATOM     31  C   UNL     1      35.854 -21.564 -20.231  0.00  0.00    -0.077 C 
ATOM     32  H   UNL     1      34.397 -20.813 -19.032  0.00  0.00    -0.079 HD
BRANCH  27  33
ATOM     33  C   UNL     1      36.397 -18.038 -21.759  0.00  0.00    -0.086 C 
BRANCH  33  34
ATOM     34  N   UNL     1      35.864 -17.388 -22.947  0.00  0.00    +0.380 N 
ATOM     35  H   UNL     1      34.869 -17.210 -22.819  0.00  0.00    -0.089 HD
ATOM     36  H   UNL     1      36.000 -17.995 -23.756  0.00  0.00    -0.089 HD
ATOM     37  H   UNL     1      36.351 -16.505 -23.098  0.00  0.00    -0.089 HD
ENDBRANCH  33  34
ENDBRANCH  27  33
ENDBRANCH  25  26
ENDBRANCH  23  25
ENDBRANCH  10  22
TORSDOF 6
ENDMDL
MODEL 9
REMARK VINA RESULT:      -8.9      7.098     11.237
REMARK  Name = 5288017
REMARK  6 active torsions:
REMARK  status: ('A' for Active; 'I' for Inactive)
REMARK    1  A    between atoms: C_4  and  C_15
REMARK    2  A    between atoms: C_10  and  N_22
REMARK    3  A    between atoms: C_23  and  C_25
REMARK    4  A    between atoms: C_25  and  N_26
REMARK    5  A    between atoms: C_27  and  C_33
REMARK    6  A    between atoms: C_33  and  N_34
REMARK                            x       y       z     vdW  Elec       q    Type
REMARK                         _______ _______ _______ _____ _____    ______ ____
ROOT
ATOM      1  O   UNL     1      34.948 -14.874 -22.582  0.00  0.00    -0.286 OA
ATOM      2  N   UNL     1      32.927 -12.790 -25.969  0.00  0.00    -0.280 N 
ATOM      3  N   UNL     1      32.702 -14.003 -26.547  0.00  0.00    -0.173 NA
ATOM      4  C   UNL     1      33.595 -12.842 -24.762  0.00  0.00    +0.056 A 
ATOM      5  C   UNL     1      33.809 -14.169 -24.558  0.00  0.00    +0.071 A 
ATOM      6  C   UNL     1      33.250 -14.825 -25.665  0.00  0.00    +0.105 A 
ATOM      7  C   UNL     1      34.389 -15.105 -23.633  0.00  0.00    +0.199 C 
ATOM      8  C   UNL     1      34.130 -16.436 -24.288  0.00  0.00    +0.054 C 
ATOM      9  C   UNL     1      33.439 -16.236 -25.515  0.00  0.00    +0.024 C 
ATOM     10  C   UNL     1      34.460 -17.691 -23.862  0.00  0.00    +0.053 C 
ATOM     11  C   UNL     1      33.077 -17.292 -26.319  0.00  0.00    +0.002 C 
ATOM     12  C   UNL     1      34.106 -18.772 -24.655  0.00  0.00    +0.015 C 
ATOM     13  C   UNL     1      33.419 -18.574 -25.874  0.00  0.00    +0.001 C 
ATOM     14  H   UNL     1      32.637 -11.944 -26.379  0.00  0.00    +0.189 HD
ENDROOT
BRANCH   4  15
ATOM     15  C   UNL     1      33.941 -11.596 -23.960  0.00  0.00    +0.040 C 
ATOM     16  C   UNL     1      34.703 -10.563 -24.807  0.00  0.00    +0.006 C 
ATOM     17  C   UNL     1      32.695 -10.970 -23.309  0.00  0.00    +0.006 C 
ATOM     18  C   UNL     1      35.053  -9.320 -23.991  0.00  0.00    +0.000 C 
ATOM     19  C   UNL     1      33.055  -9.726 -22.499  0.00  0.00    +0.000 C 
ATOM     20  C   UNL     1      33.815  -8.705 -23.342  0.00  0.00    +0.000 C 
ENDBRANCH   4  15
BRANCH  10  22
ATOM     21  O   UNL     1      36.849 -19.402 -23.251  0.00  0.00    -0.277 OA
ATOM     22  N   UNL     1      35.146 -17.906 -22.642  0.00  0.00    -0.286 N 
ATOM     23  C   UNL     1      36.258 -18.716 -22.424  0.00  0.00    +0.205 C 
ATOM     24  H   UNL     1      34.797 -17.426 -21.857  0.00  0.00    +0.155 HD
BRANCH  23  25
ATOM     25  C   UNL     1      36.673 -18.655 -20.964  0.00  0.00    +0.010 C 
BRANCH  25  26
ATOM     26  N   UNL     1      35.910 -19.642 -20.200  0.00  0.00    +0.393 N 
ATOM     27  C   UNL     1      34.673 -22.261 -19.739  0.00  0.00    -0.026 C 
ATOM     28  C   UNL     1      35.975 -21.834 -19.053  0.00  0.00    -0.025 C 
ATOM     29  C   UNL     1      33.856 -21.021 -20.118  0.00  0.00    -0.025 C 
ATOM     30  C   UNL     1      36.743 -20.815 -19.898  0.00  0.00    -0.077 C 
ATOM     31  C   UNL     1      34.694 -20.030 -20.929  0.00  0.00    -0.077 C 
ATOM     32  H   UNL     1      35.626 -19.222 -19.315  0.00  0.00    -0.079 HD
BRANCH  27  33
ATOM     33  C   UNL     1      33.865 -23.199 -18.847  0.00  0.00    -0.086 C 
BRANCH  33  34
ATOM     34  N   UNL     1      32.625 -22.568 -18.418  0.00  0.00    +0.380 N 
ATOM     35  H   UNL     1      32.588 -22.552 -17.400  0.00  0.00    -0.089 HD
ATOM     36  H   UNL     1      31.832 -23.098 -18.780  0.00  0.00    -0.089 HD
ATOM     37  H   UNL     1      32.589 -21.614 -18.775  0.00  0.00    -0.089 HD
ENDBRANCH  33  34
ENDBRANCH  27  33
ENDBRANCH  25  26
ENDBRANCH  23  25
ENDBRANCH  10  22
TORSDOF 6
ENDMDL
