MODEL 1
REMARK VINA RESULT:     -12.1      0.000      0.000
REMARK  Name = 23729147
REMARK  5 active torsions:
REMARK  status: ('A' for Active; 'I' for Inactive)
REMARK    1  A    between atoms: O_1  and  C_6
REMARK    2  A    between atoms: O_1  and  C_18
REMARK    3  A    between atoms: C_18  and  C_20
REMARK    4  A    between atoms: N_19  and  C_26
REMARK    5  A    between atoms: C_26  and  C_28
REMARK                            x       y       z     vdW  Elec       q    Type
REMARK                         _______ _______ _______ _____ _____    ______ ____
ROOT
ATOM      1  O   UNL     1      35.029 -23.123 -17.158  0.00  0.00    -0.479 OA
ENDROOT
BRANCH   1   6
ATOM      2  N   UNL     1      36.005 -24.176 -12.529  0.00  0.00    -0.332 NA
ATOM      3  N   UNL     1      37.835 -23.571 -13.975  0.00  0.00    -0.317 NA
ATOM      4  N   UNL     1      37.487 -23.045 -16.220  0.00  0.00    -0.335 N 
ATOM      5  N   UNL     1      38.205 -24.098 -11.722  0.00  0.00    -0.283 N 
ATOM      6  C   UNL     1      34.662 -23.493 -15.886  0.00  0.00    +0.130 C 
ATOM      7  C   UNL     1      35.575 -23.645 -14.828  0.00  0.00    +0.177 C 
ATOM      8  C   UNL     1      33.306 -23.721 -15.674  0.00  0.00    +0.033 C 
ATOM      9  C   UNL     1      35.140 -24.027 -13.548  0.00  0.00    +0.137 C 
ATOM     10  C   UNL     1      36.943 -23.432 -14.973  0.00  0.00    +0.181 C 
ATOM     11  C   UNL     1      32.864 -24.100 -14.412  0.00  0.00    +0.005 C 
ATOM     12  C   UNL     1      33.778 -24.249 -13.364  0.00  0.00    +0.030 C 
ATOM     13  C   UNL     1      37.305 -23.940 -12.797  0.00  0.00    +0.197 C 
ATOM     14  H   UNL     1      38.456 -22.897 -16.310  0.00  0.00    +0.144 HD
ATOM     15  H   UNL     1      36.896 -22.922 -16.998  0.00  0.00    +0.144 HD
ATOM     16  H   UNL     1      37.873 -24.366 -10.836  0.00  0.00    +0.156 HD
ATOM     17  H   UNL     1      39.168 -23.938 -11.858  0.00  0.00    +0.156 HD
ENDBRANCH   1   6
BRANCH   1  18
ATOM     18  C   UNL     1      33.989 -22.950 -18.101  0.00  0.00    +0.205 C 
BRANCH  18  20
ATOM     19  N   UNL     1      35.498 -19.844 -20.697  0.00  0.00    +0.390 N 
ATOM     20  C   UNL     1      34.566 -22.270 -19.340  0.00  0.00    +0.040 C 
ATOM     21  C   UNL     1      35.922 -21.626 -19.034  0.00  0.00    -0.019 C 
ATOM     22  C   UNL     1      33.603 -21.212 -19.887  0.00  0.00    -0.019 C 
ATOM     23  C   UNL     1      36.460 -20.858 -20.243  0.00  0.00    -0.077 C 
ATOM     24  C   UNL     1      34.217 -20.457 -21.069  0.00  0.00    -0.077 C 
ATOM     25  H   UNL     1      35.327 -19.204 -19.922  0.00  0.00    -0.079 HD
BRANCH  19  26
ATOM     26  C   UNL     1      36.048 -19.085 -21.820  0.00  0.00    -0.048 C 
BRANCH  26  28
ATOM     27  F   UNL     1      35.531 -17.667 -24.220  0.00  0.00    -0.205 F 
ATOM     28  C   UNL     1      35.533 -17.670 -21.845  0.00  0.00    -0.016 C 
ATOM     29  C   UNL     1      35.301 -17.031 -23.063  0.00  0.00    +0.134 C 
ATOM     30  C   UNL     1      35.290 -16.999 -20.647  0.00  0.00    -0.004 C 
ATOM     31  C   UNL     1      34.825 -15.719 -23.082  0.00  0.00    +0.029 C 
ATOM     32  C   UNL     1      34.814 -15.688 -20.666  0.00  0.00    -0.000 C 
ATOM     33  C   UNL     1      34.582 -15.047 -21.884  0.00  0.00    +0.002 C 
ENDBRANCH  26  28
ENDBRANCH  19  26
ENDBRANCH  18  20
ENDBRANCH   1  18
TORSDOF 5
ENDMDL
MODEL 2
REMARK VINA RESULT:     -12.0      1.465      2.333
REMARK  Name = 23729147
REMARK  5 active torsions:
REMARK  status: ('A' for Active; 'I' for Inactive)
REMARK    1  A    between atoms: O_1  and  C_6
REMARK    2  A    between atoms: O_1  and  C_18
REMARK    3  A    between atoms: C_18  and  C_20
REMARK    4  A    between atoms: N_19  and  C_26
REMARK    5  A    between atoms: C_26  and  C_28
REMARK                            x       y       z     vdW  Elec       q    Type
REMARK                         _______ _______ _______ _____ _____    ______ ____
ROOT
ATOM      1  O   UNL     1      34.469 -23.336 -17.474  0.00  0.00    -0.479 OA
ENDROOT
BRANCH   1   6
ATOM      2  N   UNL     1      33.790 -24.319 -12.778  0.00  0.00    -0.332 NA
ATOM      3  N   UNL     1      36.050 -24.212 -13.609  0.00  0.00    -0.317 NA
ATOM      4  N   UNL     1      36.498 -23.747 -15.850  0.00  0.00    -0.335 N 
ATOM      5  N   UNL     1      35.619 -24.681 -11.355  0.00  0.00    -0.283 N 
ATOM      6  C   UNL     1      33.674 -23.545 -16.373  0.00  0.00    +0.130 C 
ATOM      7  C   UNL     1      34.180 -23.836 -15.095  0.00  0.00    +0.177 C 
ATOM      8  C   UNL     1      32.300 -23.458 -16.575  0.00  0.00    +0.033 C 
ATOM      9  C   UNL     1      33.317 -24.042 -14.006  0.00  0.00    +0.137 C 
ATOM     10  C   UNL     1      35.542 -23.936 -14.825  0.00  0.00    +0.181 C 
ATOM     11  C   UNL     1      31.436 -23.661 -15.505  0.00  0.00    +0.005 C 
ATOM     12  C   UNL     1      31.947 -23.948 -14.236  0.00  0.00    +0.030 C 
ATOM     13  C   UNL     1      35.131 -24.389 -12.646  0.00  0.00    +0.197 C 
ATOM     14  H   UNL     1      37.458 -23.820 -15.648  0.00  0.00    +0.144 HD
ATOM     15  H   UNL     1      36.203 -23.541 -16.767  0.00  0.00    +0.144 HD
ATOM     16  H   UNL     1      34.991 -24.821 -10.610  0.00  0.00    +0.156 HD
ATOM     17  H   UNL     1      36.590 -24.744 -11.198  0.00  0.00    +0.156 HD
ENDBRANCH   1   6
BRANCH   1  18
ATOM     18  C   UNL     1      33.814 -23.012 -18.687  0.00  0.00    +0.205 C 
BRANCH  18  20
ATOM     19  N   UNL     1      35.436 -20.063 -21.395  0.00  0.00    +0.390 N 
ATOM     20  C   UNL     1      34.369 -21.685 -19.198  0.00  0.00    +0.040 C 
ATOM     21  C   UNL     1      33.477 -21.101 -20.298  0.00  0.00    -0.019 C 
ATOM     22  C   UNL     1      35.798 -21.853 -19.725  0.00  0.00    -0.019 C 
ATOM     23  C   UNL     1      34.079 -19.823 -20.885  0.00  0.00    -0.077 C 
ATOM     24  C   UNL     1      36.324 -20.550 -20.331  0.00  0.00    -0.077 C 
ATOM     25  H   UNL     1      35.379 -20.786 -22.112  0.00  0.00    -0.079 HD
BRANCH  19  26
ATOM     26  C   UNL     1      35.978 -18.846 -21.998  0.00  0.00    -0.048 C 
BRANCH  26  28
ATOM     27  F   UNL     1      35.584 -16.157 -22.806  0.00  0.00    -0.205 F 
ATOM     28  C   UNL     1      35.237 -18.464 -23.252  0.00  0.00    -0.016 C 
ATOM     29  C   UNL     1      35.079 -17.119 -23.590  0.00  0.00    +0.134 C 
ATOM     30  C   UNL     1      34.707 -19.457 -24.074  0.00  0.00    -0.004 C 
ATOM     31  C   UNL     1      34.390 -16.769 -24.752  0.00  0.00    +0.029 C 
ATOM     32  C   UNL     1      34.019 -19.107 -25.236  0.00  0.00    -0.000 C 
ATOM     33  C   UNL     1      33.860 -17.763 -25.575  0.00  0.00    +0.002 C 
ENDBRANCH  26  28
ENDBRANCH  19  26
ENDBRANCH  18  20
ENDBRANCH   1  18
TORSDOF 5
ENDMDL
MODEL 3
REMARK VINA RESULT:     -11.7      2.617      3.795
REMARK  Name = 23729147
REMARK  5 active torsions:
REMARK  status: ('A' for Active; 'I' for Inactive)
REMARK    1  A    between atoms: O_1  and  C_6
REMARK    2  A    between atoms: O_1  and  C_18
REMARK    3  A    between atoms: C_18  and  C_20
REMARK    4  A    between atoms: N_19  and  C_26
REMARK    5  A    between atoms: C_26  and  C_28
REMARK                            x       y       z     vdW  Elec       q    Type
REMARK                         _______ _______ _______ _____ _____    ______ ____
ROOT
ATOM      1  O   UNL     1      33.019 -22.809 -17.800  0.00  0.00    -0.479 OA
ENDROOT
BRANCH   1   6
ATOM      2  N   UNL     1      32.315 -24.638 -13.367  0.00  0.00    -0.332 NA
ATOM      3  N   UNL     1      30.383 -24.044 -14.680  0.00  0.00    -0.317 NA
ATOM      4  N   UNL     1      30.599 -23.155 -16.826  0.00  0.00    -0.335 N 
ATOM      5  N   UNL     1      30.146 -24.935 -12.526  0.00  0.00    -0.283 N 
ATOM      6  C   UNL     1      33.466 -23.319 -16.604  0.00  0.00    +0.130 C 
ATOM      7  C   UNL     1      32.610 -23.729 -15.568  0.00  0.00    +0.177 C 
ATOM      8  C   UNL     1      34.845 -23.419 -16.449  0.00  0.00    +0.033 C 
ATOM      9  C   UNL     1      33.125 -24.242 -14.366  0.00  0.00    +0.137 C 
ATOM     10  C   UNL     1      31.222 -23.657 -15.659  0.00  0.00    +0.181 C 
ATOM     11  C   UNL     1      35.366 -23.924 -15.264  0.00  0.00    +0.005 C 
ATOM     12  C   UNL     1      34.508 -24.331 -14.238  0.00  0.00    +0.030 C 
ATOM     13  C   UNL     1      30.989 -24.517 -13.579  0.00  0.00    +0.197 C 
ATOM     14  H   UNL     1      29.618 -23.109 -16.879  0.00  0.00    +0.144 HD
ATOM     15  H   UNL     1      31.148 -22.853 -17.586  0.00  0.00    +0.144 HD
ATOM     16  H   UNL     1      30.535 -25.291 -11.695  0.00  0.00    +0.156 HD
ATOM     17  H   UNL     1      29.168 -24.871 -12.624  0.00  0.00    +0.156 HD
ENDBRANCH   1   6
BRANCH   1  18
ATOM     18  C   UNL     1      33.847 -23.005 -18.931  0.00  0.00    +0.205 C 
BRANCH  18  20
ATOM     19  N   UNL     1      35.364 -19.910 -21.534  0.00  0.00    +0.390 N 
ATOM     20  C   UNL     1      34.367 -21.646 -19.393  0.00  0.00    +0.040 C 
ATOM     21  C   UNL     1      33.445 -21.036 -20.454  0.00  0.00    -0.019 C 
ATOM     22  C   UNL     1      35.790 -21.761 -19.948  0.00  0.00    -0.019 C 
ATOM     23  C   UNL     1      34.011 -19.722 -20.995  0.00  0.00    -0.077 C 
ATOM     24  C   UNL     1      36.279 -20.422 -20.506  0.00  0.00    -0.077 C 
ATOM     25  H   UNL     1      35.312 -20.603 -22.281  0.00  0.00    -0.079 HD
BRANCH  19  26
ATOM     26  C   UNL     1      35.871 -18.657 -22.093  0.00  0.00    -0.048 C 
BRANCH  26  28
ATOM     27  F   UNL     1      35.486 -15.961 -22.880  0.00  0.00    -0.205 F 
ATOM     28  C   UNL     1      35.134 -18.263 -23.345  0.00  0.00    -0.016 C 
ATOM     29  C   UNL     1      34.980 -16.915 -23.673  0.00  0.00    +0.134 C 
ATOM     30  C   UNL     1      34.603 -19.248 -24.177  0.00  0.00    -0.004 C 
ATOM     31  C   UNL     1      34.295 -16.554 -24.834  0.00  0.00    +0.029 C 
ATOM     32  C   UNL     1      33.918 -18.887 -25.337  0.00  0.00    -0.000 C 
ATOM     33  C   UNL     1      33.764 -17.540 -25.666  0.00  0.00    +0.002 C 
ENDBRANCH  26  28
ENDBRANCH  19  26
ENDBRANCH  18  20
ENDBRANCH   1  18
TORSDOF 5
ENDMDL
MODEL 4
REMARK VINA RESULT:     -11.7      5.870     12.001
REMARK  Name = 23729147
REMARK  5 active torsions:
REMARK  status: ('A' for Active; 'I' for Inactive)
REMARK    1  A    between atoms: O_1  and  C_6
REMARK    2  A    between atoms: O_1  and  C_18
REMARK    3  A    between atoms: C_18  and  C_20
REMARK    4  A    between atoms: N_19  and  C_26
REMARK    5  A    between atoms: C_26  and  C_28
REMARK                            x       y       z     vdW  Elec       q    Type
REMARK                         _______ _______ _______ _____ _____    ______ ____
ROOT
ATOM      1  O   UNL     1      34.070 -12.976 -23.635  0.00  0.00    -0.479 OA
ENDROOT
BRANCH   1   6
ATOM      2  N   UNL     1      32.400  -8.559 -22.548  0.00  0.00    -0.332 NA
ATOM      3  N   UNL     1      34.280  -8.734 -24.044  0.00  0.00    -0.317 NA
ATOM      4  N   UNL     1      35.170 -10.807 -24.639  0.00  0.00    -0.335 N 
ATOM      5  N   UNL     1      33.401  -6.643 -23.458  0.00  0.00    -0.283 N 
ATOM      6  C   UNL     1      33.206 -12.121 -22.994  0.00  0.00    +0.130 C 
ATOM      7  C   UNL     1      33.264 -10.722 -23.118  0.00  0.00    +0.177 C 
ATOM      8  C   UNL     1      32.238 -12.709 -22.186  0.00  0.00    +0.033 C 
ATOM      9  C   UNL     1      32.354  -9.898 -22.435  0.00  0.00    +0.137 C 
ATOM     10  C   UNL     1      34.206 -10.072 -23.910  0.00  0.00    +0.181 C 
ATOM     11  C   UNL     1      31.332 -11.903 -21.505  0.00  0.00    +0.005 C 
ATOM     12  C   UNL     1      31.395 -10.513 -21.635  0.00  0.00    +0.030 C 
ATOM     13  C   UNL     1      33.360  -8.050 -23.346  0.00  0.00    +0.197 C 
ATOM     14  H   UNL     1      35.831 -10.335 -25.195  0.00  0.00    +0.144 HD
ATOM     15  H   UNL     1      35.179 -11.790 -24.592  0.00  0.00    +0.144 HD
ATOM     16  H   UNL     1      32.751  -6.091 -22.968  0.00  0.00    +0.156 HD
ATOM     17  H   UNL     1      34.080  -6.214 -24.027  0.00  0.00    +0.156 HD
ENDBRANCH   1   6
BRANCH   1  18
ATOM     18  C   UNL     1      33.574 -14.259 -23.968  0.00  0.00    +0.205 C 
BRANCH  18  20
ATOM     19  N   UNL     1      35.118 -17.913 -22.259  0.00  0.00    +0.390 N 
ATOM     20  C   UNL     1      34.573 -15.306 -23.484  0.00  0.00    +0.040 C 
ATOM     21  C   UNL     1      34.403 -16.625 -24.245  0.00  0.00    -0.019 C 
ATOM     22  C   UNL     1      34.426 -15.554 -21.980  0.00  0.00    -0.019 C 
ATOM     23  C   UNL     1      35.333 -17.709 -23.698  0.00  0.00    -0.077 C 
ATOM     24  C   UNL     1      35.355 -16.674 -21.506  0.00  0.00    -0.077 C 
ATOM     25  H   UNL     1      34.145 -18.183 -22.121  0.00  0.00    -0.079 HD
BRANCH  19  26
ATOM     26  C   UNL     1      35.978 -18.987 -21.761  0.00  0.00    -0.048 C 
BRANCH  26  28
ATOM     27  F   UNL     1      37.209 -20.962 -20.142  0.00  0.00    -0.205 F 
ATOM     28  C   UNL     1      35.200 -20.010 -20.977  0.00  0.00    -0.016 C 
ATOM     29  C   UNL     1      35.870 -20.955 -20.199  0.00  0.00    +0.134 C 
ATOM     30  C   UNL     1      33.807 -20.011 -21.029  0.00  0.00    -0.004 C 
ATOM     31  C   UNL     1      35.145 -21.902 -19.475  0.00  0.00    +0.029 C 
ATOM     32  C   UNL     1      33.082 -20.958 -20.305  0.00  0.00    -0.000 C 
ATOM     33  C   UNL     1      33.751 -21.903 -19.528  0.00  0.00    +0.002 C 
ENDBRANCH  26  28
ENDBRANCH  19  26
ENDBRANCH  18  20
ENDBRANCH   1  18
TORSDOF 5
ENDMDL
MODEL 5
REMARK VINA RESULT:     -11.5      5.754     11.805
REMARK  Name = 23729147
REMARK  5 active torsions:
REMARK  status: ('A' for Active; 'I' for Inactive)
REMARK    1  A    between atoms: O_1  and  C_6
REMARK    2  A    between atoms: O_1  and  C_18
REMARK    3  A    between atoms: C_18  and  C_20
REMARK    4  A    between atoms: N_19  and  C_26
REMARK    5  A    between atoms: C_26  and  C_28
REMARK                            x       y       z     vdW  Elec       q    Type
REMARK                         _______ _______ _______ _____ _____    ______ ____
ROOT
ATOM      1  O   UNL     1      33.093 -13.672 -23.648  0.00  0.00    -0.479 OA
ENDROOT
BRANCH   1   6
ATOM      2  N   UNL     1      33.043  -8.950 -22.560  0.00  0.00    -0.332 NA
ATOM      3  N   UNL     1      31.726 -10.449 -21.208  0.00  0.00    -0.317 NA
ATOM      4  N   UNL     1      31.673 -12.741 -21.638  0.00  0.00    -0.335 N 
ATOM      5  N   UNL     1      31.767  -8.149 -20.762  0.00  0.00    -0.283 N 
ATOM      6  C   UNL     1      33.476 -12.368 -23.852  0.00  0.00    +0.130 C 
ATOM      7  C   UNL     1      33.034 -11.296 -23.057  0.00  0.00    +0.177 C 
ATOM      8  C   UNL     1      34.348 -12.136 -24.911  0.00  0.00    +0.033 C 
ATOM      9  C   UNL     1      33.459  -9.983 -23.314  0.00  0.00    +0.137 C 
ATOM     10  C   UNL     1      32.163 -11.460 -21.983  0.00  0.00    +0.181 C 
ATOM     11  C   UNL     1      34.775 -10.840 -25.175  0.00  0.00    +0.005 C 
ATOM     12  C   UNL     1      34.332  -9.779 -24.380  0.00  0.00    +0.030 C 
ATOM     13  C   UNL     1      32.199  -9.239 -21.548  0.00  0.00    +0.197 C 
ATOM     14  H   UNL     1      31.058 -12.844 -20.876  0.00  0.00    +0.144 HD
ATOM     15  H   UNL     1      31.948 -13.531 -22.158  0.00  0.00    +0.144 HD
ATOM     16  H   UNL     1      32.082  -7.240 -20.965  0.00  0.00    +0.156 HD
ATOM     17  H   UNL     1      31.151  -8.300 -20.008  0.00  0.00    +0.156 HD
ENDBRANCH   1   6
BRANCH   1  18
ATOM     18  C   UNL     1      33.443 -14.608 -24.651  0.00  0.00    +0.205 C 
BRANCH  18  20
ATOM     19  N   UNL     1      35.040 -17.950 -22.429  0.00  0.00    +0.390 N 
ATOM     20  C   UNL     1      34.455 -15.589 -24.066  0.00  0.00    +0.040 C 
ATOM     21  C   UNL     1      34.184 -17.016 -24.553  0.00  0.00    -0.019 C 
ATOM     22  C   UNL     1      34.435 -15.553 -22.534  0.00  0.00    -0.019 C 
ATOM     23  C   UNL     1      35.131 -18.020 -23.893  0.00  0.00    -0.077 C 
ATOM     24  C   UNL     1      35.374 -16.605 -21.940  0.00  0.00    -0.077 C 
ATOM     25  H   UNL     1      34.076 -18.150 -22.163  0.00  0.00    -0.079 HD
BRANCH  19  26
ATOM     26  C   UNL     1      35.913 -18.949 -21.814  0.00  0.00    -0.048 C 
BRANCH  26  28
ATOM     27  F   UNL     1      37.137 -20.926 -20.191  0.00  0.00    -0.205 F 
ATOM     28  C   UNL     1      35.131 -19.971 -21.031  0.00  0.00    -0.016 C 
ATOM     29  C   UNL     1      35.798 -20.917 -20.251  0.00  0.00    +0.134 C 
ATOM     30  C   UNL     1      33.738 -19.970 -21.087  0.00  0.00    -0.004 C 
ATOM     31  C   UNL     1      35.070 -21.862 -19.528  0.00  0.00    +0.029 C 
ATOM     32  C   UNL     1      33.010 -20.914 -20.363  0.00  0.00    -0.000 C 
ATOM     33  C   UNL     1      33.676 -21.861 -19.585  0.00  0.00    +0.002 C 
ENDBRANCH  26  28
ENDBRANCH  19  26
ENDBRANCH  18  20
ENDBRANCH   1  18
TORSDOF 5
ENDMDL
MODEL 6
REMARK VINA RESULT:     -11.3      2.720      4.428
REMARK  Name = 23729147
REMARK  5 active torsions:
REMARK  status: ('A' for Active; 'I' for Inactive)
REMARK    1  A    between atoms: O_1  and  C_6
REMARK    2  A    between atoms: O_1  and  C_18
REMARK    3  A    between atoms: C_18  and  C_20
REMARK    4  A    between atoms: N_19  and  C_26
REMARK    5  A    between atoms: C_26  and  C_28
REMARK                            x       y       z     vdW  Elec       q    Type
REMARK                         _______ _______ _______ _____ _____    ______ ____
ROOT
ATOM      1  O   UNL     1      34.691 -25.105 -13.370  0.00  0.00    -0.479 OA
ENDROOT
BRANCH   1   6
ATOM      2  N   UNL     1      39.533 -25.254 -13.222  0.00  0.00    -0.332 NA
ATOM      3  N   UNL     1      38.388 -26.747 -14.727  0.00  0.00    -0.317 NA
ATOM      4  N   UNL     1      36.061 -26.765 -14.884  0.00  0.00    -0.335 N 
ATOM      5  N   UNL     1      40.726 -26.744 -14.584  0.00  0.00    -0.283 N 
ATOM      6  C   UNL     1      35.912 -24.687 -12.896  0.00  0.00    +0.130 C 
ATOM      7  C   UNL     1      37.137 -25.219 -13.333  0.00  0.00    +0.177 C 
ATOM      8  C   UNL     1      35.892 -23.683 -11.933  0.00  0.00    +0.033 C 
ATOM      9  C   UNL     1      38.354 -24.752 -12.811  0.00  0.00    +0.137 C 
ATOM     10  C   UNL     1      37.226 -26.223 -14.294  0.00  0.00    +0.181 C 
ATOM     11  C   UNL     1      37.091 -23.214 -11.409  0.00  0.00    +0.005 C 
ATOM     12  C   UNL     1      38.306 -23.747 -11.849  0.00  0.00    +0.030 C 
ATOM     13  C   UNL     1      39.485 -26.224 -14.158  0.00  0.00    +0.197 C 
ATOM     14  H   UNL     1      36.136 -27.474 -15.562  0.00  0.00    +0.144 HD
ATOM     15  H   UNL     1      35.173 -26.432 -14.618  0.00  0.00    +0.144 HD
ATOM     16  H   UNL     1      41.563 -26.398 -14.200  0.00  0.00    +0.156 HD
ATOM     17  H   UNL     1      40.754 -27.454 -15.266  0.00  0.00    +0.156 HD
ENDBRANCH   1   6
BRANCH   1  18
ATOM     18  C   UNL     1      33.748 -24.099 -13.688  0.00  0.00    +0.205 C 
BRANCH  18  20
ATOM     19  N   UNL     1      33.346 -22.658 -17.741  0.00  0.00    +0.390 N 
ATOM     20  C   UNL     1      33.522 -24.107 -15.198  0.00  0.00    +0.040 C 
ATOM     21  C   UNL     1      34.761 -23.599 -15.943  0.00  0.00    -0.019 C 
ATOM     22  C   UNL     1      32.306 -23.256 -15.577  0.00  0.00    -0.019 C 
ATOM     23  C   UNL     1      34.508 -23.509 -17.449  0.00  0.00    -0.077 C 
ATOM     24  C   UNL     1      32.133 -23.177 -17.096  0.00  0.00    -0.077 C 
ATOM     25  H   UNL     1      33.532 -21.730 -17.360  0.00  0.00    -0.079 HD
BRANCH  19  26
ATOM     26  C   UNL     1      33.148 -22.541 -19.185  0.00  0.00    -0.048 C 
BRANCH  26  28
ATOM     27  F   UNL     1      32.350 -20.422 -20.891  0.00  0.00    -0.205 F 
ATOM     28  C   UNL     1      34.122 -21.575 -19.808  0.00  0.00    -0.016 C 
ATOM     29  C   UNL     1      33.660 -20.553 -20.639  0.00  0.00    +0.134 C 
ATOM     30  C   UNL     1      35.486 -21.703 -19.552  0.00  0.00    -0.004 C 
ATOM     31  C   UNL     1      34.565 -19.661 -21.215  0.00  0.00    +0.029 C 
ATOM     32  C   UNL     1      36.391 -20.811 -20.128  0.00  0.00    -0.000 C 
ATOM     33  C   UNL     1      35.930 -19.790 -20.960  0.00  0.00    +0.002 C 
ENDBRANCH  26  28
ENDBRANCH  19  26
ENDBRANCH  18  20
ENDBRANCH   1  18
TORSDOF 5
ENDMDL
MODEL 7
REMARK VINA RESULT:     -11.2      2.498      3.804
REMARK  Name = 23729147
REMARK  5 active torsions:
REMARK  status: ('A' for Active; 'I' for Inactive)
REMARK    1  A    between atoms: O_1  and  C_6
REMARK    2  A    between atoms: O_1  and  C_18
REMARK    3  A    between atoms: C_18  and  C_20
REMARK    4  A    between atoms: N_19  and  C_26
REMARK    5  A    between atoms: C_26  and  C_28
REMARK                            x       y       z     vdW  Elec       q    Type
REMARK                         _______ _______ _______ _____ _____    ______ ____
ROOT
ATOM      1  O   UNL     1      35.591 -21.985 -19.221  0.00  0.00    -0.479 OA
ENDROOT
BRANCH   1   6
ATOM      2  N   UNL     1      33.145 -23.683 -15.397  0.00  0.00    -0.332 NA
ATOM      3  N   UNL     1      31.930 -23.255 -17.435  0.00  0.00    -0.317 NA
ATOM      4  N   UNL     1      33.002 -22.437 -19.338  0.00  0.00    -0.335 N 
ATOM      5  N   UNL     1      30.836 -24.076 -15.532  0.00  0.00    -0.283 N 
ATOM      6  C   UNL     1      35.508 -22.422 -17.920  0.00  0.00    +0.130 C 
ATOM      7  C   UNL     1      34.310 -22.842 -17.319  0.00  0.00    +0.177 C 
ATOM      8  C   UNL     1      36.694 -22.433 -17.193  0.00  0.00    +0.033 C 
ATOM      9  C   UNL     1      34.286 -23.278 -15.983  0.00  0.00    +0.137 C 
ATOM     10  C   UNL     1      33.090 -22.856 -17.990  0.00  0.00    +0.181 C 
ATOM     11  C   UNL     1      36.682 -22.861 -15.871  0.00  0.00    +0.005 C 
ATOM     12  C   UNL     1      35.486 -23.279 -15.279  0.00  0.00    +0.030 C 
ATOM     13  C   UNL     1      32.029 -23.649 -16.155  0.00  0.00    +0.197 C 
ATOM     14  H   UNL     1      32.134 -22.452 -19.803  0.00  0.00    +0.144 HD
ATOM     15  H   UNL     1      33.809 -22.132 -19.813  0.00  0.00    +0.144 HD
ATOM     16  H   UNL     1      30.850 -24.376 -14.596  0.00  0.00    +0.156 HD
ATOM     17  H   UNL     1      29.990 -24.074 -16.037  0.00  0.00    +0.156 HD
ENDBRANCH   1   6
BRANCH   1  18
ATOM     18  C   UNL     1      36.561 -20.994 -19.504  0.00  0.00    +0.205 C 
BRANCH  18  20
ATOM     19  N   UNL     1      35.359 -18.267 -22.631  0.00  0.00    +0.390 N 
ATOM     20  C   UNL     1      36.296 -20.441 -20.902  0.00  0.00    +0.040 C 
ATOM     21  C   UNL     1      37.128 -19.181 -21.164  0.00  0.00    -0.019 C 
ATOM     22  C   UNL     1      34.809 -20.129 -21.097  0.00  0.00    -0.019 C 
ATOM     23  C   UNL     1      36.794 -18.565 -22.523  0.00  0.00    -0.077 C 
ATOM     24  C   UNL     1      34.551 -19.481 -22.460  0.00  0.00    -0.077 C 
ATOM     25  H   UNL     1      35.115 -17.619 -21.882  0.00  0.00    -0.079 HD
BRANCH  19  26
ATOM     26  C   UNL     1      35.064 -17.632 -23.915  0.00  0.00    -0.048 C 
BRANCH  26  28
ATOM     27  F   UNL     1      33.499 -16.305 -25.871  0.00  0.00    -0.205 F 
ATOM     28  C   UNL     1      34.545 -16.229 -23.741  0.00  0.00    -0.016 C 
ATOM     29  C   UNL     1      33.780 -15.635 -24.745  0.00  0.00    +0.134 C 
ATOM     30  C   UNL     1      34.832 -15.524 -22.573  0.00  0.00    -0.004 C 
ATOM     31  C   UNL     1      33.302 -14.335 -24.580  0.00  0.00    +0.029 C 
ATOM     32  C   UNL     1      34.354 -14.224 -22.408  0.00  0.00    -0.000 C 
ATOM     33  C   UNL     1      33.589 -13.629 -23.412  0.00  0.00    +0.002 C 
ENDBRANCH  26  28
ENDBRANCH  19  26
ENDBRANCH  18  20
ENDBRANCH   1  18
TORSDOF 5
ENDMDL
MODEL 8
REMARK VINA RESULT:     -11.1      3.737     10.259
REMARK  Name = 23729147
REMARK  5 active torsions:
REMARK  status: ('A' for Active; 'I' for Inactive)
REMARK    1  A    between atoms: O_1  and  C_6
REMARK    2  A    between atoms: O_1  and  C_18
REMARK    3  A    between atoms: C_18  and  C_20
REMARK    4  A    between atoms: N_19  and  C_26
REMARK    5  A    between atoms: C_26  and  C_28
REMARK                            x       y       z     vdW  Elec       q    Type
REMARK                         _______ _______ _______ _____ _____    ______ ____
ROOT
ATOM      1  O   UNL     1      35.411 -18.125 -22.536  0.00  0.00    -0.479 OA
ENDROOT
BRANCH   1   6
ATOM      2  N   UNL     1      33.523 -14.068 -24.397  0.00  0.00    -0.332 NA
ATOM      3  N   UNL     1      33.764 -15.984 -25.839  0.00  0.00    -0.317 NA
ATOM      4  N   UNL     1      34.660 -17.989 -25.054  0.00  0.00    -0.335 N 
ATOM      5  N   UNL     1      32.863 -13.977 -26.645  0.00  0.00    -0.283 N 
ATOM      6  C   UNL     1      34.995 -16.818 -22.445  0.00  0.00    +0.130 C 
ATOM      7  C   UNL     1      34.452 -16.100 -23.524  0.00  0.00    +0.177 C 
ATOM      8  C   UNL     1      35.136 -16.208 -21.203  0.00  0.00    +0.033 C 
ATOM      9  C   UNL     1      34.045 -14.765 -23.371  0.00  0.00    +0.137 C 
ATOM     10  C   UNL     1      34.282 -16.652 -24.791  0.00  0.00    +0.181 C 
ATOM     11  C   UNL     1      34.737 -14.886 -21.040  0.00  0.00    +0.005 C 
ATOM     12  C   UNL     1      34.197 -14.179 -22.118  0.00  0.00    +0.030 C 
ATOM     13  C   UNL     1      33.411 -14.716 -25.575  0.00  0.00    +0.197 C 
ATOM     14  H   UNL     1      34.535 -18.368 -25.954  0.00  0.00    +0.144 HD
ATOM     15  H   UNL     1      35.046 -18.542 -24.337  0.00  0.00    +0.144 HD
ATOM     16  H   UNL     1      32.586 -13.043 -26.509  0.00  0.00    +0.156 HD
ATOM     17  H   UNL     1      32.756 -14.398 -27.530  0.00  0.00    +0.156 HD
ENDBRANCH   1   6
BRANCH   1  18
ATOM     18  C   UNL     1      36.089 -18.662 -21.416  0.00  0.00    +0.205 C 
BRANCH  18  20
ATOM     19  N   UNL     1      34.358 -21.969 -19.242  0.00  0.00    +0.390 N 
ATOM     20  C   UNL     1      35.524 -20.050 -21.127  0.00  0.00    +0.040 C 
ATOM     21  C   UNL     1      34.066 -19.967 -20.665  0.00  0.00    -0.019 C 
ATOM     22  C   UNL     1      36.361 -20.776 -20.069  0.00  0.00    -0.019 C 
ATOM     23  C   UNL     1      33.524 -21.344 -20.278  0.00  0.00    -0.077 C 
ATOM     24  C   UNL     1      35.744 -22.127 -19.701  0.00  0.00    -0.077 C 
ATOM     25  H   UNL     1      34.364 -21.353 -18.430  0.00  0.00    -0.079 HD
BRANCH  19  26
ATOM     26  C   UNL     1      33.799 -23.262 -18.847  0.00  0.00    -0.048 C 
BRANCH  26  28
ATOM     27  F   UNL     1      35.607 -23.421 -16.670  0.00  0.00    -0.205 F 
ATOM     28  C   UNL     1      33.356 -23.264 -17.408  0.00  0.00    -0.016 C 
ATOM     29  C   UNL     1      34.300 -23.345 -16.384  0.00  0.00    +0.134 C 
ATOM     30  C   UNL     1      31.998 -23.186 -17.100  0.00  0.00    -0.004 C 
ATOM     31  C   UNL     1      33.886 -23.348 -15.052  0.00  0.00    +0.029 C 
ATOM     32  C   UNL     1      31.584 -23.189 -15.768  0.00  0.00    -0.000 C 
ATOM     33  C   UNL     1      32.528 -23.271 -14.744  0.00  0.00    +0.002 C 
ENDBRANCH  26  28
ENDBRANCH  19  26
ENDBRANCH  18  20
ENDBRANCH   1  18
TORSDOF 5
ENDMDL
MODEL 9
REMARK VINA RESULT:     -11.1      3.938      6.415
REMARK  Name = 23729147
REMARK  5 active torsions:
REMARK  status: ('A' for Active; 'I' for Inactive)
REMARK    1  A    between atoms: O_1  and  C_6
REMARK    2  A    between atoms: O_1  and  C_18
REMARK    3  A    between atoms: C_18  and  C_20
REMARK    4  A    between atoms: N_19  and  C_26
REMARK    5  A    between atoms: C_26  and  C_28
REMARK                            x       y       z     vdW  Elec       q    Type
REMARK                         _______ _______ _______ _____ _____    ______ ____
ROOT
ATOM      1  O   UNL     1      34.458 -19.291 -21.975  0.00  0.00    -0.479 OA
ENDROOT
BRANCH   1   6
ATOM      2  N   UNL     1      34.856 -22.582 -18.439  0.00  0.00    -0.332 NA
ATOM      3  N   UNL     1      32.656 -22.061 -19.276  0.00  0.00    -0.317 NA
ATOM      4  N   UNL     1      32.343 -20.494 -20.975  0.00  0.00    -0.335 N 
ATOM      5  N   UNL     1      32.952 -23.638 -17.568  0.00  0.00    -0.283 N 
ATOM      6  C   UNL     1      35.184 -20.044 -21.085  0.00  0.00    +0.130 C 
ATOM      7  C   UNL     1      34.605 -20.960 -20.189  0.00  0.00    +0.177 C 
ATOM      8  C   UNL     1      36.564 -19.863 -21.099  0.00  0.00    +0.033 C 
ATOM      9  C   UNL     1      35.400 -21.702 -19.300  0.00  0.00    +0.137 C 
ATOM     10  C   UNL     1      33.233 -21.190 -20.125  0.00  0.00    +0.181 C 
ATOM     11  C   UNL     1      37.360 -20.591 -20.223  0.00  0.00    +0.005 C 
ATOM     12  C   UNL     1      36.777 -21.501 -19.336  0.00  0.00    +0.030 C 
ATOM     13  C   UNL     1      33.514 -22.713 -18.474  0.00  0.00    +0.197 C 
ATOM     14  H   UNL     1      31.375 -20.666 -20.920  0.00  0.00    +0.144 HD
ATOM     15  H   UNL     1      32.690 -19.840 -21.624  0.00  0.00    +0.144 HD
ATOM     16  H   UNL     1      33.533 -24.144 -16.957  0.00  0.00    +0.156 HD
ATOM     17  H   UNL     1      31.977 -23.777 -17.549  0.00  0.00    +0.156 HD
ENDBRANCH   1   6
BRANCH   1  18
ATOM     18  C   UNL     1      34.929 -19.242 -23.309  0.00  0.00    +0.205 C 
BRANCH  18  20
ATOM     19  N   UNL     1      33.870 -15.094 -23.878  0.00  0.00    +0.390 N 
ATOM     20  C   UNL     1      35.035 -17.780 -23.733  0.00  0.00    +0.040 C 
ATOM     21  C   UNL     1      34.964 -16.847 -22.520  0.00  0.00    -0.019 C 
ATOM     22  C   UNL     1      33.931 -17.415 -24.731  0.00  0.00    -0.019 C 
ATOM     23  C   UNL     1      34.968 -15.378 -22.945  0.00  0.00    -0.077 C 
ATOM     24  C   UNL     1      33.969 -15.926 -25.084  0.00  0.00    -0.077 C 
ATOM     25  H   UNL     1      32.993 -15.321 -23.410  0.00  0.00    -0.079 HD
BRANCH  19  26
ATOM     26  C   UNL     1      33.857 -13.675 -24.235  0.00  0.00    -0.048 C 
BRANCH  26  28
ATOM     27  F   UNL     1      33.638 -10.853 -24.395  0.00  0.00    -0.205 F 
ATOM     28  C   UNL     1      33.111 -12.849 -23.221  0.00  0.00    -0.016 C 
ATOM     29  C   UNL     1      33.043 -11.462 -23.361  0.00  0.00    +0.134 C 
ATOM     30  C   UNL     1      32.489 -13.472 -22.140  0.00  0.00    -0.004 C 
ATOM     31  C   UNL     1      32.353 -10.700 -22.418  0.00  0.00    +0.029 C 
ATOM     32  C   UNL     1      31.798 -12.710 -21.198  0.00  0.00    -0.000 C 
ATOM     33  C   UNL     1      31.730 -11.324 -21.336  0.00  0.00    +0.002 C 
ENDBRANCH  26  28
ENDBRANCH  19  26
ENDBRANCH  18  20
ENDBRANCH   1  18
TORSDOF 5
ENDMDL
