MODEL 1
REMARK VINA RESULT:     -13.1      0.000      0.000
REMARK  Name = 24794406
REMARK  5 active torsions:
REMARK  status: ('A' for Active; 'I' for Inactive)
REMARK    1  A    between atoms: C_1  and  S_24
REMARK    2  A    between atoms: C_2  and  N_8
REMARK    3  A    between atoms: C_9  and  C_11
REMARK    4  A    between atoms: C_12  and  N_18
REMARK    5  A    between atoms: S_24  and  N_28
REMARK                            x       y       z     vdW  Elec       q    Type
REMARK                         _______ _______ _______ _____ _____    ______ ____
ROOT
ATOM      1  C   UNL     1      32.796 -24.213 -14.588  0.00  0.00    +0.139 C 
ATOM      2  C   UNL     1      31.976 -23.809 -15.641  0.00  0.00    +0.070 C 
ATOM      3  C   UNL     1      32.256 -24.926 -13.518  0.00  0.00    +0.021 C 
ATOM      4  C   UNL     1      30.616 -24.117 -15.624  0.00  0.00    +0.016 C 
ATOM      5  C   UNL     1      30.896 -25.235 -13.501  0.00  0.00    +0.001 C 
ATOM      6  C   UNL     1      30.076 -24.831 -14.555  0.00  0.00    +0.001 C 
ENDROOT
BRANCH   2   8
ATOM      7  O   UNL     1      33.757 -24.701 -17.883  0.00  0.00    -0.270 OA
ATOM      8  N   UNL     1      32.499 -23.083 -16.740  0.00  0.00    -0.279 N 
ATOM      9  C   UNL     1      33.333 -23.540 -17.771  0.00  0.00    +0.250 C 
ATOM     10  H   UNL     1      32.244 -22.133 -16.785  0.00  0.00    +0.155 HD
BRANCH   9  11
ATOM     11  C   UNL     1      33.731 -22.544 -18.753  0.00  0.00    +0.054 C 
ATOM     12  C   UNL     1      34.492 -20.633 -20.638  0.00  0.00    +0.058 C 
ATOM     13  C   UNL     1      32.767 -21.733 -19.352  0.00  0.00    +0.006 C 
ATOM     14  C   UNL     1      35.074 -22.399 -19.097  0.00  0.00    +0.006 C 
ATOM     15  C   UNL     1      33.148 -20.777 -20.295  0.00  0.00    +0.015 C 
ATOM     16  C   UNL     1      35.455 -21.445 -20.039  0.00  0.00    +0.015 C 
BRANCH  12  18
ATOM     17  O   UNL     1      36.680 -18.767 -20.335  0.00  0.00    -0.269 OA
ATOM     18  N   UNL     1      34.888 -19.640 -21.617  0.00  0.00    -0.233 N 
ATOM     19  C   UNL     1      36.008 -18.806 -21.366  0.00  0.00    +0.257 C 
ATOM     20  C   UNL     1      34.160 -19.480 -22.799  0.00  0.00    +0.072 C 
ATOM     21  C   UNL     1      36.376 -17.841 -22.448  0.00  0.00    +0.059 C 
ATOM     22  C   UNL     1      34.490 -18.586 -23.737  0.00  0.00    +0.017 C 
ATOM     23  C   UNL     1      35.636 -17.748 -23.555  0.00  0.00    +0.006 C 
ENDBRANCH  12  18
ENDBRANCH   9  11
ENDBRANCH   2   8
BRANCH   1  24
ATOM     24  S   UNL     1      34.509 -23.846 -14.572  0.00  0.00    +0.076 S 
ATOM     25  O   UNL     1      34.946 -23.853 -13.183  0.00  0.00    -0.150 OA
ATOM     26  O   UNL     1      34.733 -22.653 -15.376  0.00  0.00    -0.150 OA
BRANCH  24  28
ATOM     27 CL   UNL     1      40.857 -26.354 -14.252  0.00  0.00    -0.081 Cl
ATOM     28  N   UNL     1      35.195 -25.214 -15.360  0.00  0.00    -0.199 N 
ATOM     29  N   UNL     1      37.408 -24.483 -14.941  0.00  0.00    -0.227 NA
ATOM     30  C   UNL     1      36.572 -25.535 -15.090  0.00  0.00    +0.147 C 
ATOM     31  C   UNL     1      36.966 -26.859 -14.999  0.00  0.00    +0.036 C 
ATOM     32  C   UNL     1      38.306 -27.123 -14.735  0.00  0.00    +0.016 C 
ATOM     33  C   UNL     1      38.703 -24.778 -14.686  0.00  0.00    +0.112 C 
ATOM     34  C   UNL     1      39.197 -26.067 -14.574  0.00  0.00    +0.077 C 
ATOM     35  H   UNL     1      34.661 -25.763 -15.978  0.00  0.00    +0.175 HD
ENDBRANCH  24  28
ENDBRANCH   1  24
TORSDOF 5
ENDMDL
MODEL 2
REMARK VINA RESULT:     -10.5      3.521      5.873
REMARK  Name = 24794406
REMARK  5 active torsions:
REMARK  status: ('A' for Active; 'I' for Inactive)
REMARK    1  A    between atoms: C_1  and  S_24
REMARK    2  A    between atoms: C_2  and  N_8
REMARK    3  A    between atoms: C_9  and  C_11
REMARK    4  A    between atoms: C_12  and  N_18
REMARK    5  A    between atoms: S_24  and  N_28
REMARK                            x       y       z     vdW  Elec       q    Type
REMARK                         _______ _______ _______ _____ _____    ______ ____
ROOT
ATOM      1  C   UNL     1      35.111 -23.347 -16.607  0.00  0.00    +0.139 C 
ATOM      2  C   UNL     1      36.092 -22.463 -17.054  0.00  0.00    +0.070 C 
ATOM      3  C   UNL     1      35.353 -24.152 -15.493  0.00  0.00    +0.021 C 
ATOM      4  C   UNL     1      37.316 -22.384 -16.390  0.00  0.00    +0.016 C 
ATOM      5  C   UNL     1      36.576 -24.072 -14.828  0.00  0.00    +0.001 C 
ATOM      6  C   UNL     1      37.558 -23.187 -15.276  0.00  0.00    +0.001 C 
ENDROOT
BRANCH   2   8
ATOM      7  O   UNL     1      37.515 -22.365 -19.691  0.00  0.00    -0.270 OA
ATOM      8  N   UNL     1      35.873 -21.636 -18.183  0.00  0.00    -0.279 N 
ATOM      9  C   UNL     1      36.565 -21.621 -19.403  0.00  0.00    +0.250 C 
ATOM     10  H   UNL     1      35.139 -20.984 -18.100  0.00  0.00    +0.155 HD
BRANCH   9  11
ATOM     11  C   UNL     1      36.124 -20.630 -20.370  0.00  0.00    +0.054 C 
ATOM     12  C   UNL     1      35.279 -18.725 -22.226  0.00  0.00    +0.058 C 
ATOM     13  C   UNL     1      37.030 -19.696 -20.874  0.00  0.00    +0.006 C 
ATOM     14  C   UNL     1      34.796 -20.609 -20.794  0.00  0.00    +0.006 C 
ATOM     15  C   UNL     1      36.608 -18.744 -21.801  0.00  0.00    +0.015 C 
ATOM     16  C   UNL     1      34.373 -19.658 -21.721  0.00  0.00    +0.015 C 
BRANCH  12  18
ATOM     17  O   UNL     1      34.375 -19.296 -24.913  0.00  0.00    -0.269 OA
ATOM     18  N   UNL     1      34.840 -17.735 -23.190  0.00  0.00    -0.233 N 
ATOM     19  C   UNL     1      34.381 -18.148 -24.468  0.00  0.00    +0.257 C 
ATOM     20  C   UNL     1      34.888 -16.374 -22.881  0.00  0.00    +0.072 C 
ATOM     21  C   UNL     1      33.903 -17.067 -25.385  0.00  0.00    +0.059 C 
ATOM     22  C   UNL     1      34.486 -15.423 -23.732  0.00  0.00    +0.017 C 
ATOM     23  C   UNL     1      33.972 -15.786 -25.019  0.00  0.00    +0.006 C 
ENDBRANCH  12  18
ENDBRANCH   9  11
ENDBRANCH   2   8
BRANCH   1  24
ATOM     24  S   UNL     1      33.561 -23.476 -17.413  0.00  0.00    +0.076 S 
ATOM     25  O   UNL     1      33.675 -24.527 -18.416  0.00  0.00    -0.150 OA
ATOM     26  O   UNL     1      33.146 -22.145 -17.829  0.00  0.00    -0.150 OA
BRANCH  24  28
ATOM     27 CL   UNL     1      26.780 -22.952 -16.756  0.00  0.00    -0.081 Cl
ATOM     28  N   UNL     1      32.529 -24.040 -16.157  0.00  0.00    -0.199 N 
ATOM     29  N   UNL     1      30.750 -22.632 -16.837  0.00  0.00    -0.227 NA
ATOM     30  C   UNL     1      31.114 -23.811 -16.285  0.00  0.00    +0.147 C 
ATOM     31  C   UNL     1      30.218 -24.775 -15.854  0.00  0.00    +0.036 C 
ATOM     32  C   UNL     1      28.859 -24.513 -16.000  0.00  0.00    +0.016 C 
ATOM     33  C   UNL     1      29.422 -22.412 -16.962  0.00  0.00    +0.112 C 
ATOM     34  C   UNL     1      28.446 -23.311 -16.564  0.00  0.00    +0.077 C 
ATOM     35  H   UNL     1      32.895 -24.506 -15.371  0.00  0.00    +0.175 HD
ENDBRANCH  24  28
ENDBRANCH   1  24
TORSDOF 5
ENDMDL
MODEL 3
REMARK VINA RESULT:     -10.3      1.791      2.143
REMARK  Name = 24794406
REMARK  5 active torsions:
REMARK  status: ('A' for Active; 'I' for Inactive)
REMARK    1  A    between atoms: C_1  and  S_24
REMARK    2  A    between atoms: C_2  and  N_8
REMARK    3  A    between atoms: C_9  and  C_11
REMARK    4  A    between atoms: C_12  and  N_18
REMARK    5  A    between atoms: S_24  and  N_28
REMARK                            x       y       z     vdW  Elec       q    Type
REMARK                         _______ _______ _______ _____ _____    ______ ____
ROOT
ATOM      1  C   UNL     1      32.385 -24.294 -15.305  0.00  0.00    +0.139 C 
ATOM      2  C   UNL     1      31.617 -23.769 -16.343  0.00  0.00    +0.070 C 
ATOM      3  C   UNL     1      31.794 -25.119 -14.348  0.00  0.00    +0.021 C 
ATOM      4  C   UNL     1      30.256 -24.067 -16.424  0.00  0.00    +0.016 C 
ATOM      5  C   UNL     1      30.433 -25.417 -14.430  0.00  0.00    +0.001 C 
ATOM      6  C   UNL     1      29.665 -24.892 -15.469  0.00  0.00    +0.001 C 
ENDROOT
BRANCH   2   8
ATOM      7  O   UNL     1      33.583 -24.396 -18.519  0.00  0.00    -0.270 OA
ATOM      8  N   UNL     1      32.192 -22.928 -17.328  0.00  0.00    -0.279 N 
ATOM      9  C   UNL     1      33.113 -23.263 -18.332  0.00  0.00    +0.250 C 
ATOM     10  H   UNL     1      31.910 -21.986 -17.304  0.00  0.00    +0.155 HD
BRANCH   9  11
ATOM     11  C   UNL     1      33.547 -22.168 -19.185  0.00  0.00    +0.054 C 
ATOM     12  C   UNL     1      34.377 -20.068 -20.823  0.00  0.00    +0.058 C 
ATOM     13  C   UNL     1      32.601 -21.362 -19.819  0.00  0.00    +0.006 C 
ATOM     14  C   UNL     1      34.907 -21.924 -19.371  0.00  0.00    +0.006 C 
ATOM     15  C   UNL     1      33.016 -20.312 -20.638  0.00  0.00    +0.015 C 
ATOM     16  C   UNL     1      35.322 -20.874 -20.189  0.00  0.00    +0.015 C 
BRANCH  12  18
ATOM     17  O   UNL     1      34.760 -20.230 -23.685  0.00  0.00    -0.269 OA
ATOM     18  N   UNL     1      34.809 -18.976 -21.674  0.00  0.00    -0.233 N 
ATOM     19  C   UNL     1      34.921 -19.173 -23.074  0.00  0.00    +0.257 C 
ATOM     20  C   UNL     1      35.139 -17.736 -21.122  0.00  0.00    +0.072 C 
ATOM     21  C   UNL     1      35.328 -17.983 -23.884  0.00  0.00    +0.059 C 
ATOM     22  C   UNL     1      35.533 -16.695 -21.865  0.00  0.00    +0.017 C 
ATOM     23  C   UNL     1      35.622 -16.825 -23.288  0.00  0.00    +0.006 C 
ENDBRANCH  12  18
ENDBRANCH   9  11
ENDBRANCH   2   8
BRANCH   1  24
ATOM     24  S   UNL     1      34.096 -23.944 -15.168  0.00  0.00    +0.076 S 
ATOM     25  O   UNL     1      34.253 -22.497 -15.207  0.00  0.00    -0.150 OA
ATOM     26  O   UNL     1      34.812 -24.759 -16.139  0.00  0.00    -0.150 OA
BRANCH  24  28
ATOM     27 CL   UNL     1      39.895 -23.401 -11.595  0.00  0.00    -0.081 Cl
ATOM     28  N   UNL     1      34.464 -24.483 -13.575  0.00  0.00    -0.199 N 
ATOM     29  N   UNL     1      36.798 -24.298 -13.934  0.00  0.00    -0.227 NA
ATOM     30  C   UNL     1      35.777 -24.212 -13.052  0.00  0.00    +0.147 C 
ATOM     31  C   UNL     1      35.932 -23.884 -11.715  0.00  0.00    +0.036 C 
ATOM     32  C   UNL     1      37.219 -23.628 -11.252  0.00  0.00    +0.016 C 
ATOM     33  C   UNL     1      38.033 -24.042 -13.448  0.00  0.00    +0.112 C 
ATOM     34  C   UNL     1      38.295 -23.707 -12.130  0.00  0.00    +0.077 C 
ATOM     35  H   UNL     1      33.795 -24.964 -13.036  0.00  0.00    +0.175 HD
ENDBRANCH  24  28
ENDBRANCH   1  24
TORSDOF 5
ENDMDL
