MODEL 1
REMARK VINA RESULT:     -11.6      0.000      0.000
REMARK  Name = 25195365
REMARK  5 active torsions:
REMARK  status: ('A' for Active; 'I' for Inactive)
REMARK    1  A    between atoms: C_1  and  C_3
REMARK    2  A    between atoms: C_1  and  C_17
REMARK    3  A    between atoms: C_4  and  C_9
REMARK    4  A    between atoms: C_6  and  O_15
REMARK    5  A    between atoms: C_18  and  C_23
REMARK                            x       y       z     vdW  Elec       q    Type
REMARK                         _______ _______ _______ _____ _____    ______ ____
ROOT
ATOM      1  C   UNL     1      35.192 -18.162 -23.910  0.00  0.00    +0.086 C 
ATOM      2  C   UNL     1      34.628 -18.810 -25.188  0.00  0.00    +0.019 C 
ENDROOT
BRANCH   1   3
ATOM      3  C   UNL     1      34.694 -16.772 -23.697  0.00  0.00    -0.007 C 
ATOM      4  C   UNL     1      33.763 -14.174 -23.298  0.00  0.00    +0.034 C 
ATOM      5  C   UNL     1      33.941 -16.142 -24.688  0.00  0.00    +0.034 C 
ATOM      6  C   UNL     1      33.475 -14.842 -24.489  0.00  0.00    +0.138 C 
ATOM      7  C   UNL     1      34.982 -16.103 -22.508  0.00  0.00    -0.003 C 
ATOM      8  C   UNL     1      34.516 -14.804 -22.308  0.00  0.00    +0.003 C 
BRANCH   4   9
ATOM      9  C   UNL     1      33.290 -12.825 -23.072  0.00  0.00    +0.003 C 
ATOM     10  C   UNL     1      32.294 -12.584 -22.125  0.00  0.00    +0.000 C 
ATOM     11  C   UNL     1      33.830 -11.764 -23.800  0.00  0.00    +0.000 C 
ATOM     12  C   UNL     1      31.839 -11.285 -21.906  0.00  0.00    +0.000 C 
ATOM     13  C   UNL     1      33.374 -10.464 -23.580  0.00  0.00    +0.000 C 
ATOM     14  C   UNL     1      32.379 -10.225 -22.634  0.00  0.00    +0.000 C 
ENDBRANCH   4   9
BRANCH   6  15
ATOM     15  O   UNL     1      32.740 -14.250 -25.473  0.00  0.00    -0.471 OA
ATOM     16  C   UNL     1      33.427 -13.903 -26.673  0.00  0.00    +0.252 C 
ENDBRANCH   6  15
ENDBRANCH   1   3
BRANCH   1  17
ATOM     17  C   UNL     1      34.919 -19.042 -22.745  0.00  0.00    -0.087 C 
ATOM     18  C   UNL     1      34.696 -19.772 -21.817  0.00  0.00    -0.076 C 
BRANCH  18  23
ATOM     19  N   UNL     1      35.251 -22.033 -18.926  0.00  0.00    -0.336 NA
ATOM     20  N   UNL     1      32.879 -21.808 -19.291  0.00  0.00    -0.317 NA
ATOM     21  N   UNL     1      32.055 -20.450 -21.043  0.00  0.00    -0.334 N 
ATOM     22  N   UNL     1      33.710 -23.152 -17.555  0.00  0.00    -0.283 N 
ATOM     23  C   UNL     1      34.432 -20.646 -20.716  0.00  0.00    +0.179 C 
ATOM     24  C   UNL     1      35.452 -21.205 -19.972  0.00  0.00    +0.120 C 
ATOM     25  C   UNL     1      33.154 -20.987 -20.325  0.00  0.00    +0.186 C 
ATOM     26  C   UNL     1      36.884 -20.917 -20.292  0.00  0.00    +0.064 C 
ATOM     27  C   UNL     1      33.959 -22.288 -18.645  0.00  0.00    +0.196 C 
ATOM     28  H   UNL     1      31.135 -20.682 -20.780  0.00  0.00    +0.144 HD
ATOM     29  H   UNL     1      32.213 -19.847 -21.805  0.00  0.00    +0.144 HD
ATOM     30  H   UNL     1      34.462 -23.532 -17.047  0.00  0.00    +0.156 HD
ATOM     31  H   UNL     1      32.784 -23.372 -17.304  0.00  0.00    +0.156 HD
ENDBRANCH  18  23
ENDBRANCH   1  17
TORSDOF 5
ENDMDL
MODEL 2
REMARK VINA RESULT:     -11.5      4.820      7.752
REMARK  Name = 25195365
REMARK  5 active torsions:
REMARK  status: ('A' for Active; 'I' for Inactive)
REMARK    1  A    between atoms: C_1  and  C_3
REMARK    2  A    between atoms: C_1  and  C_17
REMARK    3  A    between atoms: C_4  and  C_9
REMARK    4  A    between atoms: C_6  and  O_15
REMARK    5  A    between atoms: C_18  and  C_23
REMARK                            x       y       z     vdW  Elec       q    Type
REMARK                         _______ _______ _______ _____ _____    ______ ____
ROOT
ATOM      1  C   UNL     1      32.998 -23.340 -17.687  0.00  0.00    +0.086 C 
ATOM      2  C   UNL     1      31.607 -23.033 -17.101  0.00  0.00    +0.019 C 
ENDROOT
BRANCH   1   3
ATOM      3  C   UNL     1      33.421 -22.352 -18.721  0.00  0.00    -0.007 C 
ATOM      4  C   UNL     1      34.210 -20.504 -20.656  0.00  0.00    +0.034 C 
ATOM      5  C   UNL     1      34.766 -22.242 -19.073  0.00  0.00    +0.034 C 
ATOM      6  C   UNL     1      35.161 -21.317 -20.041  0.00  0.00    +0.138 C 
ATOM      7  C   UNL     1      32.471 -21.537 -19.337  0.00  0.00    -0.003 C 
ATOM      8  C   UNL     1      32.865 -20.613 -20.304  0.00  0.00    +0.003 C 
BRANCH   4   9
ATOM      9  C   UNL     1      34.598 -19.538 -21.661  0.00  0.00    +0.003 C 
ATOM     10  C   UNL     1      34.254 -19.745 -22.998  0.00  0.00    +0.000 C 
ATOM     11  C   UNL     1      35.315 -18.399 -21.295  0.00  0.00    +0.000 C 
ATOM     12  C   UNL     1      34.628 -18.814 -23.966  0.00  0.00    +0.000 C 
ATOM     13  C   UNL     1      35.689 -17.468 -22.264  0.00  0.00    +0.000 C 
ATOM     14  C   UNL     1      35.345 -17.676 -23.599  0.00  0.00    +0.000 C 
ENDBRANCH   4   9
BRANCH   6  15
ATOM     15  O   UNL     1      36.482 -21.232 -20.367  0.00  0.00    -0.471 OA
ATOM     16  C   UNL     1      37.414 -21.204 -19.288  0.00  0.00    +0.252 C 
ENDBRANCH   6  15
ENDBRANCH   1   3
BRANCH   1  17
ATOM     17  C   UNL     1      33.986 -23.457 -16.584  0.00  0.00    -0.087 C 
ATOM     18  C   UNL     1      34.771 -23.566 -15.680  0.00  0.00    -0.076 C 
BRANCH  18  23
ATOM     19  N   UNL     1      37.926 -23.397 -13.733  0.00  0.00    -0.336 NA
ATOM     20  N   UNL     1      36.215 -24.390 -12.355  0.00  0.00    -0.317 NA
ATOM     21  N   UNL     1      34.025 -24.699 -13.191  0.00  0.00    -0.334 N 
ATOM     22  N   UNL     1      38.393 -24.077 -11.536  0.00  0.00    -0.283 N 
ATOM     23  C   UNL     1      35.702 -23.702 -14.603  0.00  0.00    +0.179 C 
ATOM     24  C   UNL     1      37.013 -23.289 -14.721  0.00  0.00    +0.120 C 
ATOM     25  C   UNL     1      35.356 -24.251 -13.386  0.00  0.00    +0.186 C 
ATOM     26  C   UNL     1      37.516 -22.678 -15.990  0.00  0.00    +0.064 C 
ATOM     27  C   UNL     1      37.465 -23.948 -12.594  0.00  0.00    +0.196 C 
ATOM     28  H   UNL     1      33.759 -25.093 -12.329  0.00  0.00    +0.144 HD
ATOM     29  H   UNL     1      33.367 -24.615 -13.919  0.00  0.00    +0.144 HD
ATOM     30  H   UNL     1      39.320 -23.771 -11.655  0.00  0.00    +0.156 HD
ATOM     31  H   UNL     1      38.111 -24.473 -10.680  0.00  0.00    +0.156 HD
ENDBRANCH  18  23
ENDBRANCH   1  17
TORSDOF 5
ENDMDL
MODEL 3
REMARK VINA RESULT:     -11.1      0.949      1.977
REMARK  Name = 25195365
REMARK  5 active torsions:
REMARK  status: ('A' for Active; 'I' for Inactive)
REMARK    1  A    between atoms: C_1  and  C_3
REMARK    2  A    between atoms: C_1  and  C_17
REMARK    3  A    between atoms: C_4  and  C_9
REMARK    4  A    between atoms: C_6  and  O_15
REMARK    5  A    between atoms: C_18  and  C_23
REMARK                            x       y       z     vdW  Elec       q    Type
REMARK                         _______ _______ _______ _____ _____    ______ ____
ROOT
ATOM      1  C   UNL     1      34.970 -17.798 -24.307  0.00  0.00    +0.086 C 
ATOM      2  C   UNL     1      34.155 -18.473 -25.426  0.00  0.00    +0.019 C 
ENDROOT
BRANCH   1   3
ATOM      3  C   UNL     1      34.507 -16.412 -24.009  0.00  0.00    -0.007 C 
ATOM      4  C   UNL     1      33.642 -13.820 -23.451  0.00  0.00    +0.034 C 
ATOM      5  C   UNL     1      33.773 -15.703 -24.959  0.00  0.00    +0.034 C 
ATOM      6  C   UNL     1      33.341 -14.406 -24.680  0.00  0.00    +0.138 C 
ATOM      7  C   UNL     1      34.809 -15.826 -22.780  0.00  0.00    -0.003 C 
ATOM      8  C   UNL     1      34.376 -14.530 -22.501  0.00  0.00    +0.003 C 
BRANCH   4   9
ATOM      9  C   UNL     1      33.204 -12.476 -23.141  0.00  0.00    +0.003 C 
ATOM     10  C   UNL     1      33.789 -11.386 -23.786  0.00  0.00    +0.000 C 
ATOM     11  C   UNL     1      32.195 -12.270 -22.200  0.00  0.00    +0.000 C 
ATOM     12  C   UNL     1      33.366 -10.091 -23.488  0.00  0.00    +0.000 C 
ATOM     13  C   UNL     1      31.773 -10.974 -21.902  0.00  0.00    +0.000 C 
ATOM     14  C   UNL     1      32.358  -9.885 -22.546  0.00  0.00    +0.000 C 
ENDBRANCH   4   9
BRANCH   6  15
ATOM     15  O   UNL     1      32.624 -13.735 -25.627  0.00  0.00    -0.471 OA
ATOM     16  C   UNL     1      33.328 -13.311 -26.792  0.00  0.00    +0.252 C 
ENDBRANCH   6  15
ENDBRANCH   1   3
BRANCH   1  17
ATOM     17  C   UNL     1      34.967 -18.665 -23.099  0.00  0.00    -0.087 C 
ATOM     18  C   UNL     1      34.972 -19.383 -22.136  0.00  0.00    -0.076 C 
BRANCH  18  23
ATOM     19  N   UNL     1      33.786 -21.596 -19.403  0.00  0.00    -0.336 NA
ATOM     20  N   UNL     1      36.182 -21.388 -19.249  0.00  0.00    -0.317 NA
ATOM     21  N   UNL     1      37.377 -20.061 -20.799  0.00  0.00    -0.334 N 
ATOM     22  N   UNL     1      34.985 -22.703 -17.717  0.00  0.00    -0.283 N 
ATOM     23  C   UNL     1      34.984 -20.240 -20.992  0.00  0.00    +0.179 C 
ATOM     24  C   UNL     1      33.823 -20.783 -20.479  0.00  0.00    +0.120 C 
ATOM     25  C   UNL     1      36.144 -20.581 -20.329  0.00  0.00    +0.186 C 
ATOM     26  C   UNL     1      32.496 -20.492 -21.105  0.00  0.00    +0.064 C 
ATOM     27  C   UNL     1      34.984 -21.854 -18.846  0.00  0.00    +0.196 C 
ATOM     28  H   UNL     1      38.216 -20.292 -20.339  0.00  0.00    +0.144 HD
ATOM     29  H   UNL     1      37.393 -19.468 -21.585  0.00  0.00    +0.144 HD
ATOM     30  H   UNL     1      34.138 -23.072 -17.379  0.00  0.00    +0.156 HD
ATOM     31  H   UNL     1      35.833 -22.925 -17.269  0.00  0.00    +0.156 HD
ENDBRANCH  18  23
ENDBRANCH   1  17
TORSDOF 5
ENDMDL
MODEL 4
REMARK VINA RESULT:     -10.8      1.026      2.052
REMARK  Name = 25195365
REMARK  5 active torsions:
REMARK  status: ('A' for Active; 'I' for Inactive)
REMARK    1  A    between atoms: C_1  and  C_3
REMARK    2  A    between atoms: C_1  and  C_17
REMARK    3  A    between atoms: C_4  and  C_9
REMARK    4  A    between atoms: C_6  and  O_15
REMARK    5  A    between atoms: C_18  and  C_23
REMARK                            x       y       z     vdW  Elec       q    Type
REMARK                         _______ _______ _______ _____ _____    ______ ____
ROOT
ATOM      1  C   UNL     1      34.927 -18.328 -24.319  0.00  0.00    +0.086 C 
ATOM      2  C   UNL     1      34.184 -18.972 -25.505  0.00  0.00    +0.019 C 
ENDROOT
BRANCH   1   3
ATOM      3  C   UNL     1      34.541 -16.905 -24.098  0.00  0.00    -0.007 C 
ATOM      4  C   UNL     1      33.818 -14.242 -23.687  0.00  0.00    +0.034 C 
ATOM      5  C   UNL     1      34.913 -16.255 -22.921  0.00  0.00    +0.034 C 
ATOM      6  C   UNL     1      34.551 -14.923 -22.715  0.00  0.00    +0.138 C 
ATOM      7  C   UNL     1      33.807 -16.223 -25.069  0.00  0.00    -0.003 C 
ATOM      8  C   UNL     1      33.446 -14.892 -24.864  0.00  0.00    +0.003 C 
BRANCH   4   9
ATOM      9  C   UNL     1      33.432 -12.861 -23.493  0.00  0.00    +0.003 C 
ATOM     10  C   UNL     1      33.992 -11.861 -24.288  0.00  0.00    +0.000 C 
ATOM     11  C   UNL     1      32.498 -12.529 -22.510  0.00  0.00    +0.000 C 
ATOM     12  C   UNL     1      33.620 -10.531 -24.102  0.00  0.00    +0.000 C 
ATOM     13  C   UNL     1      32.126 -11.197 -22.324  0.00  0.00    +0.000 C 
ATOM     14  C   UNL     1      32.687 -10.199 -23.120  0.00  0.00    +0.000 C 
ENDBRANCH   4   9
BRANCH   6  15
ATOM     15  O   UNL     1      34.929 -14.312 -21.556  0.00  0.00    -0.471 OA
ATOM     16  C   UNL     1      34.697 -15.026 -20.343  0.00  0.00    +0.252 C 
ENDBRANCH   6  15
ENDBRANCH   1   3
BRANCH   1  17
ATOM     17  C   UNL     1      34.734 -19.159 -23.103  0.00  0.00    -0.087 C 
ATOM     18  C   UNL     1      34.555 -19.827 -22.120  0.00  0.00    -0.076 C 
BRANCH  18  23
ATOM     19  N   UNL     1      35.225 -21.879 -19.101  0.00  0.00    -0.336 NA
ATOM     20  N   UNL     1      32.841 -21.692 -19.399  0.00  0.00    -0.317 NA
ATOM     21  N   UNL     1      31.947 -20.464 -21.212  0.00  0.00    -0.334 N 
ATOM     22  N   UNL     1      33.740 -22.908 -17.603  0.00  0.00    -0.283 N 
ATOM     23  C   UNL     1      34.336 -20.624 -20.953  0.00  0.00    +0.179 C 
ATOM     24  C   UNL     1      35.384 -21.124 -20.208  0.00  0.00    +0.120 C 
ATOM     25  C   UNL     1      33.074 -20.943 -20.496  0.00  0.00    +0.186 C 
ATOM     26  C   UNL     1      36.802 -20.851 -20.596  0.00  0.00    +0.064 C 
ATOM     27  C   UNL     1      33.946 -22.120 -18.758  0.00  0.00    +0.196 C 
ATOM     28  H   UNL     1      31.038 -20.682 -20.901  0.00  0.00    +0.144 HD
ATOM     29  H   UNL     1      32.074 -19.914 -22.018  0.00  0.00    +0.144 HD
ATOM     30  H   UNL     1      34.512 -23.247 -17.096  0.00  0.00    +0.156 HD
ATOM     31  H   UNL     1      32.825 -23.115 -17.306  0.00  0.00    +0.156 HD
ENDBRANCH  18  23
ENDBRANCH   1  17
TORSDOF 5
ENDMDL
MODEL 5
REMARK VINA RESULT:     -10.6      1.557      2.687
REMARK  Name = 25195365
REMARK  5 active torsions:
REMARK  status: ('A' for Active; 'I' for Inactive)
REMARK    1  A    between atoms: C_1  and  C_3
REMARK    2  A    between atoms: C_1  and  C_17
REMARK    3  A    between atoms: C_4  and  C_9
REMARK    4  A    between atoms: C_6  and  O_15
REMARK    5  A    between atoms: C_18  and  C_23
REMARK                            x       y       z     vdW  Elec       q    Type
REMARK                         _______ _______ _______ _____ _____    ______ ____
ROOT
ATOM      1  C   UNL     1      34.539 -17.876 -24.664  0.00  0.00    +0.086 C 
ATOM      2  C   UNL     1      33.381 -18.574 -25.403  0.00  0.00    +0.019 C 
ENDROOT
BRANCH   1   3
ATOM      3  C   UNL     1      34.265 -16.436 -24.390  0.00  0.00    -0.007 C 
ATOM      4  C   UNL     1      33.754 -13.742 -23.879  0.00  0.00    +0.034 C 
ATOM      5  C   UNL     1      34.720 -15.852 -23.208  0.00  0.00    +0.034 C 
ATOM      6  C   UNL     1      34.464 -14.504 -22.952  0.00  0.00    +0.138 C 
ATOM      7  C   UNL     1      33.555 -15.673 -25.316  0.00  0.00    -0.003 C 
ATOM      8  C   UNL     1      33.299 -14.326 -25.061  0.00  0.00    +0.003 C 
BRANCH   4   9
ATOM      9  C   UNL     1      33.477 -12.343 -23.633  0.00  0.00    +0.003 C 
ATOM     10  C   UNL     1      32.473 -11.978 -22.736  0.00  0.00    +0.000 C 
ATOM     11  C   UNL     1      34.214 -11.359 -24.292  0.00  0.00    +0.000 C 
ATOM     12  C   UNL     1      32.206 -10.630 -22.498  0.00  0.00    +0.000 C 
ATOM     13  C   UNL     1      33.946 -10.010 -24.054  0.00  0.00    +0.000 C 
ATOM     14  C   UNL     1      32.943  -9.647 -23.157  0.00  0.00    +0.000 C 
ENDBRANCH   4   9
BRANCH   6  15
ATOM     15  O   UNL     1      34.922 -13.958 -21.789  0.00  0.00    -0.471 OA
ATOM     16  C   UNL     1      34.643 -14.672 -20.586  0.00  0.00    +0.252 C 
ENDBRANCH   6  15
ENDBRANCH   1   3
BRANCH   1  17
ATOM     17  C   UNL     1      34.865 -18.632 -23.427  0.00  0.00    -0.087 C 
ATOM     18  C   UNL     1      35.151 -19.245 -22.434  0.00  0.00    -0.076 C 
BRANCH  18  23
ATOM     19  N   UNL     1      34.837 -21.372 -19.409  0.00  0.00    -0.336 NA
ATOM     20  N   UNL     1      37.138 -20.698 -19.648  0.00  0.00    -0.317 NA
ATOM     21  N   UNL     1      37.808 -19.322 -21.451  0.00  0.00    -0.334 N 
ATOM     22  N   UNL     1      36.461 -22.064 -17.863  0.00  0.00    -0.283 N 
ATOM     23  C   UNL     1      35.498 -19.972 -21.252  0.00  0.00    +0.179 C 
ATOM     24  C   UNL     1      34.556 -20.674 -20.528  0.00  0.00    +0.120 C 
ATOM     25  C   UNL     1      36.785 -20.020 -20.759  0.00  0.00    +0.186 C 
ATOM     26  C   UNL     1      33.123 -20.701 -20.955  0.00  0.00    +0.064 C 
ATOM     27  C   UNL     1      36.129 -21.342 -19.031  0.00  0.00    +0.196 C 
ATOM     28  H   UNL     1      38.733 -19.345 -21.115  0.00  0.00    +0.144 HD
ATOM     29  H   UNL     1      37.592 -18.815 -22.266  0.00  0.00    +0.144 HD
ATOM     30  H   UNL     1      35.763 -22.553 -17.372  0.00  0.00    +0.156 HD
ATOM     31  H   UNL     1      37.391 -22.077 -17.541  0.00  0.00    +0.156 HD
ENDBRANCH  18  23
ENDBRANCH   1  17
TORSDOF 5
ENDMDL
MODEL 6
REMARK VINA RESULT:     -10.1      5.274     10.611
REMARK  Name = 25195365
REMARK  5 active torsions:
REMARK  status: ('A' for Active; 'I' for Inactive)
REMARK    1  A    between atoms: C_1  and  C_3
REMARK    2  A    between atoms: C_1  and  C_17
REMARK    3  A    between atoms: C_4  and  C_9
REMARK    4  A    between atoms: C_6  and  O_15
REMARK    5  A    between atoms: C_18  and  C_23
REMARK                            x       y       z     vdW  Elec       q    Type
REMARK                         _______ _______ _______ _____ _____    ______ ____
ROOT
ATOM      1  C   UNL     1      36.350 -22.327 -17.887  0.00  0.00    +0.086 C 
ATOM      2  C   UNL     1      37.265 -21.642 -16.854  0.00  0.00    +0.019 C 
ENDROOT
BRANCH   1   3
ATOM      3  C   UNL     1      35.056 -22.782 -17.302  0.00  0.00    -0.007 C 
ATOM      4  C   UNL     1      32.635 -23.633 -16.208  0.00  0.00    +0.034 C 
ATOM      5  C   UNL     1      34.995 -23.176 -15.965  0.00  0.00    +0.034 C 
ATOM      6  C   UNL     1      33.784 -23.602 -15.418  0.00  0.00    +0.138 C 
ATOM      7  C   UNL     1      33.907 -22.815 -18.092  0.00  0.00    -0.003 C 
ATOM      8  C   UNL     1      32.696 -23.239 -17.545  0.00  0.00    +0.003 C 
BRANCH   4   9
ATOM      9  C   UNL     1      31.370 -24.072 -15.661  0.00  0.00    +0.003 C 
ATOM     10  C   UNL     1      30.195 -23.394 -15.988  0.00  0.00    +0.000 C 
ATOM     11  C   UNL     1      31.323 -25.174 -14.806  0.00  0.00    +0.000 C 
ATOM     12  C   UNL     1      28.975 -23.818 -15.462  0.00  0.00    +0.000 C 
ATOM     13  C   UNL     1      30.103 -25.597 -14.279  0.00  0.00    +0.000 C 
ATOM     14  C   UNL     1      28.929 -24.919 -14.607  0.00  0.00    +0.000 C 
ENDBRANCH   4   9
BRANCH   6  15
ATOM     15  O   UNL     1      33.753 -23.980 -14.109  0.00  0.00    -0.471 OA
ATOM     16  C   UNL     1      35.006 -24.234 -13.478  0.00  0.00    +0.252 C 
ENDBRANCH   6  15
ENDBRANCH   1   3
BRANCH   1  17
ATOM     17  C   UNL     1      36.154 -21.425 -19.052  0.00  0.00    -0.087 C 
ATOM     18  C   UNL     1      35.974 -20.700 -19.993  0.00  0.00    -0.076 C 
BRANCH  18  23
ATOM     19  N   UNL     1      34.243 -18.860 -22.712  0.00  0.00    -0.336 NA
ATOM     20  N   UNL     1      36.586 -18.297 -22.763  0.00  0.00    -0.317 NA
ATOM     21  N   UNL     1      38.086 -19.244 -21.198  0.00  0.00    -0.334 N 
ATOM     22  N   UNL     1      35.088 -17.363 -24.310  0.00  0.00    -0.283 N 
ATOM     23  C   UNL     1      35.753 -19.835 -21.110  0.00  0.00    +0.179 C 
ATOM     24  C   UNL     1      34.499 -19.665 -21.660  0.00  0.00    +0.120 C 
ATOM     25  C   UNL     1      36.768 -19.119 -21.709  0.00  0.00    +0.186 C 
ATOM     26  C   UNL     1      33.311 -20.384 -21.104  0.00  0.00    +0.064 C 
ATOM     27  C   UNL     1      35.317 -18.216 -23.207  0.00  0.00    +0.196 C 
ATOM     28  H   UNL     1      38.824 -18.741 -21.612  0.00  0.00    +0.144 HD
ATOM     29  H   UNL     1      38.261 -19.834 -20.430  0.00  0.00    +0.144 HD
ATOM     30  H   UNL     1      34.180 -17.266 -24.676  0.00  0.00    +0.156 HD
ATOM     31  H   UNL     1      35.838 -16.866 -24.712  0.00  0.00    +0.156 HD
ENDBRANCH  18  23
ENDBRANCH   1  17
TORSDOF 5
ENDMDL
MODEL 7
REMARK VINA RESULT:      -9.9      4.729      9.027
REMARK  Name = 25195365
REMARK  5 active torsions:
REMARK  status: ('A' for Active; 'I' for Inactive)
REMARK    1  A    between atoms: C_1  and  C_3
REMARK    2  A    between atoms: C_1  and  C_17
REMARK    3  A    between atoms: C_4  and  C_9
REMARK    4  A    between atoms: C_6  and  O_15
REMARK    5  A    between atoms: C_18  and  C_23
REMARK                            x       y       z     vdW  Elec       q    Type
REMARK                         _______ _______ _______ _____ _____    ______ ____
ROOT
ATOM      1  C   UNL     1      33.376 -14.862 -25.559  0.00  0.00    +0.086 C 
ATOM      2  C   UNL     1      34.051 -14.890 -26.943  0.00  0.00    +0.019 C 
ENDROOT
BRANCH   1   3
ATOM      3  C   UNL     1      33.934 -15.879 -24.622  0.00  0.00    -0.007 C 
ATOM      4  C   UNL     1      34.978 -17.783 -22.872  0.00  0.00    +0.034 C 
ATOM      5  C   UNL     1      34.330 -15.503 -23.339  0.00  0.00    +0.034 C 
ATOM      6  C   UNL     1      34.852 -16.455 -22.463  0.00  0.00    +0.138 C 
ATOM      7  C   UNL     1      34.061 -17.207 -25.030  0.00  0.00    -0.003 C 
ATOM      8  C   UNL     1      34.582 -18.159 -24.155  0.00  0.00    +0.003 C 
BRANCH   4   9
ATOM      9  C   UNL     1      35.518 -18.787 -21.980  0.00  0.00    +0.003 C 
ATOM     10  C   UNL     1      34.677 -19.752 -21.425  0.00  0.00    +0.000 C 
ATOM     11  C   UNL     1      36.879 -18.789 -21.674  0.00  0.00    +0.000 C 
ATOM     12  C   UNL     1      35.198 -20.720 -20.566  0.00  0.00    +0.000 C 
ATOM     13  C   UNL     1      37.399 -19.757 -20.814  0.00  0.00    +0.000 C 
ATOM     14  C   UNL     1      36.558 -20.722 -20.261  0.00  0.00    +0.000 C 
ENDBRANCH   4   9
BRANCH   6  15
ATOM     15  O   UNL     1      35.230 -16.061 -21.213  0.00  0.00    -0.471 OA
ATOM     16  C   UNL     1      34.605 -14.892 -20.688  0.00  0.00    +0.252 C 
ENDBRANCH   6  15
ENDBRANCH   1   3
BRANCH   1  17
ATOM     17  C   UNL     1      33.444 -13.486 -25.002  0.00  0.00    -0.087 C 
ATOM     18  C   UNL     1      33.522 -12.372 -24.558  0.00  0.00    -0.076 C 
BRANCH  18  23
ATOM     19  N   UNL     1      34.653  -8.871 -24.068  0.00  0.00    -0.336 NA
ATOM     20  N   UNL     1      32.888  -9.344 -22.496  0.00  0.00    -0.317 NA
ATOM     21  N   UNL     1      31.859 -11.472 -22.446  0.00  0.00    -0.334 N 
ATOM     22  N   UNL     1      33.917  -7.235 -22.556  0.00  0.00    -0.283 N 
ATOM     23  C   UNL     1      33.618 -11.044 -24.034  0.00  0.00    +0.179 C 
ATOM     24  C   UNL     1      34.527 -10.132 -24.531  0.00  0.00    +0.120 C 
ATOM     25  C   UNL     1      32.817 -10.590 -23.007  0.00  0.00    +0.186 C 
ATOM     26  C   UNL     1      35.454 -10.499 -25.645  0.00  0.00    +0.064 C 
ATOM     27  C   UNL     1      33.814  -8.548 -23.066  0.00  0.00    +0.196 C 
ATOM     28  H   UNL     1      31.279 -11.166 -21.712  0.00  0.00    +0.144 HD
ATOM     29  H   UNL     1      31.776 -12.391 -22.791  0.00  0.00    +0.144 HD
ATOM     30  H   UNL     1      34.576  -6.611 -22.935  0.00  0.00    +0.156 HD
ATOM     31  H   UNL     1      33.328  -6.944 -21.822  0.00  0.00    +0.156 HD
ENDBRANCH  18  23
ENDBRANCH   1  17
TORSDOF 5
ENDMDL
MODEL 8
REMARK VINA RESULT:      -9.7      4.462      9.282
REMARK  Name = 25195365
REMARK  5 active torsions:
REMARK  status: ('A' for Active; 'I' for Inactive)
REMARK    1  A    between atoms: C_1  and  C_3
REMARK    2  A    between atoms: C_1  and  C_17
REMARK    3  A    between atoms: C_4  and  C_9
REMARK    4  A    between atoms: C_6  and  O_15
REMARK    5  A    between atoms: C_18  and  C_23
REMARK                            x       y       z     vdW  Elec       q    Type
REMARK                         _______ _______ _______ _____ _____    ______ ____
ROOT
ATOM      1  C   UNL     1      36.498 -20.068 -21.629  0.00  0.00    +0.086 C 
ATOM      2  C   UNL     1      37.726 -19.411 -20.969  0.00  0.00    +0.019 C 
ENDROOT
BRANCH   1   3
ATOM      3  C   UNL     1      35.598 -20.733 -20.643  0.00  0.00    -0.007 C 
ATOM      4  C   UNL     1      33.914 -21.975 -18.799  0.00  0.00    +0.034 C 
ATOM      5  C   UNL     1      36.140 -21.467 -19.587  0.00  0.00    +0.034 C 
ATOM      6  C   UNL     1      35.298 -22.088 -18.665  0.00  0.00    +0.138 C 
ATOM      7  C   UNL     1      34.215 -20.621 -20.776  0.00  0.00    -0.003 C 
ATOM      8  C   UNL     1      33.372 -21.241 -19.854  0.00  0.00    +0.003 C 
BRANCH   4   9
ATOM      9  C   UNL     1      33.022 -22.613 -17.854  0.00  0.00    +0.003 C 
ATOM     10  C   UNL     1      33.528 -23.510 -16.914  0.00  0.00    +0.000 C 
ATOM     11  C   UNL     1      31.656 -22.329 -17.883  0.00  0.00    +0.000 C 
ATOM     12  C   UNL     1      32.669 -24.124 -16.003  0.00  0.00    +0.000 C 
ATOM     13  C   UNL     1      30.797 -22.944 -16.972  0.00  0.00    +0.000 C 
ATOM     14  C   UNL     1      31.304 -23.841 -16.032  0.00  0.00    +0.000 C 
ENDBRANCH   4   9
BRANCH   6  15
ATOM     15  O   UNL     1      35.854 -22.798 -17.643  0.00  0.00    -0.471 OA
ATOM     16  C   UNL     1      36.957 -22.200 -16.965  0.00  0.00    +0.252 C 
ENDBRANCH   6  15
ENDBRANCH   1   3
BRANCH   1  17
ATOM     17  C   UNL     1      35.782 -19.063 -22.456  0.00  0.00    -0.087 C 
ATOM     18  C   UNL     1      35.216 -18.256 -23.144  0.00  0.00    -0.076 C 
BRANCH  18  23
ATOM     19  N   UNL     1      33.320 -16.788 -25.976  0.00  0.00    -0.336 NA
ATOM     20  N   UNL     1      33.799 -15.048 -24.378  0.00  0.00    -0.317 NA
ATOM     21  N   UNL     1      34.999 -15.530 -22.398  0.00  0.00    -0.334 N 
ATOM     22  N   UNL     1      32.608 -14.583 -26.346  0.00  0.00    -0.283 N 
ATOM     23  C   UNL     1      34.543 -17.300 -23.967  0.00  0.00    +0.179 C 
ATOM     24  C   UNL     1      33.964 -17.655 -25.168  0.00  0.00    +0.120 C 
ATOM     25  C   UNL     1      34.428 -15.970 -23.620  0.00  0.00    +0.186 C 
ATOM     26  C   UNL     1      34.019 -19.066 -25.660  0.00  0.00    +0.064 C 
ATOM     27  C   UNL     1      33.275 -15.519 -25.526  0.00  0.00    +0.196 C 
ATOM     28  H   UNL     1      34.928 -14.585 -22.133  0.00  0.00    +0.144 HD
ATOM     29  H   UNL     1      35.468 -16.171 -21.816  0.00  0.00    +0.144 HD
ATOM     30  H   UNL     1      32.206 -14.872 -27.196  0.00  0.00    +0.156 HD
ATOM     31  H   UNL     1      32.544 -13.641 -26.066  0.00  0.00    +0.156 HD
ENDBRANCH  18  23
ENDBRANCH   1  17
TORSDOF 5
ENDMDL
MODEL 9
REMARK VINA RESULT:      -9.7      2.823      5.305
REMARK  Name = 25195365
REMARK  5 active torsions:
REMARK  status: ('A' for Active; 'I' for Inactive)
REMARK    1  A    between atoms: C_1  and  C_3
REMARK    2  A    between atoms: C_1  and  C_17
REMARK    3  A    between atoms: C_4  and  C_9
REMARK    4  A    between atoms: C_6  and  O_15
REMARK    5  A    between atoms: C_18  and  C_23
REMARK                            x       y       z     vdW  Elec       q    Type
REMARK                         _______ _______ _______ _____ _____    ______ ____
ROOT
ATOM      1  C   UNL     1      34.018 -12.883 -25.173  0.00  0.00    +0.086 C 
ATOM      2  C   UNL     1      32.952 -13.250 -26.224  0.00  0.00    +0.019 C 
ENDROOT
BRANCH   1   3
ATOM      3  C   UNL     1      33.646 -11.684 -24.368  0.00  0.00    -0.007 C 
ATOM      4  C   UNL     1      32.953  -9.441 -22.862  0.00  0.00    +0.034 C 
ATOM      5  C   UNL     1      32.653 -11.778 -23.394  0.00  0.00    +0.034 C 
ATOM      6  C   UNL     1      32.306 -10.656 -22.640  0.00  0.00    +0.138 C 
ATOM      7  C   UNL     1      34.293 -10.468 -24.589  0.00  0.00    -0.003 C 
ATOM      8  C   UNL     1      33.947  -9.347 -23.836  0.00  0.00    +0.003 C 
BRANCH   4   9
ATOM      9  C   UNL     1      32.608  -8.265 -22.093  0.00  0.00    +0.003 C 
ATOM     10  C   UNL     1      33.060  -8.133 -20.779  0.00  0.00    +0.000 C 
ATOM     11  C   UNL     1      31.824  -7.262 -22.664  0.00  0.00    +0.000 C 
ATOM     12  C   UNL     1      32.728  -6.999 -20.038  0.00  0.00    +0.000 C 
ATOM     13  C   UNL     1      31.492  -6.129 -21.922  0.00  0.00    +0.000 C 
ATOM     14  C   UNL     1      31.944  -5.997 -20.609  0.00  0.00    +0.000 C 
ENDBRANCH   4   9
BRANCH   6  15
ATOM     15  O   UNL     1      31.332 -10.777 -21.694  0.00  0.00    -0.471 OA
ATOM     16  C   UNL     1      31.619 -11.611 -20.574  0.00  0.00    +0.252 C 
ENDBRANCH   6  15
ENDBRANCH   1   3
BRANCH   1  17
ATOM     17  C   UNL     1      34.304 -14.067 -24.322  0.00  0.00    -0.087 C 
ATOM     18  C   UNL     1      34.548 -15.033 -23.651  0.00  0.00    -0.076 C 
BRANCH  18  23
ATOM     19  N   UNL     1      35.246 -18.552 -22.701  0.00  0.00    -0.336 NA
ATOM     20  N   UNL     1      35.305 -17.186 -20.716  0.00  0.00    -0.317 NA
ATOM     21  N   UNL     1      34.912 -14.858 -20.846  0.00  0.00    -0.334 N 
ATOM     22  N   UNL     1      35.694 -19.498 -20.601  0.00  0.00    -0.283 N 
ATOM     23  C   UNL     1      34.844 -16.184 -22.855  0.00  0.00    +0.179 C 
ATOM     24  C   UNL     1      34.968 -17.440 -23.412  0.00  0.00    +0.120 C 
ATOM     25  C   UNL     1      35.025 -16.117 -21.489  0.00  0.00    +0.186 C 
ATOM     26  C   UNL     1      34.794 -17.649 -24.883  0.00  0.00    +0.064 C 
ATOM     27  C   UNL     1      35.401 -18.356 -21.378  0.00  0.00    +0.196 C 
ATOM     28  H   UNL     1      35.038 -14.790 -19.872  0.00  0.00    +0.144 HD
ATOM     29  H   UNL     1      34.709 -14.052 -21.374  0.00  0.00    +0.144 HD
ATOM     30  H   UNL     1      35.775 -20.379 -21.033  0.00  0.00    +0.156 HD
ATOM     31  H   UNL     1      35.817 -19.413 -19.628  0.00  0.00    +0.156 HD
ENDBRANCH  18  23
ENDBRANCH   1  17
TORSDOF 5
ENDMDL
