MODEL 1
REMARK VINA RESULT:     -11.6      0.000      0.000
REMARK  Name = 66645351
REMARK  11 active torsions:
REMARK  status: ('A' for Active; 'I' for Inactive)
REMARK    1  A    between atoms: C_2  and  C_4
REMARK    2  A    between atoms: C_2  and  C_18
REMARK    3  A    between atoms: C_3  and  C_5
REMARK    4  A    between atoms: C_6  and  O_11
REMARK    5  A    between atoms: C_8  and  O_13
REMARK    6  A    between atoms: O_13  and  S_14
REMARK    7  A    between atoms: C_18  and  C_20
REMARK    8  A    between atoms: C_20  and  C_22
REMARK    9  A    between atoms: C_21  and  C_23
REMARK   10  A    between atoms: C_25  and  O_29
REMARK   11  A    between atoms: C_27  and  O_31
REMARK                            x       y       z     vdW  Elec       q    Type
REMARK                         _______ _______ _______ _____ _____    ______ ____
ROOT
ATOM      1  O   UNL     1      32.676 -21.878 -20.057  0.00  0.00    -0.291 OA
ATOM      2  C   UNL     1      33.655 -22.266 -19.424  0.00  0.00    +0.181 C 
ENDROOT
BRANCH   2   4
ATOM      3  C   UNL     1      34.627 -23.118 -17.331  0.00  0.00    +0.003 C 
ATOM      4  C   UNL     1      33.535 -22.755 -18.018  0.00  0.00    +0.038 C 
BRANCH   3   5
ATOM      5  C   UNL     1      34.617 -23.605 -15.939  0.00  0.00    +0.003 C 
ATOM      6  C   UNL     1      33.445 -23.965 -13.858  0.00  0.00    +0.175 C 
ATOM      7  C   UNL     1      33.455 -23.506 -15.175  0.00  0.00    +0.040 C 
ATOM      8  C   UNL     1      34.598 -24.525 -13.305  0.00  0.00    +0.209 C 
ATOM      9  C   UNL     1      35.770 -24.164 -15.388  0.00  0.00    +0.003 C 
ATOM     10  C   UNL     1      35.761 -24.624 -14.071  0.00  0.00    +0.043 C 
BRANCH   6  11
ATOM     11  O   UNL     1      32.304 -23.864 -13.121  0.00  0.00    -0.468 OA
ATOM     12  C   UNL     1      31.248 -24.771 -13.433  0.00  0.00    +0.253 C 
ENDBRANCH   6  11
BRANCH   8  13
ATOM     13  O   UNL     1      34.601 -24.977 -12.021  0.00  0.00    -0.319 OA
BRANCH  13  14
ATOM     14  S   UNL     1      35.959 -24.786 -11.114  0.00  0.00    +0.282 S 
ATOM     15  O   UNL     1      35.419 -24.879  -9.576  0.00  0.00    -0.012 OA
ATOM     16  O   UNL     1      36.844 -25.913 -11.344  0.00  0.00    -0.105 OA
ATOM     17  O   UNL     1      36.441 -23.433 -11.323  0.00  0.00    -0.105 OA
ENDBRANCH  13  14
ENDBRANCH   8  13
ENDBRANCH   3   5
ENDBRANCH   2   4
BRANCH   2  18
ATOM     18  C   UNL     1      35.058 -22.239 -19.994  0.00  0.00    +0.138 C 
BRANCH  18  20
ATOM     19  O   UNL     1      36.556 -20.381 -19.658  0.00  0.00    -0.291 OA
ATOM     20  C   UNL     1      35.616 -20.860 -20.286  0.00  0.00    +0.181 C 
BRANCH  20  22
ATOM     21  C   UNL     1      35.624 -19.362 -22.237  0.00  0.00    +0.003 C 
ATOM     22  C   UNL     1      34.920 -20.095 -21.363  0.00  0.00    +0.038 C 
BRANCH  21  23
ATOM     23  C   UNL     1      35.035 -18.566 -23.328  0.00  0.00    +0.003 C 
ATOM     24  C   UNL     1      34.991 -17.176 -23.233  0.00  0.00    +0.040 C 
ATOM     25  C   UNL     1      34.433 -16.422 -24.266  0.00  0.00    +0.172 C 
ATOM     26  C   UNL     1      34.519 -19.204 -24.457  0.00  0.00    +0.003 C 
ATOM     27  C   UNL     1      33.918 -17.060 -25.394  0.00  0.00    +0.168 C 
ATOM     28  C   UNL     1      33.960 -18.451 -25.490  0.00  0.00    +0.040 C 
BRANCH  25  29
ATOM     29  O   UNL     1      34.396 -15.064 -24.161  0.00  0.00    -0.468 OA
ATOM     30  C   UNL     1      34.435 -14.515 -22.846  0.00  0.00    +0.253 C 
ENDBRANCH  25  29
BRANCH  27  31
ATOM     31  O   UNL     1      33.369 -16.336 -26.410  0.00  0.00    -0.503 OA
ATOM     32  H   UNL     1      32.536 -15.923 -26.294  0.00  0.00    +0.292 HD
ENDBRANCH  27  31
ENDBRANCH  21  23
ENDBRANCH  20  22
ENDBRANCH  18  20
ENDBRANCH   2  18
TORSDOF 11
ENDMDL
MODEL 2
REMARK VINA RESULT:     -11.3      1.391      2.425
REMARK  Name = 66645351
REMARK  11 active torsions:
REMARK  status: ('A' for Active; 'I' for Inactive)
REMARK    1  A    between atoms: C_2  and  C_4
REMARK    2  A    between atoms: C_2  and  C_18
REMARK    3  A    between atoms: C_3  and  C_5
REMARK    4  A    between atoms: C_6  and  O_11
REMARK    5  A    between atoms: C_8  and  O_13
REMARK    6  A    between atoms: O_13  and  S_14
REMARK    7  A    between atoms: C_18  and  C_20
REMARK    8  A    between atoms: C_20  and  C_22
REMARK    9  A    between atoms: C_21  and  C_23
REMARK   10  A    between atoms: C_25  and  O_29
REMARK   11  A    between atoms: C_27  and  O_31
REMARK                            x       y       z     vdW  Elec       q    Type
REMARK                         _______ _______ _______ _____ _____    ______ ____
ROOT
ATOM      1  O   UNL     1      33.347 -21.176 -19.910  0.00  0.00    -0.291 OA
ATOM      2  C   UNL     1      34.414 -21.711 -19.622  0.00  0.00    +0.181 C 
ENDROOT
BRANCH   2   4
ATOM      3  C   UNL     1      35.556 -22.379 -17.547  0.00  0.00    +0.003 C 
ATOM      4  C   UNL     1      34.556 -22.581 -18.416  0.00  0.00    +0.038 C 
BRANCH   3   5
ATOM      5  C   UNL     1      35.777 -23.174 -16.325  0.00  0.00    +0.003 C 
ATOM      6  C   UNL     1      37.283 -24.114 -14.686  0.00  0.00    +0.175 C 
ATOM      7  C   UNL     1      37.072 -23.361 -15.841  0.00  0.00    +0.040 C 
ATOM      8  C   UNL     1      36.198 -24.679 -14.014  0.00  0.00    +0.209 C 
ATOM      9  C   UNL     1      34.693 -23.739 -15.655  0.00  0.00    +0.003 C 
ATOM     10  C   UNL     1      34.903 -24.492 -14.499  0.00  0.00    +0.043 C 
BRANCH   6  11
ATOM     11  O   UNL     1      38.552 -24.288 -14.222  0.00  0.00    -0.468 OA
ATOM     12  C   UNL     1      39.273 -25.415 -14.716  0.00  0.00    +0.253 C 
ENDBRANCH   6  11
BRANCH   8  13
ATOM     13  O   UNL     1      36.391 -25.416 -12.885  0.00  0.00    -0.319 OA
BRANCH  13  14
ATOM     14  S   UNL     1      36.388 -24.655 -11.429  0.00  0.00    +0.282 S 
ATOM     15  O   UNL     1      37.930 -24.798 -10.911  0.00  0.00    -0.012 OA
ATOM     16  O   UNL     1      36.117 -23.244 -11.634  0.00  0.00    -0.105 OA
ATOM     17  O   UNL     1      35.555 -25.429 -10.528  0.00  0.00    -0.105 OA
ENDBRANCH  13  14
ENDBRANCH   8  13
ENDBRANCH   3   5
ENDBRANCH   2   4
BRANCH   2  18
ATOM     18  C   UNL     1      35.678 -21.499 -20.431  0.00  0.00    +0.138 C 
BRANCH  18  20
ATOM     19  O   UNL     1      37.125 -19.642 -19.920  0.00  0.00    -0.291 OA
ATOM     20  C   UNL     1      36.150 -20.063 -20.536  0.00  0.00    +0.181 C 
BRANCH  20  22
ATOM     21  C   UNL     1      35.737 -18.864 -22.644  0.00  0.00    +0.003 C 
ATOM     22  C   UNL     1      35.326 -19.172 -21.406  0.00  0.00    +0.038 C 
BRANCH  21  23
ATOM     23  C   UNL     1      35.004 -17.990 -23.577  0.00  0.00    +0.003 C 
ATOM     24  C   UNL     1      34.938 -16.617 -23.341  0.00  0.00    +0.040 C 
ATOM     25  C   UNL     1      34.244 -15.789 -24.223  0.00  0.00    +0.172 C 
ATOM     26  C   UNL     1      34.374 -18.536 -24.696  0.00  0.00    +0.003 C 
ATOM     27  C   UNL     1      33.614 -16.336 -25.342  0.00  0.00    +0.168 C 
ATOM     28  C   UNL     1      33.678 -17.709 -25.578  0.00  0.00    +0.040 C 
BRANCH  25  29
ATOM     29  O   UNL     1      34.187 -14.450 -23.982  0.00  0.00    -0.468 OA
ATOM     30  C   UNL     1      34.157 -14.038 -22.617  0.00  0.00    +0.253 C 
ENDBRANCH  25  29
BRANCH  27  31
ATOM     31  O   UNL     1      32.932 -15.539 -26.211  0.00  0.00    -0.503 OA
ATOM     32  H   UNL     1      32.861 -15.782 -27.113  0.00  0.00    +0.292 HD
ENDBRANCH  27  31
ENDBRANCH  21  23
ENDBRANCH  20  22
ENDBRANCH  18  20
ENDBRANCH   2  18
TORSDOF 11
ENDMDL
MODEL 3
REMARK VINA RESULT:     -11.2      3.543     11.787
REMARK  Name = 66645351
REMARK  11 active torsions:
REMARK  status: ('A' for Active; 'I' for Inactive)
REMARK    1  A    between atoms: C_2  and  C_4
REMARK    2  A    between atoms: C_2  and  C_18
REMARK    3  A    between atoms: C_3  and  C_5
REMARK    4  A    between atoms: C_6  and  O_11
REMARK    5  A    between atoms: C_8  and  O_13
REMARK    6  A    between atoms: O_13  and  S_14
REMARK    7  A    between atoms: C_18  and  C_20
REMARK    8  A    between atoms: C_20  and  C_22
REMARK    9  A    between atoms: C_21  and  C_23
REMARK   10  A    between atoms: C_25  and  O_29
REMARK   11  A    between atoms: C_27  and  O_31
REMARK                            x       y       z     vdW  Elec       q    Type
REMARK                         _______ _______ _______ _____ _____    ______ ____
ROOT
ATOM      1  O   UNL     1      36.615 -21.402 -18.322  0.00  0.00    -0.291 OA
ATOM      2  C   UNL     1      36.033 -21.569 -19.391  0.00  0.00    +0.181 C 
ENDROOT
BRANCH   2   4
ATOM      3  C   UNL     1      35.030 -20.051 -21.046  0.00  0.00    +0.003 C 
ATOM      4  C   UNL     1      36.136 -20.579 -20.504  0.00  0.00    +0.038 C 
BRANCH   3   5
ATOM      5  C   UNL     1      35.024 -19.062 -22.141  0.00  0.00    +0.003 C 
ATOM      6  C   UNL     1      35.209 -16.774 -22.893  0.00  0.00    +0.175 C 
ATOM      7  C   UNL     1      35.215 -17.711 -21.859  0.00  0.00    +0.040 C 
ATOM      8  C   UNL     1      35.012 -17.191 -24.210  0.00  0.00    +0.209 C 
ATOM      9  C   UNL     1      34.827 -19.480 -23.457  0.00  0.00    +0.003 C 
ATOM     10  C   UNL     1      34.821 -18.545 -24.491  0.00  0.00    +0.043 C 
BRANCH   6  11
ATOM     11  O   UNL     1      35.398 -15.456 -22.606  0.00  0.00    -0.468 OA
ATOM     12  C   UNL     1      34.598 -14.899 -21.565  0.00  0.00    +0.253 C 
ENDBRANCH   6  11
BRANCH   8  13
ATOM     13  O   UNL     1      35.003 -16.288 -25.229  0.00  0.00    -0.319 OA
BRANCH  13  14
ATOM     14  S   UNL     1      33.560 -15.753 -25.804  0.00  0.00    +0.282 S 
ATOM     15  O   UNL     1      33.957 -14.947 -27.168  0.00  0.00    -0.012 OA
ATOM     16  O   UNL     1      32.749 -16.895 -26.183  0.00  0.00    -0.105 OA
ATOM     17  O   UNL     1      33.043 -14.778 -24.861  0.00  0.00    -0.105 OA
ENDBRANCH  13  14
ENDBRANCH   8  13
ENDBRANCH   3   5
ENDBRANCH   2   4
BRANCH   2  18
ATOM     18  C   UNL     1      35.133 -22.760 -19.651  0.00  0.00    +0.138 C 
BRANCH  18  20
ATOM     19  O   UNL     1      32.864 -21.971 -19.849  0.00  0.00    -0.291 OA
ATOM     20  C   UNL     1      33.695 -22.599 -19.198  0.00  0.00    +0.181 C 
BRANCH  20  22
ATOM     21  C   UNL     1      32.179 -22.962 -17.294  0.00  0.00    +0.003 C 
ATOM     22  C   UNL     1      33.357 -23.218 -17.882  0.00  0.00    +0.038 C 
BRANCH  21  23
ATOM     23  C   UNL     1      31.754 -23.514 -15.996  0.00  0.00    +0.003 C 
ATOM     24  C   UNL     1      32.668 -23.618 -14.948  0.00  0.00    +0.040 C 
ATOM     25  C   UNL     1      32.266 -24.141 -13.720  0.00  0.00    +0.172 C 
ATOM     26  C   UNL     1      30.436 -23.936 -15.815  0.00  0.00    +0.003 C 
ATOM     27  C   UNL     1      30.948 -24.562 -13.539  0.00  0.00    +0.168 C 
ATOM     28  C   UNL     1      30.033 -24.460 -14.587  0.00  0.00    +0.040 C 
BRANCH  25  29
ATOM     29  O   UNL     1      33.168 -24.236 -12.703  0.00  0.00    -0.468 OA
ATOM     30  C   UNL     1      34.538 -24.393 -13.067  0.00  0.00    +0.253 C 
ENDBRANCH  25  29
BRANCH  27  31
ATOM     31  O   UNL     1      30.543 -25.075 -12.344  0.00  0.00    -0.503 OA
ATOM     32  H   UNL     1      30.301 -25.978 -12.280  0.00  0.00    +0.292 HD
ENDBRANCH  27  31
ENDBRANCH  21  23
ENDBRANCH  20  22
ENDBRANCH  18  20
ENDBRANCH   2  18
TORSDOF 11
ENDMDL
MODEL 4
REMARK VINA RESULT:     -11.1      4.211      6.710
REMARK  Name = 66645351
REMARK  11 active torsions:
REMARK  status: ('A' for Active; 'I' for Inactive)
REMARK    1  A    between atoms: C_2  and  C_4
REMARK    2  A    between atoms: C_2  and  C_18
REMARK    3  A    between atoms: C_3  and  C_5
REMARK    4  A    between atoms: C_6  and  O_11
REMARK    5  A    between atoms: C_8  and  O_13
REMARK    6  A    between atoms: O_13  and  S_14
REMARK    7  A    between atoms: C_18  and  C_20
REMARK    8  A    between atoms: C_20  and  C_22
REMARK    9  A    between atoms: C_21  and  C_23
REMARK   10  A    between atoms: C_25  and  O_29
REMARK   11  A    between atoms: C_27  and  O_31
REMARK                            x       y       z     vdW  Elec       q    Type
REMARK                         _______ _______ _______ _____ _____    ______ ____
ROOT
ATOM      1  O   UNL     1      30.859 -23.934 -12.788  0.00  0.00    -0.291 OA
ATOM      2  C   UNL     1      31.262 -24.602 -13.736  0.00  0.00    +0.181 C 
ENDROOT
BRANCH   2   4
ATOM      3  C   UNL     1      33.701 -24.494 -14.044  0.00  0.00    +0.003 C 
ATOM      4  C   UNL     1      32.620 -25.224 -13.736  0.00  0.00    +0.038 C 
BRANCH   3   5
ATOM      5  C   UNL     1      35.082 -25.009 -14.065  0.00  0.00    +0.003 C 
ATOM      6  C   UNL     1      37.292 -25.108 -13.094  0.00  0.00    +0.175 C 
ATOM      7  C   UNL     1      35.985 -24.622 -13.075  0.00  0.00    +0.040 C 
ATOM      8  C   UNL     1      37.696 -25.983 -14.104  0.00  0.00    +0.209 C 
ATOM      9  C   UNL     1      35.485 -25.883 -15.075  0.00  0.00    +0.003 C 
ATOM     10  C   UNL     1      36.793 -26.369 -15.095  0.00  0.00    +0.043 C 
BRANCH   6  11
ATOM     11  O   UNL     1      38.165 -24.725 -12.121  0.00  0.00    -0.468 OA
ATOM     12  C   UNL     1      38.044 -23.390 -11.632  0.00  0.00    +0.253 C 
ENDBRANCH   6  11
BRANCH   8  13
ATOM     13  O   UNL     1      38.970 -26.464 -14.134  0.00  0.00    -0.319 OA
BRANCH  13  14
ATOM     14  S   UNL     1      40.141 -25.569 -14.860  0.00  0.00    +0.282 S 
ATOM     15  O   UNL     1      39.328 -24.306 -15.499  0.00  0.00    -0.012 OA
ATOM     16  O   UNL     1      41.039 -25.052 -13.844  0.00  0.00    -0.105 OA
ATOM     17  O   UNL     1      40.670 -26.347 -15.966  0.00  0.00    -0.105 OA
ENDBRANCH  13  14
ENDBRANCH   8  13
ENDBRANCH   3   5
ENDBRANCH   2   4
BRANCH   2  18
ATOM     18  C   UNL     1      30.443 -24.813 -14.993  0.00  0.00    +0.138 C 
BRANCH  18  20
ATOM     19  O   UNL     1      28.857 -23.154 -15.729  0.00  0.00    -0.291 OA
ATOM     20  C   UNL     1      30.020 -23.548 -15.714  0.00  0.00    +0.181 C 
BRANCH  20  22
ATOM     21  C   UNL     1      32.114 -23.509 -17.005  0.00  0.00    +0.003 C 
ATOM     22  C   UNL     1      31.103 -22.827 -16.448  0.00  0.00    +0.038 C 
BRANCH  21  23
ATOM     23  C   UNL     1      33.232 -22.894 -17.742  0.00  0.00    +0.003 C 
ATOM     24  C   UNL     1      34.535 -23.016 -17.260  0.00  0.00    +0.040 C 
ATOM     25  C   UNL     1      35.594 -22.435 -17.957  0.00  0.00    +0.172 C 
ATOM     26  C   UNL     1      32.988 -22.188 -18.920  0.00  0.00    +0.003 C 
ATOM     27  C   UNL     1      35.349 -21.729 -19.135  0.00  0.00    +0.168 C 
ATOM     28  C   UNL     1      34.046 -21.605 -19.616  0.00  0.00    +0.040 C 
BRANCH  25  29
ATOM     29  O   UNL     1      36.863 -22.561 -17.477  0.00  0.00    -0.468 OA
ATOM     30  C   UNL     1      37.273 -21.630 -16.477  0.00  0.00    +0.253 C 
ENDBRANCH  25  29
BRANCH  27  31
ATOM     31  O   UNL     1      36.375 -21.155 -19.825  0.00  0.00    -0.503 OA
ATOM     32  H   UNL     1      37.229 -21.540 -19.800  0.00  0.00    +0.292 HD
ENDBRANCH  27  31
ENDBRANCH  21  23
ENDBRANCH  20  22
ENDBRANCH  18  20
ENDBRANCH   2  18
TORSDOF 11
ENDMDL
MODEL 5
REMARK VINA RESULT:     -11.1      2.639      4.029
REMARK  Name = 66645351
REMARK  11 active torsions:
REMARK  status: ('A' for Active; 'I' for Inactive)
REMARK    1  A    between atoms: C_2  and  C_4
REMARK    2  A    between atoms: C_2  and  C_18
REMARK    3  A    between atoms: C_3  and  C_5
REMARK    4  A    between atoms: C_6  and  O_11
REMARK    5  A    between atoms: C_8  and  O_13
REMARK    6  A    between atoms: O_13  and  S_14
REMARK    7  A    between atoms: C_18  and  C_20
REMARK    8  A    between atoms: C_20  and  C_22
REMARK    9  A    between atoms: C_21  and  C_23
REMARK   10  A    between atoms: C_25  and  O_29
REMARK   11  A    between atoms: C_27  and  O_31
REMARK                            x       y       z     vdW  Elec       q    Type
REMARK                         _______ _______ _______ _____ _____    ______ ____
ROOT
ATOM      1  O   UNL     1      31.881 -23.452 -16.475  0.00  0.00    -0.291 OA
ATOM      2  C   UNL     1      32.909 -23.198 -17.097  0.00  0.00    +0.181 C 
ENDROOT
BRANCH   2   4
ATOM      3  C   UNL     1      34.378 -24.305 -15.462  0.00  0.00    +0.003 C 
ATOM      4  C   UNL     1      34.239 -23.719 -16.659  0.00  0.00    +0.038 C 
BRANCH   3   5
ATOM      5  C   UNL     1      35.642 -24.858 -14.942  0.00  0.00    +0.003 C 
ATOM      6  C   UNL     1      37.604 -24.640 -13.550  0.00  0.00    +0.175 C 
ATOM      7  C   UNL     1      36.407 -24.118 -14.042  0.00  0.00    +0.040 C 
ATOM      8  C   UNL     1      38.034 -25.903 -13.958  0.00  0.00    +0.209 C 
ATOM      9  C   UNL     1      36.071 -26.121 -15.350  0.00  0.00    +0.003 C 
ATOM     10  C   UNL     1      37.267 -26.643 -14.858  0.00  0.00    +0.043 C 
BRANCH   6  11
ATOM     11  O   UNL     1      38.343 -23.908 -12.670  0.00  0.00    -0.468 OA
ATOM     12  C   UNL     1      37.630 -23.058 -11.774  0.00  0.00    +0.253 C 
ENDBRANCH   6  11
BRANCH   8  13
ATOM     13  O   UNL     1      39.200 -26.424 -13.484  0.00  0.00    -0.319 OA
BRANCH  13  14
ATOM     14  S   UNL     1      40.592 -26.135 -14.309  0.00  0.00    +0.282 S 
ATOM     15  O   UNL     1      41.621 -27.272 -13.749  0.00  0.00    -0.012 OA
ATOM     16  O   UNL     1      40.368 -26.394 -15.720  0.00  0.00    -0.105 OA
ATOM     17  O   UNL     1      41.098 -24.844 -13.881  0.00  0.00    -0.105 OA
ENDBRANCH  13  14
ENDBRANCH   8  13
ENDBRANCH   3   5
ENDBRANCH   2   4
BRANCH   2  18
ATOM     18  C   UNL     1      32.923 -22.305 -18.321  0.00  0.00    +0.138 C 
BRANCH  18  20
ATOM     19  O   UNL     1      34.298 -23.809 -19.609  0.00  0.00    -0.291 OA
ATOM     20  C   UNL     1      33.964 -22.652 -19.367  0.00  0.00    +0.181 C 
BRANCH  20  22
ATOM     21  C   UNL     1      33.865 -20.688 -20.845  0.00  0.00    +0.003 C 
ATOM     22  C   UNL     1      34.597 -21.491 -20.060  0.00  0.00    +0.038 C 
BRANCH  21  23
ATOM     23  C   UNL     1      34.393 -19.524 -21.577  0.00  0.00    +0.003 C 
ATOM     24  C   UNL     1      34.196 -19.417 -22.954  0.00  0.00    +0.040 C 
ATOM     25  C   UNL     1      34.696 -18.315 -23.648  0.00  0.00    +0.172 C 
ATOM     26  C   UNL     1      35.094 -18.528 -20.895  0.00  0.00    +0.003 C 
ATOM     27  C   UNL     1      35.396 -17.321 -22.965  0.00  0.00    +0.168 C 
ATOM     28  C   UNL     1      35.595 -17.427 -21.589  0.00  0.00    +0.040 C 
BRANCH  25  29
ATOM     29  O   UNL     1      34.496 -18.222 -24.993  0.00  0.00    -0.468 OA
ATOM     30  C   UNL     1      33.483 -19.054 -25.556  0.00  0.00    +0.253 C 
ENDBRANCH  25  29
BRANCH  27  31
ATOM     31  O   UNL     1      35.890 -16.239 -23.631  0.00  0.00    -0.503 OA
ATOM     32  H   UNL     1      35.494 -15.963 -24.435  0.00  0.00    +0.292 HD
ENDBRANCH  27  31
ENDBRANCH  21  23
ENDBRANCH  20  22
ENDBRANCH  18  20
ENDBRANCH   2  18
TORSDOF 11
ENDMDL
MODEL 6
REMARK VINA RESULT:     -10.9      3.379     11.946
REMARK  Name = 66645351
REMARK  11 active torsions:
REMARK  status: ('A' for Active; 'I' for Inactive)
REMARK    1  A    between atoms: C_2  and  C_4
REMARK    2  A    between atoms: C_2  and  C_18
REMARK    3  A    between atoms: C_3  and  C_5
REMARK    4  A    between atoms: C_6  and  O_11
REMARK    5  A    between atoms: C_8  and  O_13
REMARK    6  A    between atoms: O_13  and  S_14
REMARK    7  A    between atoms: C_18  and  C_20
REMARK    8  A    between atoms: C_20  and  C_22
REMARK    9  A    between atoms: C_21  and  C_23
REMARK   10  A    between atoms: C_25  and  O_29
REMARK   11  A    between atoms: C_27  and  O_31
REMARK                            x       y       z     vdW  Elec       q    Type
REMARK                         _______ _______ _______ _____ _____    ______ ____
ROOT
ATOM      1  O   UNL     1      36.635 -21.508 -18.294  0.00  0.00    -0.291 OA
ATOM      2  C   UNL     1      35.956 -21.688 -19.301  0.00  0.00    +0.181 C 
ENDROOT
BRANCH   2   4
ATOM      3  C   UNL     1      35.010 -20.024 -20.847  0.00  0.00    +0.003 C 
ATOM      4  C   UNL     1      36.053 -20.783 -20.485  0.00  0.00    +0.038 C 
BRANCH   3   5
ATOM      5  C   UNL     1      35.007 -19.094 -21.991  0.00  0.00    +0.003 C 
ATOM      6  C   UNL     1      35.208 -16.850 -22.863  0.00  0.00    +0.175 C 
ATOM      7  C   UNL     1      35.211 -17.731 -21.781  0.00  0.00    +0.040 C 
ATOM      8  C   UNL     1      35.001 -17.333 -24.155  0.00  0.00    +0.209 C 
ATOM      9  C   UNL     1      34.800 -19.578 -23.283  0.00  0.00    +0.003 C 
ATOM     10  C   UNL     1      34.797 -18.698 -24.365  0.00  0.00    +0.043 C 
BRANCH   6  11
ATOM     11  O   UNL     1      35.409 -15.520 -22.646  0.00  0.00    -0.468 OA
ATOM     12  C   UNL     1      34.650 -14.911 -21.603  0.00  0.00    +0.253 C 
ENDBRANCH   6  11
BRANCH   8  13
ATOM     13  O   UNL     1      34.995 -16.484 -25.220  0.00  0.00    -0.319 OA
BRANCH  13  14
ATOM     14  S   UNL     1      33.556 -15.918 -25.777  0.00  0.00    +0.282 S 
ATOM     15  O   UNL     1      33.951 -15.138 -27.157  0.00  0.00    -0.012 OA
ATOM     16  O   UNL     1      32.709 -17.043 -26.128  0.00  0.00    -0.105 OA
ATOM     17  O   UNL     1      33.082 -14.919 -24.836  0.00  0.00    -0.105 OA
ENDBRANCH  13  14
ENDBRANCH   8  13
ENDBRANCH   3   5
ENDBRANCH   2   4
BRANCH   2  18
ATOM     18  C   UNL     1      34.937 -22.804 -19.409  0.00  0.00    +0.138 C 
BRANCH  18  20
ATOM     19  O   UNL     1      32.645 -22.087 -19.211  0.00  0.00    -0.291 OA
ATOM     20  C   UNL     1      33.635 -22.571 -18.669  0.00  0.00    +0.181 C 
BRANCH  20  22
ATOM     21  C   UNL     1      34.662 -23.622 -16.696  0.00  0.00    +0.003 C 
ATOM     22  C   UNL     1      33.641 -22.928 -17.219  0.00  0.00    +0.038 C 
BRANCH  21  23
ATOM     23  C   UNL     1      34.761 -24.030 -15.284  0.00  0.00    +0.003 C 
ATOM     24  C   UNL     1      35.988 -24.434 -14.758  0.00  0.00    +0.040 C 
ATOM     25  C   UNL     1      36.082 -24.820 -13.421  0.00  0.00    +0.172 C 
ATOM     26  C   UNL     1      33.626 -24.013 -14.471  0.00  0.00    +0.003 C 
ATOM     27  C   UNL     1      34.948 -24.802 -12.610  0.00  0.00    +0.168 C 
ATOM     28  C   UNL     1      33.720 -24.400 -13.134  0.00  0.00    +0.040 C 
BRANCH  25  29
ATOM     29  O   UNL     1      37.287 -25.212 -12.919  0.00  0.00    -0.468 OA
ATOM     30  C   UNL     1      38.326 -25.471 -13.860  0.00  0.00    +0.253 C 
ENDBRANCH  25  29
BRANCH  27  31
ATOM     31  O   UNL     1      35.026 -25.178 -11.302  0.00  0.00    -0.503 OA
ATOM     32  H   UNL     1      34.539 -25.918 -10.997  0.00  0.00    +0.292 HD
ENDBRANCH  27  31
ENDBRANCH  21  23
ENDBRANCH  20  22
ENDBRANCH  18  20
ENDBRANCH   2  18
TORSDOF 11
ENDMDL
MODEL 7
REMARK VINA RESULT:     -10.8      1.572      2.310
REMARK  Name = 66645351
REMARK  11 active torsions:
REMARK  status: ('A' for Active; 'I' for Inactive)
REMARK    1  A    between atoms: C_2  and  C_4
REMARK    2  A    between atoms: C_2  and  C_18
REMARK    3  A    between atoms: C_3  and  C_5
REMARK    4  A    between atoms: C_6  and  O_11
REMARK    5  A    between atoms: C_8  and  O_13
REMARK    6  A    between atoms: O_13  and  S_14
REMARK    7  A    between atoms: C_18  and  C_20
REMARK    8  A    between atoms: C_20  and  C_22
REMARK    9  A    between atoms: C_21  and  C_23
REMARK   10  A    between atoms: C_25  and  O_29
REMARK   11  A    between atoms: C_27  and  O_31
REMARK                            x       y       z     vdW  Elec       q    Type
REMARK                         _______ _______ _______ _____ _____    ______ ____
ROOT
ATOM      1  O   UNL     1      33.696 -21.350 -19.887  0.00  0.00    -0.291 OA
ATOM      2  C   UNL     1      34.922 -21.409 -19.941  0.00  0.00    +0.181 C 
ENDROOT
BRANCH   2   4
ATOM      3  C   UNL     1      35.130 -22.413 -17.704  0.00  0.00    +0.003 C 
ATOM      4  C   UNL     1      35.731 -21.967 -18.816  0.00  0.00    +0.038 C 
BRANCH   3   5
ATOM      5  C   UNL     1      35.835 -22.989 -16.544  0.00  0.00    +0.003 C 
ATOM      6  C   UNL     1      35.810 -24.333 -14.537  0.00  0.00    +0.175 C 
ATOM      7  C   UNL     1      35.144 -23.788 -15.636  0.00  0.00    +0.040 C 
ATOM      8  C   UNL     1      37.169 -24.077 -14.349  0.00  0.00    +0.209 C 
ATOM      9  C   UNL     1      37.194 -22.733 -16.357  0.00  0.00    +0.003 C 
ATOM     10  C   UNL     1      37.860 -23.277 -15.259  0.00  0.00    +0.043 C 
BRANCH   6  11
ATOM     11  O   UNL     1      35.124 -25.113 -13.656  0.00  0.00    -0.468 OA
ATOM     12  C   UNL     1      34.270 -24.447 -12.728  0.00  0.00    +0.253 C 
ENDBRANCH   6  11
BRANCH   8  13
ATOM     13  O   UNL     1      37.831 -24.603 -13.281  0.00  0.00    -0.319 OA
BRANCH  13  14
ATOM     14  S   UNL     1      37.812 -23.786 -11.854  0.00  0.00    +0.282 S 
ATOM     15  O   UNL     1      39.383 -23.433 -11.586  0.00  0.00    -0.012 OA
ATOM     16  O   UNL     1      37.099 -22.535 -12.035  0.00  0.00    -0.105 OA
ATOM     17  O   UNL     1      37.394 -24.715 -10.820  0.00  0.00    -0.105 OA
ENDBRANCH  13  14
ENDBRANCH   8  13
ENDBRANCH   3   5
ENDBRANCH   2   4
BRANCH   2  18
ATOM     18  C   UNL     1      35.713 -20.883 -21.121  0.00  0.00    +0.138 C 
BRANCH  18  20
ATOM     19  O   UNL     1      37.077 -19.042 -20.373  0.00  0.00    -0.291 OA
ATOM     20  C   UNL     1      36.117 -19.424 -21.036  0.00  0.00    +0.181 C 
BRANCH  20  22
ATOM     21  C   UNL     1      35.688 -17.863 -22.889  0.00  0.00    +0.003 C 
ATOM     22  C   UNL     1      35.243 -18.466 -21.777  0.00  0.00    +0.038 C 
BRANCH  21  23
ATOM     23  C   UNL     1      34.911 -16.899 -23.687  0.00  0.00    +0.003 C 
ATOM     24  C   UNL     1      34.672 -15.617 -23.193  0.00  0.00    +0.040 C 
ATOM     25  C   UNL     1      33.935 -14.704 -23.948  0.00  0.00    +0.172 C 
ATOM     26  C   UNL     1      34.411 -17.269 -24.936  0.00  0.00    +0.003 C 
ATOM     27  C   UNL     1      33.437 -15.075 -25.197  0.00  0.00    +0.168 C 
ATOM     28  C   UNL     1      33.674 -16.357 -25.691  0.00  0.00    +0.040 C 
BRANCH  25  29
ATOM     29  O   UNL     1      33.709 -13.454 -23.456  0.00  0.00    -0.468 OA
ATOM     30  C   UNL     1      32.823 -13.347 -22.344  0.00  0.00    +0.253 C 
ENDBRANCH  25  29
BRANCH  27  31
ATOM     31  O   UNL     1      32.715 -14.192 -25.945  0.00  0.00    -0.503 OA
ATOM     32  H   UNL     1      32.330 -14.469 -26.753  0.00  0.00    +0.292 HD
ENDBRANCH  27  31
ENDBRANCH  21  23
ENDBRANCH  20  22
ENDBRANCH  18  20
ENDBRANCH   2  18
TORSDOF 11
ENDMDL
MODEL 8
REMARK VINA RESULT:     -10.8      3.468      6.552
REMARK  Name = 66645351
REMARK  11 active torsions:
REMARK  status: ('A' for Active; 'I' for Inactive)
REMARK    1  A    between atoms: C_2  and  C_4
REMARK    2  A    between atoms: C_2  and  C_18
REMARK    3  A    between atoms: C_3  and  C_5
REMARK    4  A    between atoms: C_6  and  O_11
REMARK    5  A    between atoms: C_8  and  O_13
REMARK    6  A    between atoms: O_13  and  S_14
REMARK    7  A    between atoms: C_18  and  C_20
REMARK    8  A    between atoms: C_20  and  C_22
REMARK    9  A    between atoms: C_21  and  C_23
REMARK   10  A    between atoms: C_25  and  O_29
REMARK   11  A    between atoms: C_27  and  O_31
REMARK                            x       y       z     vdW  Elec       q    Type
REMARK                         _______ _______ _______ _____ _____    ______ ____
ROOT
ATOM      1  O   UNL     1      30.685 -24.241 -12.676  0.00  0.00    -0.291 OA
ATOM      2  C   UNL     1      31.071 -24.789 -13.705  0.00  0.00    +0.181 C 
ENDROOT
BRANCH   2   4
ATOM      3  C   UNL     1      33.523 -24.581 -13.725  0.00  0.00    +0.003 C 
ATOM      4  C   UNL     1      32.443 -25.369 -13.817  0.00  0.00    +0.038 C 
BRANCH   3   5
ATOM      5  C   UNL     1      34.916 -25.055 -13.815  0.00  0.00    +0.003 C 
ATOM      6  C   UNL     1      37.114 -25.284 -12.838  0.00  0.00    +0.175 C 
ATOM      7  C   UNL     1      35.795 -24.837 -12.754  0.00  0.00    +0.040 C 
ATOM      8  C   UNL     1      37.553 -25.950 -13.983  0.00  0.00    +0.209 C 
ATOM      9  C   UNL     1      35.355 -25.720 -14.960  0.00  0.00    +0.003 C 
ATOM     10  C   UNL     1      36.673 -26.167 -15.044  0.00  0.00    +0.043 C 
BRANCH   6  11
ATOM     11  O   UNL     1      37.963 -25.067 -11.795  0.00  0.00    -0.468 OA
ATOM     12  C   UNL     1      38.502 -23.754 -11.661  0.00  0.00    +0.253 C 
ENDBRANCH   6  11
BRANCH   8  13
ATOM     13  O   UNL     1      38.838 -26.392 -14.077  0.00  0.00    -0.319 OA
BRANCH  13  14
ATOM     14  S   UNL     1      39.935 -25.477 -14.889  0.00  0.00    +0.282 S 
ATOM     15  O   UNL     1      41.023 -25.063 -13.744  0.00  0.00    -0.012 OA
ATOM     16  O   UNL     1      40.613 -26.308 -15.867  0.00  0.00    -0.105 OA
ATOM     17  O   UNL     1      39.267 -24.259 -15.312  0.00  0.00    -0.105 OA
ENDBRANCH  13  14
ENDBRANCH   8  13
ENDBRANCH   3   5
ENDBRANCH   2   4
BRANCH   2  18
ATOM     18  C   UNL     1      30.214 -24.881 -14.951  0.00  0.00    +0.138 C 
BRANCH  18  20
ATOM     19  O   UNL     1      28.853 -23.102 -15.838  0.00  0.00    -0.291 OA
ATOM     20  C   UNL     1      29.976 -23.571 -15.675  0.00  0.00    +0.181 C 
BRANCH  20  22
ATOM     21  C   UNL     1      32.043 -23.577 -17.009  0.00  0.00    +0.003 C 
ATOM     22  C   UNL     1      31.193 -22.902 -16.221  0.00  0.00    +0.038 C 
BRANCH  21  23
ATOM     23  C   UNL     1      33.273 -23.012 -17.591  0.00  0.00    +0.003 C 
ATOM     24  C   UNL     1      33.238 -22.416 -18.851  0.00  0.00    +0.040 C 
ATOM     25  C   UNL     1      34.402 -21.882 -19.404  0.00  0.00    +0.172 C 
ATOM     26  C   UNL     1      34.474 -23.075 -16.883  0.00  0.00    +0.003 C 
ATOM     27  C   UNL     1      35.602 -21.945 -18.695  0.00  0.00    +0.168 C 
ATOM     28  C   UNL     1      35.638 -22.542 -17.435  0.00  0.00    +0.040 C 
BRANCH  25  29
ATOM     29  O   UNL     1      34.356 -21.302 -20.635  0.00  0.00    -0.468 OA
ATOM     30  C   UNL     1      33.373 -20.288 -20.836  0.00  0.00    +0.253 C 
ENDBRANCH  25  29
BRANCH  27  31
ATOM     31  O   UNL     1      36.747 -21.428 -19.223  0.00  0.00    -0.503 OA
ATOM     32  H   UNL     1      37.062 -21.735 -20.051  0.00  0.00    +0.292 HD
ENDBRANCH  27  31
ENDBRANCH  21  23
ENDBRANCH  20  22
ENDBRANCH  18  20
ENDBRANCH   2  18
TORSDOF 11
ENDMDL
MODEL 9
REMARK VINA RESULT:     -10.5      3.379      6.311
REMARK  Name = 66645351
REMARK  11 active torsions:
REMARK  status: ('A' for Active; 'I' for Inactive)
REMARK    1  A    between atoms: C_2  and  C_4
REMARK    2  A    between atoms: C_2  and  C_18
REMARK    3  A    between atoms: C_3  and  C_5
REMARK    4  A    between atoms: C_6  and  O_11
REMARK    5  A    between atoms: C_8  and  O_13
REMARK    6  A    between atoms: O_13  and  S_14
REMARK    7  A    between atoms: C_18  and  C_20
REMARK    8  A    between atoms: C_20  and  C_22
REMARK    9  A    between atoms: C_21  and  C_23
REMARK   10  A    between atoms: C_25  and  O_29
REMARK   11  A    between atoms: C_27  and  O_31
REMARK                            x       y       z     vdW  Elec       q    Type
REMARK                         _______ _______ _______ _____ _____    ______ ____
ROOT
ATOM      1  O   UNL     1      33.325 -18.967 -24.832  0.00  0.00    -0.291 OA
ATOM      2  C   UNL     1      34.205 -18.553 -24.082  0.00  0.00    +0.181 C 
ENDROOT
BRANCH   2   4
ATOM      3  C   UNL     1      34.409 -19.546 -21.841  0.00  0.00    +0.003 C 
ATOM      4  C   UNL     1      34.876 -19.448 -23.093  0.00  0.00    +0.038 C 
BRANCH   3   5
ATOM      5  C   UNL     1      34.993 -20.405 -20.794  0.00  0.00    +0.003 C 
ATOM      6  C   UNL     1      34.725 -22.070 -19.064  0.00  0.00    +0.175 C 
ATOM      7  C   UNL     1      34.174 -21.258 -20.056  0.00  0.00    +0.040 C 
ATOM      8  C   UNL     1      36.096 -22.029 -18.812  0.00  0.00    +0.209 C 
ATOM      9  C   UNL     1      36.364 -20.363 -20.542  0.00  0.00    +0.003 C 
ATOM     10  C   UNL     1      36.916 -21.175 -19.551  0.00  0.00    +0.043 C 
BRANCH   6  11
ATOM     11  O   UNL     1      33.914 -22.900 -18.350  0.00  0.00    -0.468 OA
ATOM     12  C   UNL     1      32.589 -22.445 -18.088  0.00  0.00    +0.253 C 
ENDBRANCH   6  11
BRANCH   8  13
ATOM     13  O   UNL     1      36.647 -22.817 -17.846  0.00  0.00    -0.319 OA
BRANCH  13  14
ATOM     14  S   UNL     1      36.977 -22.159 -16.377  0.00  0.00    +0.282 S 
ATOM     15  O   UNL     1      38.154 -23.118 -15.775  0.00  0.00    -0.012 OA
ATOM     16  O   UNL     1      37.537 -20.833 -16.567  0.00  0.00    -0.105 OA
ATOM     17  O   UNL     1      35.804 -22.337 -15.541  0.00  0.00    -0.105 OA
ENDBRANCH  13  14
ENDBRANCH   8  13
ENDBRANCH   3   5
ENDBRANCH   2   4
BRANCH   2  18
ATOM     18  C   UNL     1      34.649 -17.105 -24.065  0.00  0.00    +0.138 C 
BRANCH  18  20
ATOM     19  O   UNL     1      34.140 -16.541 -26.353  0.00  0.00    -0.291 OA
ATOM     20  C   UNL     1      34.073 -16.235 -25.166  0.00  0.00    +0.181 C 
BRANCH  20  22
ATOM     21  C   UNL     1      33.697 -14.473 -23.490  0.00  0.00    +0.003 C 
ATOM     22  C   UNL     1      33.455 -14.951 -24.720  0.00  0.00    +0.038 C 
BRANCH  21  23
ATOM     23  C   UNL     1      33.131 -13.223 -22.952  0.00  0.00    +0.003 C 
ATOM     24  C   UNL     1      33.444 -12.002 -23.549  0.00  0.00    +0.040 C 
ATOM     25  C   UNL     1      32.910 -10.819 -23.040  0.00  0.00    +0.172 C 
ATOM     26  C   UNL     1      32.285 -13.261 -21.844  0.00  0.00    +0.003 C 
ATOM     27  C   UNL     1      32.063 -10.857 -21.932  0.00  0.00    +0.168 C 
ATOM     28  C   UNL     1      31.751 -12.077 -21.333  0.00  0.00    +0.040 C 
BRANCH  25  29
ATOM     29  O   UNL     1      33.222  -9.632 -23.632  0.00  0.00    -0.468 OA
ATOM     30  C   UNL     1      34.579  -9.444 -24.028  0.00  0.00    +0.253 C 
ENDBRANCH  25  29
BRANCH  27  31
ATOM     31  O   UNL     1      31.535  -9.708 -21.424  0.00  0.00    -0.503 OA
ATOM     32  H   UNL     1      31.977  -8.892 -21.553  0.00  0.00    +0.292 HD
ENDBRANCH  27  31
ENDBRANCH  21  23
ENDBRANCH  20  22
ENDBRANCH  18  20
ENDBRANCH   2  18
TORSDOF 11
ENDMDL
