MODEL 1
REMARK VINA RESULT:     -11.8      0.000      0.000
REMARK  Name = 24871491
REMARK  6 active torsions:
REMARK  status: ('A' for Active; 'I' for Inactive)
REMARK    1  A    between atoms: N_1  and  C_11
REMARK    2  A    between atoms: N_2  and  C_18
REMARK    3  A    between atoms: C_6  and  C_31
REMARK    4  A    between atoms: C_19  and  C_24
REMARK    5  A    between atoms: C_24  and  C_26
REMARK    6  A    between atoms: C_26  and  O_27
REMARK                            x       y       z     vdW  Elec       q    Type
REMARK                         _______ _______ _______ _____ _____    ______ ____
ROOT
ATOM      1  N   UNL     1      32.187 -23.310 -17.543  0.00  0.00    -0.287 N 
ATOM      2  N   UNL     1      34.104 -24.544 -13.418  0.00  0.00    -0.247 N 
ATOM      3  N   UNL     1      33.163 -23.931 -15.475  0.00  0.00    -0.322 NA
ATOM      4  N   UNL     1      31.774 -24.342 -13.550  0.00  0.00    -0.169 NA
ATOM      5  C   UNL     1      32.043 -23.663 -16.179  0.00  0.00    +0.202 C 
ATOM      6  C   UNL     1      30.772 -23.713 -15.645  0.00  0.00    +0.118 C 
ATOM      7  C   UNL     1      32.957 -24.259 -14.185  0.00  0.00    +0.150 C 
ATOM      8  C   UNL     1      30.696 -24.062 -14.313  0.00  0.00    +0.120 C 
ATOM      9  H   UNL     1      31.421 -23.572 -18.104  0.00  0.00    +0.155 HD
ATOM     10  H   UNL     1      33.906 -24.778 -12.483  0.00  0.00    +0.165 HD
ENDROOT
BRANCH   1  11
ATOM     11  C   UNL     1      33.209 -22.659 -18.252  0.00  0.00    +0.050 C 
ATOM     12  C   UNL     1      32.890 -21.784 -19.291  0.00  0.00    +0.010 C 
ATOM     13  C   UNL     1      33.907 -21.137 -19.994  0.00  0.00    -0.021 C 
ATOM     14  C   UNL     1      34.544 -22.886 -17.917  0.00  0.00    +0.015 C 
ATOM     15  C   UNL     1      35.241 -21.364 -19.659  0.00  0.00    -0.004 C 
ATOM     16  C   UNL     1      35.560 -22.240 -18.621  0.00  0.00    +0.001 C 
ATOM     17  C   UNL     1      33.566 -20.203 -21.105  0.00  0.00    +0.031 C 
ENDBRANCH   1  11
BRANCH   2  18
ATOM     18  C   UNL     1      35.480 -24.562 -13.727  0.00  0.00    +0.058 C 
ATOM     19  C   UNL     1      38.201 -24.595 -14.338  0.00  0.00    -0.011 C 
ATOM     20  C   UNL     1      36.353 -23.698 -13.067  0.00  0.00    +0.015 C 
ATOM     21  C   UNL     1      35.967 -25.442 -14.693  0.00  0.00    +0.015 C 
ATOM     22  C   UNL     1      37.715 -23.714 -13.372  0.00  0.00    -0.002 C 
ATOM     23  C   UNL     1      37.327 -25.459 -14.999  0.00  0.00    -0.002 C 
BRANCH  19  24
ATOM     24  C   UNL     1      39.657 -24.613 -14.665  0.00  0.00    +0.136 C 
BRANCH  24  26
ATOM     25  O   UNL     1      40.348 -26.826 -13.921  0.00  0.00    -0.250 OA
ATOM     26  C   UNL     1      40.223 -26.010 -14.824  0.00  0.00    +0.318 C 
BRANCH  26  27
ATOM     27  O   UNL     1      40.590 -26.264 -16.108  0.00  0.00    -0.480 OA
ATOM     28  H   UNL     1      39.936 -26.345 -16.774  0.00  0.00    +0.295 HD
ENDBRANCH  26  27
ENDBRANCH  24  26
ENDBRANCH  19  24
ENDBRANCH   2  18
BRANCH   6  31
ATOM     29  O   UNL     1      29.493 -22.442 -17.161  0.00  0.00    -0.270 OA
ATOM     30  N   UNL     1      28.491 -24.301 -16.268  0.00  0.00    -0.325 N 
ATOM     31  C   UNL     1      29.564 -23.425 -16.403  0.00  0.00    +0.248 C 
ATOM     32  H   UNL     1      27.657 -24.138 -16.765  0.00  0.00    +0.145 HD
ATOM     33  H   UNL     1      28.566 -25.082 -15.674  0.00  0.00    +0.145 HD
ENDBRANCH   6  31
TORSDOF 6
ENDMDL
MODEL 2
REMARK VINA RESULT:     -11.4      2.160      7.341
REMARK  Name = 24871491
REMARK  6 active torsions:
REMARK  status: ('A' for Active; 'I' for Inactive)
REMARK    1  A    between atoms: N_1  and  C_11
REMARK    2  A    between atoms: N_2  and  C_18
REMARK    3  A    between atoms: C_6  and  C_31
REMARK    4  A    between atoms: C_19  and  C_24
REMARK    5  A    between atoms: C_24  and  C_26
REMARK    6  A    between atoms: C_26  and  O_27
REMARK                            x       y       z     vdW  Elec       q    Type
REMARK                         _______ _______ _______ _____ _____    ______ ____
ROOT
ATOM      1  N   UNL     1      35.776 -22.732 -15.544  0.00  0.00    -0.287 N 
ATOM      2  N   UNL     1      32.004 -24.709 -13.523  0.00  0.00    -0.247 N 
ATOM      3  N   UNL     1      33.871 -23.721 -14.538  0.00  0.00    -0.322 NA
ATOM      4  N   UNL     1      34.077 -24.903 -12.448  0.00  0.00    -0.169 NA
ATOM      5  C   UNL     1      35.197 -23.473 -14.486  0.00  0.00    +0.202 C 
ATOM      6  C   UNL     1      36.017 -23.902 -13.462  0.00  0.00    +0.118 C 
ATOM      7  C   UNL     1      33.385 -24.431 -13.501  0.00  0.00    +0.150 C 
ATOM      8  C   UNL     1      35.396 -24.619 -12.459  0.00  0.00    +0.120 C 
ATOM      9  H   UNL     1      36.556 -22.197 -15.274  0.00  0.00    +0.155 HD
ATOM     10  H   UNL     1      31.693 -25.229 -12.748  0.00  0.00    +0.165 HD
ENDROOT
BRANCH   1  11
ATOM     11  C   UNL     1      35.451 -22.612 -16.906  0.00  0.00    +0.050 C 
ATOM     12  C   UNL     1      36.347 -22.002 -17.785  0.00  0.00    +0.010 C 
ATOM     13  C   UNL     1      36.024 -21.883 -19.137  0.00  0.00    -0.021 C 
ATOM     14  C   UNL     1      34.235 -23.104 -17.379  0.00  0.00    +0.015 C 
ATOM     15  C   UNL     1      34.808 -22.375 -19.610  0.00  0.00    -0.004 C 
ATOM     16  C   UNL     1      33.912 -22.984 -18.731  0.00  0.00    +0.001 C 
ATOM     17  C   UNL     1      36.980 -21.230 -20.077  0.00  0.00    +0.031 C 
ENDBRANCH   1  11
BRANCH   2  18
ATOM     18  C   UNL     1      30.979 -24.389 -14.437  0.00  0.00    +0.058 C 
ATOM     19  C   UNL     1      28.951 -23.754 -16.244  0.00  0.00    -0.011 C 
ATOM     20  C   UNL     1      30.880 -23.096 -14.948  0.00  0.00    +0.015 C 
ATOM     21  C   UNL     1      30.063 -25.365 -14.828  0.00  0.00    +0.015 C 
ATOM     22  C   UNL     1      29.866 -22.778 -15.853  0.00  0.00    -0.002 C 
ATOM     23  C   UNL     1      29.049 -25.048 -15.732  0.00  0.00    -0.002 C 
BRANCH  19  24
ATOM     24  C   UNL     1      27.867 -23.415 -17.211  0.00  0.00    +0.136 C 
BRANCH  24  26
ATOM     25  O   UNL     1      26.258 -22.537 -15.608  0.00  0.00    -0.250 OA
ATOM     26  C   UNL     1      26.861 -22.421 -16.666  0.00  0.00    +0.318 C 
BRANCH  26  27
ATOM     27  O   UNL     1      26.694 -21.360 -17.500  0.00  0.00    -0.480 OA
ATOM     28  H   UNL     1      26.922 -20.498 -17.213  0.00  0.00    +0.295 HD
ENDBRANCH  26  27
ENDBRANCH  24  26
ENDBRANCH  19  24
ENDBRANCH   2  18
BRANCH   6  31
ATOM     29  O   UNL     1      38.185 -23.847 -14.380  0.00  0.00    -0.270 OA
ATOM     30  N   UNL     1      37.958 -23.114 -12.219  0.00  0.00    -0.325 N 
ATOM     31  C   UNL     1      37.445 -23.635 -13.403  0.00  0.00    +0.248 C 
ATOM     32  H   UNL     1      38.921 -22.922 -12.142  0.00  0.00    +0.145 HD
ATOM     33  H   UNL     1      37.359 -22.939 -11.458  0.00  0.00    +0.145 HD
ENDBRANCH   6  31
TORSDOF 6
ENDMDL
MODEL 3
REMARK VINA RESULT:     -11.1      3.094      6.590
REMARK  Name = 24871491
REMARK  6 active torsions:
REMARK  status: ('A' for Active; 'I' for Inactive)
REMARK    1  A    between atoms: N_1  and  C_11
REMARK    2  A    between atoms: N_2  and  C_18
REMARK    3  A    between atoms: C_6  and  C_31
REMARK    4  A    between atoms: C_19  and  C_24
REMARK    5  A    between atoms: C_24  and  C_26
REMARK    6  A    between atoms: C_26  and  O_27
REMARK                            x       y       z     vdW  Elec       q    Type
REMARK                         _______ _______ _______ _____ _____    ______ ____
ROOT
ATOM      1  N   UNL     1      34.178 -23.824 -14.483  0.00  0.00    -0.287 N 
ATOM      2  N   UNL     1      32.165 -22.411 -18.505  0.00  0.00    -0.247 N 
ATOM      3  N   UNL     1      33.177 -23.108 -16.509  0.00  0.00    -0.322 NA
ATOM      4  N   UNL     1      30.834 -23.500 -16.913  0.00  0.00    -0.169 NA
ATOM      5  C   UNL     1      33.034 -23.714 -15.312  0.00  0.00    +0.202 C 
ATOM      6  C   UNL     1      31.840 -24.230 -14.852  0.00  0.00    +0.118 C 
ATOM      7  C   UNL     1      32.053 -23.036 -17.247  0.00  0.00    +0.150 C 
ATOM      8  C   UNL     1      30.762 -24.093 -15.703  0.00  0.00    +0.120 C 
ATOM      9  H   UNL     1      33.972 -23.823 -13.521  0.00  0.00    +0.155 HD
ATOM     10  H   UNL     1      31.320 -22.383 -19.009  0.00  0.00    +0.165 HD
ENDROOT
BRANCH   1  11
ATOM     11  C   UNL     1      35.548 -23.934 -14.769  0.00  0.00    +0.050 C 
ATOM     12  C   UNL     1      36.235 -25.107 -14.453  0.00  0.00    +0.010 C 
ATOM     13  C   UNL     1      37.596 -25.215 -14.737  0.00  0.00    -0.021 C 
ATOM     14  C   UNL     1      36.223 -22.871 -15.369  0.00  0.00    +0.015 C 
ATOM     15  C   UNL     1      38.271 -24.153 -15.338  0.00  0.00    -0.004 C 
ATOM     16  C   UNL     1      37.585 -22.980 -15.652  0.00  0.00    +0.001 C 
ATOM     17  C   UNL     1      38.330 -26.468 -14.399  0.00  0.00    +0.031 C 
ENDBRANCH   1  11
BRANCH   2  18
ATOM     18  C   UNL     1      33.249 -21.818 -19.184  0.00  0.00    +0.058 C 
ATOM     19  C   UNL     1      35.393 -20.645 -20.527  0.00  0.00    -0.011 C 
ATOM     20  C   UNL     1      33.014 -20.876 -20.185  0.00  0.00    +0.015 C 
ATOM     21  C   UNL     1      34.557 -22.174 -18.855  0.00  0.00    +0.015 C 
ATOM     22  C   UNL     1      34.086 -20.289 -20.857  0.00  0.00    -0.002 C 
ATOM     23  C   UNL     1      35.629 -21.587 -19.526  0.00  0.00    -0.002 C 
BRANCH  19  24
ATOM     24  C   UNL     1      36.540 -20.017 -21.246  0.00  0.00    +0.136 C 
BRANCH  24  26
ATOM     25  O   UNL     1      36.009 -17.728 -20.606  0.00  0.00    -0.250 OA
ATOM     26  C   UNL     1      36.377 -18.525 -21.459  0.00  0.00    +0.318 C 
BRANCH  26  27
ATOM     27  O   UNL     1      36.689 -18.158 -22.730  0.00  0.00    -0.480 OA
ATOM     28  H   UNL     1      36.596 -18.773 -23.431  0.00  0.00    +0.295 HD
ENDBRANCH  26  27
ENDBRANCH  24  26
ENDBRANCH  19  24
ENDBRANCH   2  18
BRANCH   6  31
ATOM     29  O   UNL     1      32.665 -25.141 -12.842  0.00  0.00    -0.270 OA
ATOM     30  N   UNL     1      30.393 -25.193 -13.145  0.00  0.00    -0.325 N 
ATOM     31  C   UNL     1      31.684 -24.882 -13.561  0.00  0.00    +0.248 C 
ATOM     32  H   UNL     1      30.249 -25.635 -12.277  0.00  0.00    +0.145 HD
ATOM     33  H   UNL     1      29.624 -24.971 -13.718  0.00  0.00    +0.145 HD
ENDBRANCH   6  31
TORSDOF 6
ENDMDL
MODEL 4
REMARK VINA RESULT:     -10.9      2.080      7.029
REMARK  Name = 24871491
REMARK  6 active torsions:
REMARK  status: ('A' for Active; 'I' for Inactive)
REMARK    1  A    between atoms: N_1  and  C_11
REMARK    2  A    between atoms: N_2  and  C_18
REMARK    3  A    between atoms: C_6  and  C_31
REMARK    4  A    between atoms: C_19  and  C_24
REMARK    5  A    between atoms: C_24  and  C_26
REMARK    6  A    between atoms: C_26  and  O_27
REMARK                            x       y       z     vdW  Elec       q    Type
REMARK                         _______ _______ _______ _____ _____    ______ ____
ROOT
ATOM      1  N   UNL     1      36.098 -22.834 -16.626  0.00  0.00    -0.287 N 
ATOM      2  N   UNL     1      33.093 -25.097 -13.785  0.00  0.00    -0.247 N 
ATOM      3  N   UNL     1      34.577 -23.965 -15.203  0.00  0.00    -0.322 NA
ATOM      4  N   UNL     1      35.386 -25.521 -13.550  0.00  0.00    -0.169 NA
ATOM      5  C   UNL     1      35.857 -23.752 -15.575  0.00  0.00    +0.202 C 
ATOM      6  C   UNL     1      36.939 -24.378 -14.990  0.00  0.00    +0.118 C 
ATOM      7  C   UNL     1      34.417 -24.849 -14.199  0.00  0.00    +0.150 C 
ATOM      8  C   UNL     1      36.641 -25.260 -13.972  0.00  0.00    +0.120 C 
ATOM      9  H   UNL     1      36.964 -22.371 -16.558  0.00  0.00    +0.155 HD
ATOM     10  H   UNL     1      33.025 -25.749 -13.051  0.00  0.00    +0.165 HD
ENDROOT
BRANCH   1  11
ATOM     11  C   UNL     1      35.341 -22.456 -17.747  0.00  0.00    +0.050 C 
ATOM     12  C   UNL     1      35.930 -21.707 -18.766  0.00  0.00    +0.010 C 
ATOM     13  C   UNL     1      35.178 -21.332 -19.879  0.00  0.00    -0.021 C 
ATOM     14  C   UNL     1      34.001 -22.831 -17.842  0.00  0.00    +0.015 C 
ATOM     15  C   UNL     1      33.838 -21.706 -19.974  0.00  0.00    -0.004 C 
ATOM     16  C   UNL     1      33.249 -22.455 -18.955  0.00  0.00    +0.001 C 
ATOM     17  C   UNL     1      35.807 -20.530 -20.968  0.00  0.00    +0.031 C 
ENDBRANCH   1  11
BRANCH   2  18
ATOM     18  C   UNL     1      31.848 -24.595 -14.215  0.00  0.00    +0.058 C 
ATOM     19  C   UNL     1      29.384 -23.603 -15.067  0.00  0.00    -0.011 C 
ATOM     20  C   UNL     1      30.758 -25.455 -14.346  0.00  0.00    +0.015 C 
ATOM     21  C   UNL     1      31.706 -23.239 -14.510  0.00  0.00    +0.015 C 
ATOM     22  C   UNL     1      29.525 -24.959 -14.772  0.00  0.00    -0.002 C 
ATOM     23  C   UNL     1      30.475 -22.743 -14.936  0.00  0.00    -0.002 C 
BRANCH  19  24
ATOM     24  C   UNL     1      28.066 -23.073 -15.522  0.00  0.00    +0.136 C 
BRANCH  24  26
ATOM     25  O   UNL     1      28.370 -23.777 -17.833  0.00  0.00    -0.250 OA
ATOM     26  C   UNL     1      27.949 -22.957 -17.029  0.00  0.00    +0.318 C 
BRANCH  26  27
ATOM     27  O   UNL     1      27.312 -21.815 -17.401  0.00  0.00    -0.480 OA
ATOM     28  H   UNL     1      26.376 -21.778 -17.396  0.00  0.00    +0.295 HD
ENDBRANCH  26  27
ENDBRANCH  24  26
ENDBRANCH  19  24
ENDBRANCH   2  18
BRANCH   6  31
ATOM     29  O   UNL     1      38.696 -23.043 -15.815  0.00  0.00    -0.270 OA
ATOM     30  N   UNL     1      39.214 -25.206 -15.259  0.00  0.00    -0.325 N 
ATOM     31  C   UNL     1      38.319 -24.149 -15.389  0.00  0.00    +0.248 C 
ATOM     32  H   UNL     1      40.156 -25.088 -15.520  0.00  0.00    +0.145 HD
ATOM     33  H   UNL     1      38.905 -26.072 -14.908  0.00  0.00    +0.145 HD
ENDBRANCH   6  31
TORSDOF 6
ENDMDL
MODEL 5
REMARK VINA RESULT:     -10.2      3.039      7.167
REMARK  Name = 24871491
REMARK  6 active torsions:
REMARK  status: ('A' for Active; 'I' for Inactive)
REMARK    1  A    between atoms: N_1  and  C_11
REMARK    2  A    between atoms: N_2  and  C_18
REMARK    3  A    between atoms: C_6  and  C_31
REMARK    4  A    between atoms: C_19  and  C_24
REMARK    5  A    between atoms: C_24  and  C_26
REMARK    6  A    between atoms: C_26  and  O_27
REMARK                            x       y       z     vdW  Elec       q    Type
REMARK                         _______ _______ _______ _____ _____    ______ ____
ROOT
ATOM      1  N   UNL     1      34.463 -24.977 -14.238  0.00  0.00    -0.287 N 
ATOM      2  N   UNL     1      37.418 -22.634 -17.065  0.00  0.00    -0.247 N 
ATOM      3  N   UNL     1      35.939 -23.796 -15.667  0.00  0.00    -0.322 NA
ATOM      4  N   UNL     1      38.300 -23.734 -15.194  0.00  0.00    -0.169 NA
ATOM      5  C   UNL     1      35.775 -24.554 -14.563  0.00  0.00    +0.202 C 
ATOM      6  C   UNL     1      36.811 -24.937 -13.735  0.00  0.00    +0.118 C 
ATOM      7  C   UNL     1      37.210 -23.427 -15.919  0.00  0.00    +0.150 C 
ATOM      8  C   UNL     1      38.065 -24.494 -14.103  0.00  0.00    +0.120 C 
ATOM      9  H   UNL     1      34.430 -25.840 -13.765  0.00  0.00    +0.155 HD
ATOM     10  H   UNL     1      38.360 -22.388 -17.209  0.00  0.00    +0.165 HD
ENDROOT
BRANCH   1  11
ATOM     11  C   UNL     1      33.200 -24.405 -14.460  0.00  0.00    +0.050 C 
ATOM     12  C   UNL     1      32.874 -23.900 -15.719  0.00  0.00    +0.010 C 
ATOM     13  C   UNL     1      31.619 -23.332 -15.938  0.00  0.00    -0.021 C 
ATOM     14  C   UNL     1      32.270 -24.343 -13.422  0.00  0.00    +0.015 C 
ATOM     15  C   UNL     1      30.690 -23.270 -14.901  0.00  0.00    -0.004 C 
ATOM     16  C   UNL     1      31.015 -23.775 -13.642  0.00  0.00    +0.001 C 
ATOM     17  C   UNL     1      31.271 -22.790 -17.284  0.00  0.00    +0.031 C 
ENDBRANCH   1  11
BRANCH   2  18
ATOM     18  C   UNL     1      36.544 -22.123 -18.046  0.00  0.00    +0.058 C 
ATOM     19  C   UNL     1      34.813 -21.114 -19.987  0.00  0.00    -0.011 C 
ATOM     20  C   UNL     1      35.181 -22.407 -17.980  0.00  0.00    +0.015 C 
ATOM     21  C   UNL     1      37.043 -21.334 -19.083  0.00  0.00    +0.015 C 
ATOM     22  C   UNL     1      34.315 -21.902 -18.951  0.00  0.00    -0.002 C 
ATOM     23  C   UNL     1      36.178 -20.830 -20.053  0.00  0.00    -0.002 C 
BRANCH  19  24
ATOM     24  C   UNL     1      33.888 -20.574 -21.024  0.00  0.00    +0.136 C 
BRANCH  24  26
ATOM     25  O   UNL     1      34.789 -19.740 -23.128  0.00  0.00    -0.250 OA
ATOM     26  C   UNL     1      34.537 -19.558 -21.944  0.00  0.00    +0.318 C 
BRANCH  26  27
ATOM     27  O   UNL     1      34.818 -18.396 -21.298  0.00  0.00    -0.480 OA
ATOM     28  H   UNL     1      35.525 -18.361 -20.684  0.00  0.00    +0.295 HD
ENDBRANCH  26  27
ENDBRANCH  24  26
ENDBRANCH  19  24
ENDBRANCH   2  18
BRANCH   6  31
ATOM     29  O   UNL     1      35.884 -25.400 -11.620  0.00  0.00    -0.270 OA
ATOM     30  N   UNL     1      37.325 -26.961 -12.482  0.00  0.00    -0.325 N 
ATOM     31  C   UNL     1      36.636 -25.754 -12.545  0.00  0.00    +0.248 C 
ATOM     32  H   UNL     1      37.232 -27.541 -11.692  0.00  0.00    +0.145 HD
ATOM     33  H   UNL     1      37.907 -27.236 -13.228  0.00  0.00    +0.145 HD
ENDBRANCH   6  31
TORSDOF 6
ENDMDL
MODEL 6
REMARK VINA RESULT:      -9.2      2.739      5.149
REMARK  Name = 24871491
REMARK  6 active torsions:
REMARK  status: ('A' for Active; 'I' for Inactive)
REMARK    1  A    between atoms: N_1  and  C_11
REMARK    2  A    between atoms: N_2  and  C_18
REMARK    3  A    between atoms: C_6  and  C_31
REMARK    4  A    between atoms: C_19  and  C_24
REMARK    5  A    between atoms: C_24  and  C_26
REMARK    6  A    between atoms: C_26  and  O_27
REMARK                            x       y       z     vdW  Elec       q    Type
REMARK                         _______ _______ _______ _____ _____    ______ ____
ROOT
ATOM      1  N   UNL     1      32.929 -22.402 -17.514  0.00  0.00    -0.287 N 
ATOM      2  N   UNL     1      37.538 -22.938 -16.681  0.00  0.00    -0.247 N 
ATOM      3  N   UNL     1      35.244 -22.675 -17.083  0.00  0.00    -0.322 NA
ATOM      4  N   UNL     1      36.869 -22.124 -18.774  0.00  0.00    -0.169 NA
ATOM      5  C   UNL     1      34.274 -22.306 -17.946  0.00  0.00    +0.202 C 
ATOM      6  C   UNL     1      34.521 -21.842 -19.222  0.00  0.00    +0.118 C 
ATOM      7  C   UNL     1      36.500 -22.560 -17.555  0.00  0.00    +0.150 C 
ATOM      8  C   UNL     1      35.850 -21.770 -19.586  0.00  0.00    +0.120 C 
ATOM      9  H   UNL     1      32.331 -21.739 -17.927  0.00  0.00    +0.155 HD
ATOM     10  H   UNL     1      38.437 -22.838 -17.069  0.00  0.00    +0.165 HD
ENDROOT
BRANCH   1  11
ATOM     11  C   UNL     1      32.283 -23.261 -16.610  0.00  0.00    +0.050 C 
ATOM     12  C   UNL     1      30.912 -23.495 -16.728  0.00  0.00    +0.010 C 
ATOM     13  C   UNL     1      30.271 -24.348 -15.830  0.00  0.00    -0.021 C 
ATOM     14  C   UNL     1      33.011 -23.881 -15.595  0.00  0.00    +0.015 C 
ATOM     15  C   UNL     1      30.999 -24.968 -14.815  0.00  0.00    -0.004 C 
ATOM     16  C   UNL     1      32.369 -24.734 -14.696  0.00  0.00    +0.001 C 
ATOM     17  C   UNL     1      28.806 -24.597 -15.955  0.00  0.00    +0.031 C 
ENDBRANCH   1  11
BRANCH   2  18
ATOM     18  C   UNL     1      37.542 -23.431 -15.360  0.00  0.00    +0.058 C 
ATOM     19  C   UNL     1      37.551 -24.407 -12.747  0.00  0.00    -0.011 C 
ATOM     20  C   UNL     1      38.254 -24.589 -15.051  0.00  0.00    +0.015 C 
ATOM     21  C   UNL     1      36.834 -22.760 -14.363  0.00  0.00    +0.015 C 
ATOM     22  C   UNL     1      38.258 -25.078 -13.744  0.00  0.00    -0.002 C 
ATOM     23  C   UNL     1      36.838 -23.248 -13.056  0.00  0.00    -0.002 C 
BRANCH  19  24
ATOM     24  C   UNL     1      37.556 -24.929 -11.350  0.00  0.00    +0.136 C 
BRANCH  24  26
ATOM     25  O   UNL     1      36.003 -24.356  -9.563  0.00  0.00    -0.250 OA
ATOM     26  C   UNL     1      36.205 -24.843 -10.668  0.00  0.00    +0.318 C 
BRANCH  26  27
ATOM     27  O   UNL     1      35.216 -25.379 -11.432  0.00  0.00    -0.480 OA
ATOM     28  H   UNL     1      35.433 -25.892 -12.185  0.00  0.00    +0.295 HD
ENDBRANCH  26  27
ENDBRANCH  24  26
ENDBRANCH  19  24
ENDBRANCH   2  18
BRANCH   6  31
ATOM     29  O   UNL     1      32.413 -22.079 -20.247  0.00  0.00    -0.270 OA
ATOM     30  N   UNL     1      33.702 -20.309 -20.928  0.00  0.00    -0.325 N 
ATOM     31  C   UNL     1      33.478 -21.443 -20.154  0.00  0.00    +0.248 C 
ATOM     32  H   UNL     1      33.018 -20.008 -21.570  0.00  0.00    +0.145 HD
ATOM     33  H   UNL     1      34.543 -19.807 -20.835  0.00  0.00    +0.145 HD
ENDBRANCH   6  31
TORSDOF 6
ENDMDL
