MODEL 1
REMARK VINA RESULT:     -12.0      0.000      0.000
REMARK  Name = 448384
REMARK  11 active torsions:
REMARK  status: ('A' for Active; 'I' for Inactive)
REMARK    1  A    between atoms: C_1  and  C_3
REMARK    2  A    between atoms: C_1  and  C_6
REMARK    3  A    between atoms: C_1  and  C_19
REMARK    4  A    between atoms: C_3  and  O_4
REMARK    5  A    between atoms: C_6  and  C_7
REMARK    6  A    between atoms: C_7  and  N_10
REMARK    7  A    between atoms: C_19  and  C_21
REMARK    8  A    between atoms: C_21  and  C_22
REMARK    9  A    between atoms: C_25  and  C_28
REMARK   10  A    between atoms: C_33  and  O_34
REMARK   11  A    between atoms: O_34  and  C_35
REMARK                            x       y       z     vdW  Elec       q    Type
REMARK                         _______ _______ _______ _____ _____    ______ ____
ROOT
ATOM      1  C   UNL     1      32.350 -23.055 -16.296  0.00  0.00    +0.108 C 
ENDROOT
BRANCH   1   3
ATOM      2  O   UNL     1      30.437 -24.536 -16.034  0.00  0.00    -0.250 OA
ATOM      3  C   UNL     1      30.907 -23.501 -16.489  0.00  0.00    +0.314 C 
BRANCH   3   4
ATOM      4  O   UNL     1      30.178 -22.623 -17.222  0.00  0.00    -0.480 OA
ATOM      5  H   UNL     1      30.268 -21.702 -17.075  0.00  0.00    +0.295 HD
ENDBRANCH   3   4
ENDBRANCH   1   3
BRANCH   1   6
ATOM      6  C   UNL     1      32.820 -23.384 -14.864  0.00  0.00    +0.034 C 
BRANCH   6   7
ATOM      7  C   UNL     1      33.279 -24.831 -14.681  0.00  0.00    +0.102 C 
BRANCH   7  10
ATOM      8  O   UNL     1      35.616 -26.202 -15.923  0.00  0.00    -0.269 OA
ATOM      9  O   UNL     1      34.463 -23.756 -12.161  0.00  0.00    -0.269 OA
ATOM     10  N   UNL     1      34.625 -24.941 -14.194  0.00  0.00    -0.223 N 
ATOM     11  C   UNL     1      35.643 -25.607 -14.862  0.00  0.00    +0.255 C 
ATOM     12  C   UNL     1      35.070 -24.395 -13.000  0.00  0.00    +0.255 C 
ATOM     13  C   UNL     1      36.836 -25.465 -14.028  0.00  0.00    +0.058 C 
ATOM     14  C   UNL     1      36.490 -24.732 -12.902  0.00  0.00    +0.058 C 
ATOM     15  C   UNL     1      38.118 -25.934 -14.228  0.00  0.00    +0.005 C 
ATOM     16  C   UNL     1      37.407 -24.430 -11.918  0.00  0.00    +0.005 C 
ATOM     17  C   UNL     1      39.065 -25.639 -13.243  0.00  0.00    +0.000 C 
ATOM     18  C   UNL     1      38.713 -24.895 -12.098  0.00  0.00    +0.000 C 
ENDBRANCH   7  10
ENDBRANCH   6   7
ENDBRANCH   1   6
BRANCH   1  19
ATOM     19  C   UNL     1      33.229 -23.784 -17.331  0.00  0.00    +0.080 C 
BRANCH  19  21
ATOM     20  O   UNL     1      35.547 -23.221 -16.938  0.00  0.00    -0.291 OA
ATOM     21  C   UNL     1      34.538 -23.056 -17.620  0.00  0.00    +0.174 C 
BRANCH  21  22
ATOM     22  C   UNL     1      34.586 -22.102 -18.766  0.00  0.00    +0.035 C 
ATOM     23  C   UNL     1      35.815 -21.665 -19.260  0.00  0.00    +0.003 C 
ATOM     24  C   UNL     1      33.400 -21.649 -19.345  0.00  0.00    +0.003 C 
ATOM     25  C   UNL     1      34.673 -20.320 -20.911  0.00  0.00    +0.000 C 
ATOM     26  C   UNL     1      35.858 -20.774 -20.332  0.00  0.00    +0.000 C 
ATOM     27  C   UNL     1      33.444 -20.758 -20.417  0.00  0.00    +0.000 C 
BRANCH  25  28
ATOM     28  C   UNL     1      34.717 -19.395 -22.022  0.00  0.00    +0.000 C 
ATOM     29  C   UNL     1      34.177 -19.762 -23.256  0.00  0.00    +0.003 C 
ATOM     30  C   UNL     1      35.301 -18.138 -21.862  0.00  0.00    +0.003 C 
ATOM     31  C   UNL     1      34.222 -18.871 -24.328  0.00  0.00    +0.037 C 
ATOM     32  C   UNL     1      35.345 -17.249 -22.935  0.00  0.00    +0.037 C 
ATOM     33  C   UNL     1      34.806 -17.615 -24.168  0.00  0.00    +0.139 C 
BRANCH  33  34
ATOM     34  O   UNL     1      34.846 -16.745 -25.215  0.00  0.00    -0.475 OA
BRANCH  34  35
ATOM     35  C   UNL     1      33.595 -16.311 -25.747  0.00  0.00    +0.206 C 
ATOM     36  C   UNL     1      33.342 -14.884 -25.310  0.00  0.00    +0.051 C 
ENDBRANCH  34  35
ENDBRANCH  33  34
ENDBRANCH  25  28
ENDBRANCH  21  22
ENDBRANCH  19  21
ENDBRANCH   1  19
TORSDOF 11
ENDMDL
MODEL 2
REMARK VINA RESULT:     -12.0      0.100      1.700
REMARK  Name = 448384
REMARK  11 active torsions:
REMARK  status: ('A' for Active; 'I' for Inactive)
REMARK    1  A    between atoms: C_1  and  C_3
REMARK    2  A    between atoms: C_1  and  C_6
REMARK    3  A    between atoms: C_1  and  C_19
REMARK    4  A    between atoms: C_3  and  O_4
REMARK    5  A    between atoms: C_6  and  C_7
REMARK    6  A    between atoms: C_7  and  N_10
REMARK    7  A    between atoms: C_19  and  C_21
REMARK    8  A    between atoms: C_21  and  C_22
REMARK    9  A    between atoms: C_25  and  C_28
REMARK   10  A    between atoms: C_33  and  O_34
REMARK   11  A    between atoms: O_34  and  C_35
REMARK                            x       y       z     vdW  Elec       q    Type
REMARK                         _______ _______ _______ _____ _____    ______ ____
ROOT
ATOM      1  C   UNL     1      32.366 -23.017 -16.336  0.00  0.00    +0.108 C 
ENDROOT
BRANCH   1   3
ATOM      2  O   UNL     1      30.491 -24.536 -16.026  0.00  0.00    -0.250 OA
ATOM      3  C   UNL     1      30.931 -23.497 -16.502  0.00  0.00    +0.314 C 
BRANCH   3   4
ATOM      4  O   UNL     1      30.172 -22.644 -17.235  0.00  0.00    -0.480 OA
ATOM      5  H   UNL     1      30.552 -22.180 -17.954  0.00  0.00    +0.295 HD
ENDBRANCH   3   4
ENDBRANCH   1   3
BRANCH   1   6
ATOM      6  C   UNL     1      32.862 -23.310 -14.905  0.00  0.00    +0.034 C 
BRANCH   6   7
ATOM      7  C   UNL     1      33.255 -24.769 -14.673  0.00  0.00    +0.102 C 
BRANCH   7  10
ATOM      8  O   UNL     1      34.433 -23.772 -12.124  0.00  0.00    -0.269 OA
ATOM      9  O   UNL     1      35.579 -26.164 -15.923  0.00  0.00    -0.269 OA
ATOM     10  N   UNL     1      34.592 -24.924 -14.175  0.00  0.00    -0.223 N 
ATOM     11  C   UNL     1      35.035 -24.417 -12.963  0.00  0.00    +0.255 C 
ATOM     12  C   UNL     1      35.600 -25.601 -14.845  0.00  0.00    +0.255 C 
ATOM     13  C   UNL     1      36.439 -24.810 -12.846  0.00  0.00    +0.058 C 
ATOM     14  C   UNL     1      36.781 -25.527 -13.984  0.00  0.00    +0.058 C 
ATOM     15  C   UNL     1      37.347 -24.566 -11.837  0.00  0.00    +0.005 C 
ATOM     16  C   UNL     1      38.048 -26.036 -14.172  0.00  0.00    +0.005 C 
ATOM     17  C   UNL     1      38.638 -25.074 -12.005  0.00  0.00    +0.000 C 
ATOM     18  C   UNL     1      38.986 -25.801 -13.162  0.00  0.00    +0.000 C 
ENDBRANCH   7  10
ENDBRANCH   6   7
ENDBRANCH   1   6
BRANCH   1  19
ATOM     19  C   UNL     1      33.247 -23.746 -17.370  0.00  0.00    +0.080 C 
BRANCH  19  21
ATOM     20  O   UNL     1      35.563 -23.179 -16.974  0.00  0.00    -0.291 OA
ATOM     21  C   UNL     1      34.556 -23.017 -17.658  0.00  0.00    +0.174 C 
BRANCH  21  22
ATOM     22  C   UNL     1      34.605 -22.066 -18.806  0.00  0.00    +0.035 C 
ATOM     23  C   UNL     1      35.834 -21.614 -19.287  0.00  0.00    +0.003 C 
ATOM     24  C   UNL     1      33.421 -21.629 -19.400  0.00  0.00    +0.003 C 
ATOM     25  C   UNL     1      34.695 -20.288 -20.954  0.00  0.00    +0.000 C 
ATOM     26  C   UNL     1      35.879 -20.726 -20.361  0.00  0.00    +0.000 C 
ATOM     27  C   UNL     1      33.465 -20.739 -20.474  0.00  0.00    +0.000 C 
BRANCH  25  28
ATOM     28  C   UNL     1      34.740 -19.365 -22.068  0.00  0.00    +0.000 C 
ATOM     29  C   UNL     1      35.327 -18.109 -21.908  0.00  0.00    +0.003 C 
ATOM     30  C   UNL     1      34.196 -19.729 -23.300  0.00  0.00    +0.003 C 
ATOM     31  C   UNL     1      35.369 -17.218 -22.980  0.00  0.00    +0.037 C 
ATOM     32  C   UNL     1      34.240 -18.838 -24.371  0.00  0.00    +0.037 C 
ATOM     33  C   UNL     1      34.825 -17.582 -24.211  0.00  0.00    +0.139 C 
BRANCH  33  34
ATOM     34  O   UNL     1      34.870 -16.713 -25.258  0.00  0.00    -0.475 OA
BRANCH  34  35
ATOM     35  C   UNL     1      33.627 -16.177 -25.711  0.00  0.00    +0.206 C 
ATOM     36  C   UNL     1      33.383 -14.850 -25.025  0.00  0.00    +0.051 C 
ENDBRANCH  34  35
ENDBRANCH  33  34
ENDBRANCH  25  28
ENDBRANCH  21  22
ENDBRANCH  19  21
ENDBRANCH   1  19
TORSDOF 11
ENDMDL
MODEL 3
REMARK VINA RESULT:     -11.9      4.535      9.417
REMARK  Name = 448384
REMARK  11 active torsions:
REMARK  status: ('A' for Active; 'I' for Inactive)
REMARK    1  A    between atoms: C_1  and  C_3
REMARK    2  A    between atoms: C_1  and  C_6
REMARK    3  A    between atoms: C_1  and  C_19
REMARK    4  A    between atoms: C_3  and  O_4
REMARK    5  A    between atoms: C_6  and  C_7
REMARK    6  A    between atoms: C_7  and  N_10
REMARK    7  A    between atoms: C_19  and  C_21
REMARK    8  A    between atoms: C_21  and  C_22
REMARK    9  A    between atoms: C_25  and  C_28
REMARK   10  A    between atoms: C_33  and  O_34
REMARK   11  A    between atoms: O_34  and  C_35
REMARK                            x       y       z     vdW  Elec       q    Type
REMARK                         _______ _______ _______ _____ _____    ______ ____
ROOT
ATOM      1  C   UNL     1      34.007 -18.295 -24.420  0.00  0.00    +0.108 C 
ENDROOT
BRANCH   1   3
ATOM      2  O   UNL     1      34.191 -19.916 -26.226  0.00  0.00    -0.250 OA
ATOM      3  C   UNL     1      33.501 -19.129 -25.590  0.00  0.00    +0.314 C 
BRANCH   3   4
ATOM      4  O   UNL     1      32.189 -18.917 -25.860  0.00  0.00    -0.480 OA
ATOM      5  H   UNL     1      31.841 -19.147 -26.698  0.00  0.00    +0.295 HD
ENDBRANCH   3   4
ENDBRANCH   1   3
BRANCH   1   6
ATOM      6  C   UNL     1      34.982 -19.124 -23.559  0.00  0.00    +0.034 C 
BRANCH   6   7
ATOM      7  C   UNL     1      35.120 -18.620 -22.122  0.00  0.00    +0.102 C 
BRANCH   7  10
ATOM      8  O   UNL     1      37.228 -19.788 -20.369  0.00  0.00    -0.269 OA
ATOM      9  O   UNL     1      32.711 -20.186 -21.317  0.00  0.00    -0.269 OA
ATOM     10  N   UNL     1      35.005 -19.662 -21.142  0.00  0.00    -0.223 N 
ATOM     11  C   UNL     1      36.060 -20.130 -20.374  0.00  0.00    +0.255 C 
ATOM     12  C   UNL     1      33.823 -20.325 -20.844  0.00  0.00    +0.255 C 
ATOM     13  C   UNL     1      35.505 -21.170 -19.509  0.00  0.00    +0.058 C 
ATOM     14  C   UNL     1      34.151 -21.288 -19.794  0.00  0.00    +0.058 C 
ATOM     15  C   UNL     1      36.121 -21.953 -18.554  0.00  0.00    +0.005 C 
ATOM     16  C   UNL     1      33.345 -22.194 -19.138  0.00  0.00    +0.005 C 
ATOM     17  C   UNL     1      35.322 -22.878 -17.877  0.00  0.00    +0.000 C 
ATOM     18  C   UNL     1      33.947 -22.999 -18.167  0.00  0.00    +0.000 C 
ENDBRANCH   7  10
ENDBRANCH   6   7
ENDBRANCH   1   6
BRANCH   1  19
ATOM     19  C   UNL     1      34.715 -17.046 -24.981  0.00  0.00    +0.080 C 
BRANCH  19  21
ATOM     20  O   UNL     1      33.037 -16.402 -26.597  0.00  0.00    -0.291 OA
ATOM     21  C   UNL     1      33.757 -16.071 -25.658  0.00  0.00    +0.174 C 
BRANCH  21  22
ATOM     22  C   UNL     1      33.705 -14.664 -25.166  0.00  0.00    +0.035 C 
ATOM     23  C   UNL     1      33.828 -14.396 -23.802  0.00  0.00    +0.003 C 
ATOM     24  C   UNL     1      33.535 -13.615 -26.070  0.00  0.00    +0.003 C 
ATOM     25  C   UNL     1      33.609 -12.032 -24.247  0.00  0.00    +0.000 C 
ATOM     26  C   UNL     1      33.779 -13.080 -23.343  0.00  0.00    +0.000 C 
ATOM     27  C   UNL     1      33.487 -12.299 -25.611  0.00  0.00    +0.000 C 
BRANCH  25  28
ATOM     28  C   UNL     1      33.559 -10.666 -23.771  0.00  0.00    +0.000 C 
ATOM     29  C   UNL     1      32.510 -10.254 -22.947  0.00  0.00    +0.003 C 
ATOM     30  C   UNL     1      34.554  -9.761 -24.138  0.00  0.00    +0.003 C 
ATOM     31  C   UNL     1      32.459  -8.938 -22.490  0.00  0.00    +0.037 C 
ATOM     32  C   UNL     1      34.503  -8.445 -23.680  0.00  0.00    +0.037 C 
ATOM     33  C   UNL     1      33.455  -8.033 -22.857  0.00  0.00    +0.139 C 
BRANCH  33  34
ATOM     34  O   UNL     1      33.406  -6.748 -22.407  0.00  0.00    -0.475 OA
BRANCH  34  35
ATOM     35  C   UNL     1      32.318  -6.401 -21.552  0.00  0.00    +0.206 C 
ATOM     36  C   UNL     1      31.476  -5.342 -22.231  0.00  0.00    +0.051 C 
ENDBRANCH  34  35
ENDBRANCH  33  34
ENDBRANCH  25  28
ENDBRANCH  21  22
ENDBRANCH  19  21
ENDBRANCH   1  19
TORSDOF 11
ENDMDL
MODEL 4
REMARK VINA RESULT:     -11.4      4.138     12.149
REMARK  Name = 448384
REMARK  11 active torsions:
REMARK  status: ('A' for Active; 'I' for Inactive)
REMARK    1  A    between atoms: C_1  and  C_3
REMARK    2  A    between atoms: C_1  and  C_6
REMARK    3  A    between atoms: C_1  and  C_19
REMARK    4  A    between atoms: C_3  and  O_4
REMARK    5  A    between atoms: C_6  and  C_7
REMARK    6  A    between atoms: C_7  and  N_10
REMARK    7  A    between atoms: C_19  and  C_21
REMARK    8  A    between atoms: C_21  and  C_22
REMARK    9  A    between atoms: C_25  and  C_28
REMARK   10  A    between atoms: C_33  and  O_34
REMARK   11  A    between atoms: O_34  and  C_35
REMARK                            x       y       z     vdW  Elec       q    Type
REMARK                         _______ _______ _______ _____ _____    ______ ____
ROOT
ATOM      1  C   UNL     1      34.637 -16.342 -22.487  0.00  0.00    +0.108 C 
ENDROOT
BRANCH   1   3
ATOM      2  O   UNL     1      35.310 -16.870 -20.209  0.00  0.00    -0.250 OA
ATOM      3  C   UNL     1      34.963 -16.033 -21.032  0.00  0.00    +0.314 C 
BRANCH   3   4
ATOM      4  O   UNL     1      34.835 -14.716 -20.733  0.00  0.00    -0.480 OA
ATOM      5  H   UNL     1      33.986 -14.351 -20.581  0.00  0.00    +0.295 HD
ENDBRANCH   3   4
ENDBRANCH   1   3
BRANCH   1   6
ATOM      6  C   UNL     1      34.818 -15.078 -23.352  0.00  0.00    +0.034 C 
BRANCH   6   7
ATOM      7  C   UNL     1      33.512 -14.529 -23.927  0.00  0.00    +0.102 C 
BRANCH   7  10
ATOM      8  O   UNL     1      34.220 -11.870 -25.072  0.00  0.00    -0.269 OA
ATOM      9  O   UNL     1      31.955 -13.760 -21.500  0.00  0.00    -0.269 OA
ATOM     10  N   UNL     1      33.185 -13.219 -23.439  0.00  0.00    -0.223 N 
ATOM     11  C   UNL     1      33.567 -12.039 -24.059  0.00  0.00    +0.255 C 
ATOM     12  C   UNL     1      32.445 -12.977 -22.291  0.00  0.00    +0.255 C 
ATOM     13  C   UNL     1      33.020 -10.955 -23.244  0.00  0.00    +0.058 C 
ATOM     14  C   UNL     1      32.341 -11.522 -22.175  0.00  0.00    +0.058 C 
ATOM     15  C   UNL     1      33.103  -9.588 -23.414  0.00  0.00    +0.005 C 
ATOM     16  C   UNL     1      31.711 -10.752 -21.220  0.00  0.00    +0.005 C 
ATOM     17  C   UNL     1      32.471  -8.788 -22.458  0.00  0.00    +0.000 C 
ATOM     18  C   UNL     1      31.782  -9.364 -21.371  0.00  0.00    +0.000 C 
ENDBRANCH   7  10
ENDBRANCH   6   7
ENDBRANCH   1   6
BRANCH   1  19
ATOM     19  C   UNL     1      35.578 -17.463 -22.970  0.00  0.00    +0.080 C 
BRANCH  19  21
ATOM     20  O   UNL     1      34.388 -19.193 -24.167  0.00  0.00    -0.291 OA
ATOM     21  C   UNL     1      34.879 -18.812 -23.107  0.00  0.00    +0.174 C 
BRANCH  21  22
ATOM     22  C   UNL     1      34.782 -19.690 -21.905  0.00  0.00    +0.035 C 
ATOM     23  C   UNL     1      35.942 -20.145 -21.277  0.00  0.00    +0.003 C 
ATOM     24  C   UNL     1      33.531 -20.055 -21.409  0.00  0.00    +0.003 C 
ATOM     25  C   UNL     1      34.598 -21.331 -19.657  0.00  0.00    +0.000 C 
ATOM     26  C   UNL     1      35.850 -20.965 -20.153  0.00  0.00    +0.000 C 
ATOM     27  C   UNL     1      33.439 -20.877 -20.285  0.00  0.00    +0.000 C 
BRANCH  25  28
ATOM     28  C   UNL     1      34.502 -22.183 -18.491  0.00  0.00    +0.000 C 
ATOM     29  C   UNL     1      33.287 -22.791 -18.171  0.00  0.00    +0.003 C 
ATOM     30  C   UNL     1      35.622 -22.395 -17.687  0.00  0.00    +0.003 C 
ATOM     31  C   UNL     1      33.193 -23.611 -17.047  0.00  0.00    +0.037 C 
ATOM     32  C   UNL     1      35.527 -23.215 -16.563  0.00  0.00    +0.037 C 
ATOM     33  C   UNL     1      34.313 -23.823 -16.242  0.00  0.00    +0.139 C 
BRANCH  33  34
ATOM     34  O   UNL     1      34.220 -24.625 -15.147  0.00  0.00    -0.475 OA
BRANCH  34  35
ATOM     35  C   UNL     1      35.332 -24.633 -14.252  0.00  0.00    +0.206 C 
ATOM     36  C   UNL     1      34.842 -24.311 -12.855  0.00  0.00    +0.051 C 
ENDBRANCH  34  35
ENDBRANCH  33  34
ENDBRANCH  25  28
ENDBRANCH  21  22
ENDBRANCH  19  21
ENDBRANCH   1  19
TORSDOF 11
ENDMDL
MODEL 5
REMARK VINA RESULT:     -11.3      4.160     12.225
REMARK  Name = 448384
REMARK  11 active torsions:
REMARK  status: ('A' for Active; 'I' for Inactive)
REMARK    1  A    between atoms: C_1  and  C_3
REMARK    2  A    between atoms: C_1  and  C_6
REMARK    3  A    between atoms: C_1  and  C_19
REMARK    4  A    between atoms: C_3  and  O_4
REMARK    5  A    between atoms: C_6  and  C_7
REMARK    6  A    between atoms: C_7  and  N_10
REMARK    7  A    between atoms: C_19  and  C_21
REMARK    8  A    between atoms: C_21  and  C_22
REMARK    9  A    between atoms: C_25  and  C_28
REMARK   10  A    between atoms: C_33  and  O_34
REMARK   11  A    between atoms: O_34  and  C_35
REMARK                            x       y       z     vdW  Elec       q    Type
REMARK                         _______ _______ _______ _____ _____    ______ ____
ROOT
ATOM      1  C   UNL     1      34.629 -16.312 -22.524  0.00  0.00    +0.108 C 
ENDROOT
BRANCH   1   3
ATOM      2  O   UNL     1      35.303 -16.878 -20.255  0.00  0.00    -0.250 OA
ATOM      3  C   UNL     1      34.953 -16.028 -21.064  0.00  0.00    +0.314 C 
BRANCH   3   4
ATOM      4  O   UNL     1      34.820 -14.717 -20.741  0.00  0.00    -0.480 OA
ATOM      5  H   UNL     1      35.579 -14.205 -20.542  0.00  0.00    +0.295 HD
ENDBRANCH   3   4
ENDBRANCH   1   3
BRANCH   1   6
ATOM      6  C   UNL     1      34.797 -15.030 -23.365  0.00  0.00    +0.034 C 
BRANCH   6   7
ATOM      7  C   UNL     1      33.485 -14.482 -23.927  0.00  0.00    +0.102 C 
BRANCH   7  10
ATOM      8  O   UNL     1      31.949 -13.747 -21.481  0.00  0.00    -0.269 OA
ATOM      9  O   UNL     1      34.149 -11.805 -25.066  0.00  0.00    -0.269 OA
ATOM     10  N   UNL     1      33.155 -13.178 -23.426  0.00  0.00    -0.223 N 
ATOM     11  C   UNL     1      32.431 -12.950 -22.265  0.00  0.00    +0.255 C 
ATOM     12  C   UNL     1      33.521 -11.990 -24.041  0.00  0.00    +0.255 C 
ATOM     13  C   UNL     1      32.335 -11.498 -22.124  0.00  0.00    +0.058 C 
ATOM     14  C   UNL     1      32.995 -10.917 -23.198  0.00  0.00    +0.058 C 
ATOM     15  C   UNL     1      31.725 -10.739 -21.146  0.00  0.00    +0.005 C 
ATOM     16  C   UNL     1      33.079  -9.549 -23.350  0.00  0.00    +0.005 C 
ATOM     17  C   UNL     1      31.798  -9.351 -21.279  0.00  0.00    +0.000 C 
ATOM     18  C   UNL     1      32.467  -8.760 -22.371  0.00  0.00    +0.000 C 
ENDBRANCH   7  10
ENDBRANCH   6   7
ENDBRANCH   1   6
BRANCH   1  19
ATOM     19  C   UNL     1      35.581 -17.414 -23.029  0.00  0.00    +0.080 C 
BRANCH  19  21
ATOM     20  O   UNL     1      34.393 -19.169 -24.191  0.00  0.00    -0.291 OA
ATOM     21  C   UNL     1      34.907 -18.778 -23.146  0.00  0.00    +0.174 C 
BRANCH  21  22
ATOM     22  C   UNL     1      34.865 -19.658 -21.943  0.00  0.00    +0.035 C 
ATOM     23  C   UNL     1      33.638 -20.078 -21.428  0.00  0.00    +0.003 C 
ATOM     24  C   UNL     1      36.052 -20.062 -21.333  0.00  0.00    +0.003 C 
ATOM     25  C   UNL     1      34.787 -21.305 -19.693  0.00  0.00    +0.000 C 
ATOM     26  C   UNL     1      33.599 -20.901 -20.303  0.00  0.00    +0.000 C 
ATOM     27  C   UNL     1      36.014 -20.885 -20.207  0.00  0.00    +0.000 C 
BRANCH  25  28
ATOM     28  C   UNL     1      34.748 -22.158 -18.525  0.00  0.00    +0.000 C 
ATOM     29  C   UNL     1      33.593 -22.885 -18.232  0.00  0.00    +0.003 C 
ATOM     30  C   UNL     1      35.862 -22.253 -17.691  0.00  0.00    +0.003 C 
ATOM     31  C   UNL     1      33.553 -23.706 -17.105  0.00  0.00    +0.037 C 
ATOM     32  C   UNL     1      35.821 -23.074 -16.565  0.00  0.00    +0.037 C 
ATOM     33  C   UNL     1      34.667 -23.800 -16.271  0.00  0.00    +0.139 C 
BRANCH  33  34
ATOM     34  O   UNL     1      34.628 -24.605 -15.173  0.00  0.00    -0.475 OA
BRANCH  34  35
ATOM     35  C   UNL     1      35.874 -24.913 -14.550  0.00  0.00    +0.206 C 
ATOM     36  C   UNL     1      36.343 -26.271 -15.030  0.00  0.00    +0.051 C 
ENDBRANCH  34  35
ENDBRANCH  33  34
ENDBRANCH  25  28
ENDBRANCH  21  22
ENDBRANCH  19  21
ENDBRANCH   1  19
TORSDOF 11
ENDMDL
MODEL 6
REMARK VINA RESULT:     -11.2      4.810     12.978
REMARK  Name = 448384
REMARK  11 active torsions:
REMARK  status: ('A' for Active; 'I' for Inactive)
REMARK    1  A    between atoms: C_1  and  C_3
REMARK    2  A    between atoms: C_1  and  C_6
REMARK    3  A    between atoms: C_1  and  C_19
REMARK    4  A    between atoms: C_3  and  O_4
REMARK    5  A    between atoms: C_6  and  C_7
REMARK    6  A    between atoms: C_7  and  N_10
REMARK    7  A    between atoms: C_19  and  C_21
REMARK    8  A    between atoms: C_21  and  C_22
REMARK    9  A    between atoms: C_25  and  C_28
REMARK   10  A    between atoms: C_33  and  O_34
REMARK   11  A    between atoms: O_34  and  C_35
REMARK                            x       y       z     vdW  Elec       q    Type
REMARK                         _______ _______ _______ _____ _____    ______ ____
ROOT
ATOM      1  C   UNL     1      33.693 -14.823 -23.252  0.00  0.00    +0.108 C 
ENDROOT
BRANCH   1   3
ATOM      2  O   UNL     1      35.241 -14.309 -21.446  0.00  0.00    -0.250 OA
ATOM      3  C   UNL     1      34.088 -14.358 -21.857  0.00  0.00    +0.314 C 
BRANCH   3   4
ATOM      4  O   UNL     1      33.023 -13.990 -21.103  0.00  0.00    -0.480 OA
ATOM      5  H   UNL     1      33.062 -14.065 -20.170  0.00  0.00    +0.295 HD
ENDBRANCH   3   4
ENDBRANCH   1   3
BRANCH   1   6
ATOM      6  C   UNL     1      32.965 -13.690 -24.003  0.00  0.00    +0.034 C 
BRANCH   6   7
ATOM      7  C   UNL     1      33.905 -12.688 -24.673  0.00  0.00    +0.102 C 
BRANCH   7  10
ATOM      8  O   UNL     1      35.444 -10.239 -25.393  0.00  0.00    -0.269 OA
ATOM      9  O   UNL     1      32.075 -11.664 -22.550  0.00  0.00    -0.269 OA
ATOM     10  N   UNL     1      33.792 -11.361 -24.139  0.00  0.00    -0.223 N 
ATOM     11  C   UNL     1      34.565 -10.286 -24.554  0.00  0.00    +0.255 C 
ATOM     12  C   UNL     1      32.896 -10.993 -23.147  0.00  0.00    +0.255 C 
ATOM     13  C   UNL     1      34.118  -9.137 -23.767  0.00  0.00    +0.058 C 
ATOM     14  C   UNL     1      33.109  -9.564 -22.916  0.00  0.00    +0.058 C 
ATOM     15  C   UNL     1      34.551  -7.827 -23.785  0.00  0.00    +0.005 C 
ATOM     16  C   UNL     1      32.481  -8.705 -22.039  0.00  0.00    +0.005 C 
ATOM     17  C   UNL     1      33.929  -6.938 -22.905  0.00  0.00    +0.000 C 
ATOM     18  C   UNL     1      32.904  -7.372 -22.040  0.00  0.00    +0.000 C 
ENDBRANCH   7  10
ENDBRANCH   6   7
ENDBRANCH   1   6
BRANCH   1  19
ATOM     19  C   UNL     1      34.971 -15.235 -24.009  0.00  0.00    +0.080 C 
BRANCH  19  21
ATOM     20  O   UNL     1      34.992 -17.040 -25.617  0.00  0.00    -0.291 OA
ATOM     21  C   UNL     1      34.965 -16.700 -24.437  0.00  0.00    +0.174 C 
BRANCH  21  22
ATOM     22  C   UNL     1      34.913 -17.751 -23.381  0.00  0.00    +0.035 C 
ATOM     23  C   UNL     1      34.123 -18.887 -23.564  0.00  0.00    +0.003 C 
ATOM     24  C   UNL     1      35.655 -17.600 -22.209  0.00  0.00    +0.003 C 
ATOM     25  C   UNL     1      34.817 -19.718 -21.404  0.00  0.00    +0.000 C 
ATOM     26  C   UNL     1      34.075 -19.869 -22.575  0.00  0.00    +0.000 C 
ATOM     27  C   UNL     1      35.607 -18.583 -21.221  0.00  0.00    +0.000 C 
BRANCH  25  28
ATOM     28  C   UNL     1      34.768 -20.737 -20.378  0.00  0.00    +0.000 C 
ATOM     29  C   UNL     1      33.540 -21.273 -19.988  0.00  0.00    +0.003 C 
ATOM     30  C   UNL     1      35.945 -21.181 -19.777  0.00  0.00    +0.003 C 
ATOM     31  C   UNL     1      33.490 -22.254 -18.998  0.00  0.00    +0.037 C 
ATOM     32  C   UNL     1      35.895 -22.162 -18.787  0.00  0.00    +0.037 C 
ATOM     33  C   UNL     1      34.668 -22.698 -18.397  0.00  0.00    +0.139 C 
BRANCH  33  34
ATOM     34  O   UNL     1      34.619 -23.657 -17.432  0.00  0.00    -0.475 OA
BRANCH  34  35
ATOM     35  C   UNL     1      34.891 -23.246 -16.093  0.00  0.00    +0.206 C 
ATOM     36  C   UNL     1      33.720 -23.631 -15.212  0.00  0.00    +0.051 C 
ENDBRANCH  34  35
ENDBRANCH  33  34
ENDBRANCH  25  28
ENDBRANCH  21  22
ENDBRANCH  19  21
ENDBRANCH   1  19
TORSDOF 11
ENDMDL
MODEL 7
REMARK VINA RESULT:     -11.2      4.192      7.921
REMARK  Name = 448384
REMARK  11 active torsions:
REMARK  status: ('A' for Active; 'I' for Inactive)
REMARK    1  A    between atoms: C_1  and  C_3
REMARK    2  A    between atoms: C_1  and  C_6
REMARK    3  A    between atoms: C_1  and  C_19
REMARK    4  A    between atoms: C_3  and  O_4
REMARK    5  A    between atoms: C_6  and  C_7
REMARK    6  A    between atoms: C_7  and  N_10
REMARK    7  A    between atoms: C_19  and  C_21
REMARK    8  A    between atoms: C_21  and  C_22
REMARK    9  A    between atoms: C_25  and  C_28
REMARK   10  A    between atoms: C_33  and  O_34
REMARK   11  A    between atoms: O_34  and  C_35
REMARK                            x       y       z     vdW  Elec       q    Type
REMARK                         _______ _______ _______ _____ _____    ______ ____
ROOT
ATOM      1  C   UNL     1      35.915 -18.978 -21.703  0.00  0.00    +0.108 C 
ENDROOT
BRANCH   1   3
ATOM      2  O   UNL     1      38.348 -18.952 -21.764  0.00  0.00    -0.250 OA
ATOM      3  C   UNL     1      37.317 -19.140 -21.130  0.00  0.00    +0.314 C 
BRANCH   3   4
ATOM      4  O   UNL     1      37.313 -19.514 -19.826  0.00  0.00    -0.480 OA
ATOM      5  H   UNL     1      37.937 -19.145 -19.232  0.00  0.00    +0.295 HD
ENDBRANCH   3   4
ENDBRANCH   1   3
BRANCH   1   6
ATOM      6  C   UNL     1      34.925 -19.888 -20.949  0.00  0.00    +0.034 C 
BRANCH   6   7
ATOM      7  C   UNL     1      35.458 -21.296 -20.682  0.00  0.00    +0.102 C 
BRANCH   7  10
ATOM      8  O   UNL     1      36.906 -22.073 -18.196  0.00  0.00    -0.269 OA
ATOM      9  O   UNL     1      32.649 -22.060 -20.025  0.00  0.00    -0.269 OA
ATOM     10  N   UNL     1      34.938 -21.882 -19.480  0.00  0.00    -0.223 N 
ATOM     11  C   UNL     1      35.709 -22.203 -18.373  0.00  0.00    +0.255 C 
ATOM     12  C   UNL     1      33.601 -22.195 -19.280  0.00  0.00    +0.255 C 
ATOM     13  C   UNL     1      34.787 -22.758 -17.382  0.00  0.00    +0.058 C 
ATOM     14  C   UNL     1      33.512 -22.753 -17.931  0.00  0.00    +0.058 C 
ATOM     15  C   UNL     1      35.032 -23.231 -16.109  0.00  0.00    +0.005 C 
ATOM     16  C   UNL     1      32.417 -23.221 -17.235  0.00  0.00    +0.005 C 
ATOM     17  C   UNL     1      33.937 -23.709 -15.386  0.00  0.00    +0.000 C 
ATOM     18  C   UNL     1      32.641 -23.705 -15.943  0.00  0.00    +0.000 C 
ENDBRANCH   7  10
ENDBRANCH   6   7
ENDBRANCH   1   6
BRANCH   1  19
ATOM     19  C   UNL     1      35.499 -17.500 -21.564  0.00  0.00    +0.080 C 
BRANCH  19  21
ATOM     20  O   UNL     1      35.356 -17.408 -23.975  0.00  0.00    -0.291 OA
ATOM     21  C   UNL     1      35.151 -16.851 -22.900  0.00  0.00    +0.174 C 
BRANCH  21  22
ATOM     22  C   UNL     1      34.552 -15.484 -22.894  0.00  0.00    +0.035 C 
ATOM     23  C   UNL     1      34.019 -14.950 -24.068  0.00  0.00    +0.003 C 
ATOM     24  C   UNL     1      34.523 -14.741 -21.714  0.00  0.00    +0.003 C 
ATOM     25  C   UNL     1      33.431 -12.930 -22.881  0.00  0.00    +0.000 C 
ATOM     26  C   UNL     1      33.459 -13.673 -24.061  0.00  0.00    +0.000 C 
ATOM     27  C   UNL     1      33.963 -13.464 -21.707  0.00  0.00    +0.000 C 
BRANCH  25  28
ATOM     28  C   UNL     1      32.850 -11.605 -22.873  0.00  0.00    +0.000 C 
ATOM     29  C   UNL     1      31.801 -11.309 -22.001  0.00  0.00    +0.003 C 
ATOM     30  C   UNL     1      33.336 -10.624 -23.738  0.00  0.00    +0.003 C 
ATOM     31  C   UNL     1      31.240 -10.032 -21.995  0.00  0.00    +0.037 C 
ATOM     32  C   UNL     1      32.775  -9.348 -23.731  0.00  0.00    +0.037 C 
ATOM     33  C   UNL     1      31.726  -9.052 -22.860  0.00  0.00    +0.139 C 
BRANCH  33  34
ATOM     34  O   UNL     1      31.179  -7.805 -22.851  0.00  0.00    -0.475 OA
BRANCH  34  35
ATOM     35  C   UNL     1      32.043  -6.719 -22.520  0.00  0.00    +0.206 C 
ATOM     36  C   UNL     1      32.079  -6.559 -21.014  0.00  0.00    +0.051 C 
ENDBRANCH  34  35
ENDBRANCH  33  34
ENDBRANCH  25  28
ENDBRANCH  21  22
ENDBRANCH  19  21
ENDBRANCH   1  19
TORSDOF 11
ENDMDL
MODEL 8
REMARK VINA RESULT:     -11.2      1.842      4.723
REMARK  Name = 448384
REMARK  11 active torsions:
REMARK  status: ('A' for Active; 'I' for Inactive)
REMARK    1  A    between atoms: C_1  and  C_3
REMARK    2  A    between atoms: C_1  and  C_6
REMARK    3  A    between atoms: C_1  and  C_19
REMARK    4  A    between atoms: C_3  and  O_4
REMARK    5  A    between atoms: C_6  and  C_7
REMARK    6  A    between atoms: C_7  and  N_10
REMARK    7  A    between atoms: C_19  and  C_21
REMARK    8  A    between atoms: C_21  and  C_22
REMARK    9  A    between atoms: C_25  and  C_28
REMARK   10  A    between atoms: C_33  and  O_34
REMARK   11  A    between atoms: O_34  and  C_35
REMARK                            x       y       z     vdW  Elec       q    Type
REMARK                         _______ _______ _______ _____ _____    ______ ____
ROOT
ATOM      1  C   UNL     1      36.329 -23.683 -16.108  0.00  0.00    +0.108 C 
ENDROOT
BRANCH   1   3
ATOM      2  O   UNL     1      37.600 -22.880 -14.194  0.00  0.00    -0.250 OA
ATOM      3  C   UNL     1      37.591 -23.314 -15.340  0.00  0.00    +0.314 C 
BRANCH   3   4
ATOM      4  O   UNL     1      38.724 -23.520 -16.057  0.00  0.00    -0.480 OA
ATOM      5  H   UNL     1      39.492 -23.848 -15.633  0.00  0.00    +0.295 HD
ENDBRANCH   3   4
ENDBRANCH   1   3
BRANCH   1   6
ATOM      6  C   UNL     1      35.233 -24.159 -15.132  0.00  0.00    +0.034 C 
BRANCH   6   7
ATOM      7  C   UNL     1      34.169 -23.102 -14.835  0.00  0.00    +0.102 C 
BRANCH   7  10
ATOM      8  O   UNL     1      32.116 -22.613 -16.939  0.00  0.00    -0.269 OA
ATOM      9  O   UNL     1      32.711 -24.905 -12.957  0.00  0.00    -0.269 OA
ATOM     10  N   UNL     1      32.829 -23.607 -14.923  0.00  0.00    -0.223 N 
ATOM     11  C   UNL     1      31.953 -23.314 -15.957  0.00  0.00    +0.255 C 
ATOM     12  C   UNL     1      32.249 -24.449 -13.985  0.00  0.00    +0.255 C 
ATOM     13  C   UNL     1      30.716 -24.036 -15.659  0.00  0.00    +0.058 C 
ATOM     14  C   UNL     1      30.895 -24.722 -14.467  0.00  0.00    +0.058 C 
ATOM     15  C   UNL     1      29.531 -24.093 -16.363  0.00  0.00    +0.005 C 
ATOM     16  C   UNL     1      29.899 -25.501 -13.916  0.00  0.00    +0.005 C 
ATOM     17  C   UNL     1      28.507 -24.876 -15.824  0.00  0.00    +0.000 C 
ATOM     18  C   UNL     1      28.689 -25.573 -14.612  0.00  0.00    +0.000 C 
ENDBRANCH   7  10
ENDBRANCH   6   7
ENDBRANCH   1   6
BRANCH   1  19
ATOM     19  C   UNL     1      35.852 -22.443 -16.889  0.00  0.00    +0.080 C 
BRANCH  19  21
ATOM     20  O   UNL     1      34.425 -23.856 -18.233  0.00  0.00    -0.291 OA
ATOM     21  C   UNL     1      35.036 -22.795 -18.128  0.00  0.00    +0.174 C 
BRANCH  21  22
ATOM     22  C   UNL     1      34.990 -21.818 -19.254  0.00  0.00    +0.035 C 
ATOM     23  C   UNL     1      33.761 -21.412 -19.777  0.00  0.00    +0.003 C 
ATOM     24  C   UNL     1      36.176 -21.309 -19.783  0.00  0.00    +0.003 C 
ATOM     25  C   UNL     1      34.906 -19.989 -21.358  0.00  0.00    +0.000 C 
ATOM     26  C   UNL     1      33.720 -20.498 -20.829  0.00  0.00    +0.000 C 
ATOM     27  C   UNL     1      36.134 -20.394 -20.836  0.00  0.00    +0.000 C 
BRANCH  25  28
ATOM     28  C   UNL     1      34.863 -19.041 -22.451  0.00  0.00    +0.000 C 
ATOM     29  C   UNL     1      35.393 -17.761 -22.284  0.00  0.00    +0.003 C 
ATOM     30  C   UNL     1      34.290 -19.405 -23.669  0.00  0.00    +0.003 C 
ATOM     31  C   UNL     1      35.351 -16.846 -23.335  0.00  0.00    +0.037 C 
ATOM     32  C   UNL     1      34.247 -18.489 -24.721  0.00  0.00    +0.037 C 
ATOM     33  C   UNL     1      34.777 -17.210 -24.554  0.00  0.00    +0.139 C 
BRANCH  33  34
ATOM     34  O   UNL     1      34.739 -16.317 -25.581  0.00  0.00    -0.475 OA
BRANCH  34  35
ATOM     35  C   UNL     1      33.458 -15.809 -25.952  0.00  0.00    +0.206 C 
ATOM     36  C   UNL     1      33.193 -14.530 -25.187  0.00  0.00    +0.051 C 
ENDBRANCH  34  35
ENDBRANCH  33  34
ENDBRANCH  25  28
ENDBRANCH  21  22
ENDBRANCH  19  21
ENDBRANCH   1  19
TORSDOF 11
ENDMDL
MODEL 9
REMARK VINA RESULT:     -11.1      3.001     11.870
REMARK  Name = 448384
REMARK  11 active torsions:
REMARK  status: ('A' for Active; 'I' for Inactive)
REMARK    1  A    between atoms: C_1  and  C_3
REMARK    2  A    between atoms: C_1  and  C_6
REMARK    3  A    between atoms: C_1  and  C_19
REMARK    4  A    between atoms: C_3  and  O_4
REMARK    5  A    between atoms: C_6  and  C_7
REMARK    6  A    between atoms: C_7  and  N_10
REMARK    7  A    between atoms: C_19  and  C_21
REMARK    8  A    between atoms: C_21  and  C_22
REMARK    9  A    between atoms: C_25  and  C_28
REMARK   10  A    between atoms: C_33  and  O_34
REMARK   11  A    between atoms: O_34  and  C_35
REMARK                            x       y       z     vdW  Elec       q    Type
REMARK                         _______ _______ _______ _____ _____    ______ ____
ROOT
ATOM      1  C   UNL     1      34.767 -19.439 -21.312  0.00  0.00    +0.108 C 
ENDROOT
BRANCH   1   3
ATOM      2  O   UNL     1      37.158 -19.176 -20.942  0.00  0.00    -0.250 OA
ATOM      3  C   UNL     1      36.024 -18.724 -20.837  0.00  0.00    +0.314 C 
BRANCH   3   4
ATOM      4  O   UNL     1      35.763 -17.514 -20.281  0.00  0.00    -0.480 OA
ATOM      5  H   UNL     1      36.167 -17.275 -19.470  0.00  0.00    +0.295 HD
ENDBRANCH   3   4
ENDBRANCH   1   3
BRANCH   1   6
ATOM      6  C   UNL     1      34.576 -19.228 -22.828  0.00  0.00    +0.034 C 
BRANCH   6   7
ATOM      7  C   UNL     1      35.572 -18.246 -23.445  0.00  0.00    +0.102 C 
BRANCH   7  10
ATOM      8  O   UNL     1      35.247 -15.618 -22.077  0.00  0.00    -0.269 OA
ATOM      9  O   UNL     1      34.278 -17.731 -26.085  0.00  0.00    -0.269 OA
ATOM     10  N   UNL     1      34.956 -17.045 -23.932  0.00  0.00    -0.223 N 
ATOM     11  C   UNL     1      34.862 -15.868 -23.204  0.00  0.00    +0.255 C 
ATOM     12  C   UNL     1      34.384 -16.915 -25.189  0.00  0.00    +0.255 C 
ATOM     13  C   UNL     1      34.181 -14.907 -24.071  0.00  0.00    +0.058 C 
ATOM     14  C   UNL     1      33.892 -15.540 -25.272  0.00  0.00    +0.058 C 
ATOM     15  C   UNL     1      33.839 -13.590 -23.840  0.00  0.00    +0.005 C 
ATOM     16  C   UNL     1      33.245 -14.891 -26.302  0.00  0.00    +0.005 C 
ATOM     17  C   UNL     1      33.182 -12.912 -24.870  0.00  0.00    +0.000 C 
ATOM     18  C   UNL     1      32.887 -13.556 -26.090  0.00  0.00    +0.000 C 
ENDBRANCH   7  10
ENDBRANCH   6   7
ENDBRANCH   1   6
BRANCH   1  19
ATOM     19  C   UNL     1      34.909 -20.941 -20.993  0.00  0.00    +0.080 C 
BRANCH  19  21
ATOM     20  O   UNL     1      32.599 -21.400 -20.450  0.00  0.00    -0.291 OA
ATOM     21  C   UNL     1      33.780 -21.475 -20.118  0.00  0.00    +0.174 C 
BRANCH  21  22
ATOM     22  C   UNL     1      34.127 -22.100 -18.809  0.00  0.00    +0.035 C 
ATOM     23  C   UNL     1      33.131 -22.696 -18.034  0.00  0.00    +0.003 C 
ATOM     24  C   UNL     1      35.447 -22.089 -18.359  0.00  0.00    +0.003 C 
ATOM     25  C   UNL     1      34.777 -23.269 -16.361  0.00  0.00    +0.000 C 
ATOM     26  C   UNL     1      33.456 -23.280 -16.810  0.00  0.00    +0.000 C 
ATOM     27  C   UNL     1      35.773 -22.673 -17.135  0.00  0.00    +0.000 C 
BRANCH  25  28
ATOM     28  C   UNL     1      35.115 -23.874 -15.091  0.00  0.00    +0.000 C 
ATOM     29  C   UNL     1      36.427 -24.277 -14.838  0.00  0.00    +0.003 C 
ATOM     30  C   UNL     1      34.130 -24.058 -14.120  0.00  0.00    +0.003 C 
ATOM     31  C   UNL     1      36.753 -24.862 -13.615  0.00  0.00    +0.037 C 
ATOM     32  C   UNL     1      34.457 -24.643 -12.897  0.00  0.00    +0.037 C 
ATOM     33  C   UNL     1      35.768 -25.046 -12.645  0.00  0.00    +0.139 C 
BRANCH  33  34
ATOM     34  O   UNL     1      36.089 -25.615 -11.450  0.00  0.00    -0.475 OA
BRANCH  34  35
ATOM     35  C   UNL     1      35.908 -24.816 -10.281  0.00  0.00    +0.206 C 
ATOM     36  C   UNL     1      36.747 -23.562 -10.407  0.00  0.00    +0.051 C 
ENDBRANCH  34  35
ENDBRANCH  33  34
ENDBRANCH  25  28
ENDBRANCH  21  22
ENDBRANCH  19  21
ENDBRANCH   1  19
TORSDOF 11
ENDMDL
