MODEL 1
REMARK VINA RESULT:     -12.5      0.000      0.000
REMARK  Name = 24941249
REMARK  6 active torsions:
REMARK  status: ('A' for Active; 'I' for Inactive)
REMARK    1  A    between atoms: N_1  and  C_13
REMARK    2  A    between atoms: N_2  and  C_26
REMARK    3  A    between atoms: C_14  and  C_19
REMARK    4  A    between atoms: C_19  and  C_20
REMARK    5  A    between atoms: C_20  and  C_23
REMARK    6  A    between atoms: C_26  and  C_28
REMARK                            x       y       z     vdW  Elec       q    Type
REMARK                         _______ _______ _______ _____ _____    ______ ____
ROOT
ATOM      1  N   UNL     1      34.095 -24.343 -13.720  0.00  0.00    -0.230 N 
ATOM      2  N   UNL     1      34.766 -22.542 -18.213  0.00  0.00    -0.316 N 
ATOM      3  N   UNL     1      33.010 -24.743 -13.034  0.00  0.00    -0.169 NA
ATOM      4  N   UNL     1      32.636 -23.144 -17.340  0.00  0.00    -0.229 NA
ATOM      5  C   UNL     1      33.826 -23.895 -14.984  0.00  0.00    +0.088 A 
ATOM      6  C   UNL     1      32.449 -24.014 -15.129  0.00  0.00    +0.052 A 
ATOM      7  C   UNL     1      32.010 -24.540 -13.896  0.00  0.00    +0.082 A 
ATOM      8  C   UNL     1      34.650 -23.405 -15.991  0.00  0.00    +0.053 C 
ATOM      9  C   UNL     1      33.974 -23.049 -17.148  0.00  0.00    +0.130 C 
ATOM     10  C   UNL     1      31.864 -23.627 -16.334  0.00  0.00    +0.103 C 
ATOM     11  C   UNL     1      30.631 -24.868 -13.497  0.00  0.00    +0.054 C 
ATOM     12  H   UNL     1      35.739 -22.467 -18.084  0.00  0.00    +0.148 HD
ENDROOT
BRANCH   1  13
ATOM     13  C   UNL     1      35.353 -24.415 -13.120  0.00  0.00    +0.082 C 
ATOM     14  C   UNL     1      37.541 -25.428 -12.960  0.00  0.00    -0.020 C 
ATOM     15  C   UNL     1      36.283 -25.357 -13.560  0.00  0.00    +0.015 C 
ATOM     16  C   UNL     1      35.680 -23.544 -12.081  0.00  0.00    +0.019 C 
ATOM     17  C   UNL     1      37.868 -24.557 -11.921  0.00  0.00    -0.004 C 
ATOM     18  C   UNL     1      36.938 -23.615 -11.481  0.00  0.00    +0.001 C 
BRANCH  14  19
ATOM     19  C   UNL     1      38.535 -26.435 -13.429  0.00  0.00    +0.036 C 
BRANCH  19  20
ATOM     20  C   UNL     1      39.893 -25.803 -13.756  0.00  0.00    +0.089 C 
BRANCH  20  23
ATOM     21  O   UNL     1      40.781 -26.264 -15.966  0.00  0.00    -0.275 OA
ATOM     22  N   UNL     1      39.395 -24.451 -15.683  0.00  0.00    -0.329 N 
ATOM     23  C   UNL     1      40.087 -25.558 -15.240  0.00  0.00    +0.220 C 
ATOM     24  H   UNL     1      39.442 -24.189 -16.630  0.00  0.00    +0.145 HD
ATOM     25  H   UNL     1      38.855 -23.923 -15.051  0.00  0.00    +0.145 HD
ENDBRANCH  20  23
ENDBRANCH  19  20
ENDBRANCH  14  19
ENDBRANCH   1  13
BRANCH   2  26
ATOM     26  C   UNL     1      34.207 -22.138 -19.460  0.00  0.00    +0.093 C 
ATOM     27  C   UNL     1      32.763 -21.686 -19.246  0.00  0.00    +0.026 C 
BRANCH  26  28
ATOM     28  C   UNL     1      35.071 -21.073 -20.099  0.00  0.00    -0.005 C 
ATOM     29  C   UNL     1      34.492 -20.106 -20.922  0.00  0.00    -0.003 C 
ATOM     30  C   UNL     1      36.446 -21.057 -19.865  0.00  0.00    -0.003 C 
ATOM     31  C   UNL     1      35.289 -19.125 -21.512  0.00  0.00    -0.000 C 
ATOM     32  C   UNL     1      37.242 -20.075 -20.455  0.00  0.00    -0.000 C 
ATOM     33  C   UNL     1      36.664 -19.109 -21.278  0.00  0.00    -0.000 C 
ENDBRANCH  26  28
ENDBRANCH   2  26
TORSDOF 6
ENDMDL
MODEL 2
REMARK VINA RESULT:     -11.3      3.104      8.322
REMARK  Name = 24941249
REMARK  6 active torsions:
REMARK  status: ('A' for Active; 'I' for Inactive)
REMARK    1  A    between atoms: N_1  and  C_13
REMARK    2  A    between atoms: N_2  and  C_26
REMARK    3  A    between atoms: C_14  and  C_19
REMARK    4  A    between atoms: C_19  and  C_20
REMARK    5  A    between atoms: C_20  and  C_23
REMARK    6  A    between atoms: C_26  and  C_28
REMARK                            x       y       z     vdW  Elec       q    Type
REMARK                         _______ _______ _______ _____ _____    ______ ____
ROOT
ATOM      1  N   UNL     1      33.501 -22.458 -18.068  0.00  0.00    -0.230 N 
ATOM      2  N   UNL     1      36.498 -24.851 -15.039  0.00  0.00    -0.316 N 
ATOM      3  N   UNL     1      32.166 -22.312 -18.126  0.00  0.00    -0.169 NA
ATOM      4  N   UNL     1      34.130 -24.832 -14.806  0.00  0.00    -0.229 NA
ATOM      5  C   UNL     1      33.935 -23.233 -17.028  0.00  0.00    +0.088 A 
ATOM      6  C   UNL     1      32.783 -23.622 -16.355  0.00  0.00    +0.052 A 
ATOM      7  C   UNL     1      31.733 -23.022 -17.082  0.00  0.00    +0.082 A 
ATOM      8  C   UNL     1      35.209 -23.620 -16.626  0.00  0.00    +0.053 C 
ATOM      9  C   UNL     1      35.223 -24.425 -15.497  0.00  0.00    +0.130 C 
ATOM     10  C   UNL     1      32.904 -24.435 -15.228  0.00  0.00    +0.103 C 
ATOM     11  C   UNL     1      30.288 -23.104 -16.808  0.00  0.00    +0.054 C 
ATOM     12  H   UNL     1      37.299 -24.562 -15.534  0.00  0.00    +0.148 HD
ENDROOT
BRANCH   1  13
ATOM     13  C   UNL     1      34.304 -21.837 -19.025  0.00  0.00    +0.082 C 
ATOM     14  C   UNL     1      34.525 -20.417 -20.968  0.00  0.00    -0.020 C 
ATOM     15  C   UNL     1      33.723 -21.038 -20.010  0.00  0.00    +0.015 C 
ATOM     16  C   UNL     1      35.687 -22.014 -18.997  0.00  0.00    +0.019 C 
ATOM     17  C   UNL     1      35.908 -20.594 -20.940  0.00  0.00    -0.004 C 
ATOM     18  C   UNL     1      36.490 -21.392 -19.954  0.00  0.00    +0.001 C 
BRANCH  14  19
ATOM     19  C   UNL     1      33.905 -19.565 -22.022  0.00  0.00    +0.036 C 
BRANCH  19  20
ATOM     20  C   UNL     1      34.781 -19.461 -23.276  0.00  0.00    +0.089 C 
BRANCH  20  23
ATOM     21  O   UNL     1      34.659 -17.546 -24.761  0.00  0.00    -0.275 OA
ATOM     22  N   UNL     1      35.751 -17.324 -22.749  0.00  0.00    -0.329 N 
ATOM     23  C   UNL     1      35.039 -18.027 -23.697  0.00  0.00    +0.220 C 
ATOM     24  H   UNL     1      35.981 -16.380 -22.907  0.00  0.00    +0.145 HD
ATOM     25  H   UNL     1      36.029 -17.766 -21.915  0.00  0.00    +0.145 HD
ENDBRANCH  20  23
ENDBRANCH  19  20
ENDBRANCH  14  19
ENDBRANCH   1  13
BRANCH   2  26
ATOM     26  C   UNL     1      36.664 -25.679 -13.892  0.00  0.00    +0.093 C 
ATOM     27  C   UNL     1      37.921 -26.533 -14.060  0.00  0.00    +0.026 C 
BRANCH  26  28
ATOM     28  C   UNL     1      36.687 -24.835 -12.636  0.00  0.00    -0.005 C 
ATOM     29  C   UNL     1      35.912 -25.201 -11.535  0.00  0.00    -0.003 C 
ATOM     30  C   UNL     1      37.482 -23.691 -12.579  0.00  0.00    -0.003 C 
ATOM     31  C   UNL     1      35.933 -24.423 -10.378  0.00  0.00    -0.000 C 
ATOM     32  C   UNL     1      37.502 -22.913 -11.422  0.00  0.00    -0.000 C 
ATOM     33  C   UNL     1      36.728 -23.279 -10.321  0.00  0.00    -0.000 C 
ENDBRANCH  26  28
ENDBRANCH   2  26
TORSDOF 6
ENDMDL
MODEL 3
REMARK VINA RESULT:     -11.3      8.062     13.506
REMARK  Name = 24941249
REMARK  6 active torsions:
REMARK  status: ('A' for Active; 'I' for Inactive)
REMARK    1  A    between atoms: N_1  and  C_13
REMARK    2  A    between atoms: N_2  and  C_26
REMARK    3  A    between atoms: C_14  and  C_19
REMARK    4  A    between atoms: C_19  and  C_20
REMARK    5  A    between atoms: C_20  and  C_23
REMARK    6  A    between atoms: C_26  and  C_28
REMARK                            x       y       z     vdW  Elec       q    Type
REMARK                         _______ _______ _______ _____ _____    ______ ____
ROOT
ATOM      1  N   UNL     1      33.243 -13.899 -23.698  0.00  0.00    -0.230 N 
ATOM      2  N   UNL     1      35.340 -17.794 -21.622  0.00  0.00    -0.316 N 
ATOM      3  N   UNL     1      33.035 -13.528 -24.974  0.00  0.00    -0.169 NA
ATOM      4  N   UNL     1      35.162 -17.492 -23.976  0.00  0.00    -0.229 NA
ATOM      5  C   UNL     1      33.885 -15.099 -23.561  0.00  0.00    +0.088 A 
ATOM      6  C   UNL     1      34.113 -15.543 -24.858  0.00  0.00    +0.052 A 
ATOM      7  C   UNL     1      33.567 -14.531 -25.676  0.00  0.00    +0.082 A 
ATOM      8  C   UNL     1      34.278 -15.818 -22.439  0.00  0.00    +0.053 C 
ATOM      9  C   UNL     1      34.915 -17.015 -22.731  0.00  0.00    +0.130 C 
ATOM     10  C   UNL     1      34.763 -16.762 -25.047  0.00  0.00    +0.103 C 
ATOM     11  C   UNL     1      33.531 -14.485 -27.148  0.00  0.00    +0.054 C 
ATOM     12  H   UNL     1      35.167 -17.456 -20.714  0.00  0.00    +0.148 HD
ENDROOT
BRANCH   1  13
ATOM     13  C   UNL     1      32.807 -13.072 -22.662  0.00  0.00    +0.082 C 
ATOM     14  C   UNL     1      32.065 -10.909 -21.881  0.00  0.00    -0.020 C 
ATOM     15  C   UNL     1      32.501 -11.736 -22.917  0.00  0.00    +0.015 C 
ATOM     16  C   UNL     1      32.677 -13.583 -21.370  0.00  0.00    +0.019 C 
ATOM     17  C   UNL     1      31.935 -11.420 -20.590  0.00  0.00    -0.004 C 
ATOM     18  C   UNL     1      32.241 -12.757 -20.334  0.00  0.00    +0.001 C 
BRANCH  14  19
ATOM     19  C   UNL     1      31.739  -9.480 -22.153  0.00  0.00    +0.036 C 
BRANCH  19  20
ATOM     20  C   UNL     1      32.984  -8.585 -22.124  0.00  0.00    +0.089 C 
BRANCH  20  23
ATOM     21  O   UNL     1      32.515  -6.301 -21.454  0.00  0.00    -0.275 OA
ATOM     22  N   UNL     1      33.179  -7.813 -19.853  0.00  0.00    -0.329 N 
ATOM     23  C   UNL     1      32.859  -7.436 -21.141  0.00  0.00    +0.220 C 
ATOM     24  H   UNL     1      33.137  -7.154 -19.124  0.00  0.00    +0.145 HD
ATOM     25  H   UNL     1      33.450  -8.740 -19.666  0.00  0.00    +0.145 HD
ENDBRANCH  20  23
ENDBRANCH  19  20
ENDBRANCH  14  19
ENDBRANCH   1  13
BRANCH   2  26
ATOM     26  C   UNL     1      36.005 -19.045 -21.773  0.00  0.00    +0.093 C 
ATOM     27  C   UNL     1      37.489 -18.873 -21.449  0.00  0.00    +0.026 C 
BRANCH  26  28
ATOM     28  C   UNL     1      35.333 -20.101 -20.923  0.00  0.00    -0.005 C 
ATOM     29  C   UNL     1      36.105 -20.984 -20.168  0.00  0.00    -0.003 C 
ATOM     30  C   UNL     1      33.942 -20.190 -20.892  0.00  0.00    -0.003 C 
ATOM     31  C   UNL     1      35.486 -21.958 -19.385  0.00  0.00    -0.000 C 
ATOM     32  C   UNL     1      33.322 -21.163 -20.109  0.00  0.00    -0.000 C 
ATOM     33  C   UNL     1      34.094 -22.047 -19.354  0.00  0.00    -0.000 C 
ENDBRANCH  26  28
ENDBRANCH   2  26
TORSDOF 6
ENDMDL
MODEL 4
REMARK VINA RESULT:     -11.1      3.182      6.257
REMARK  Name = 24941249
REMARK  6 active torsions:
REMARK  status: ('A' for Active; 'I' for Inactive)
REMARK    1  A    between atoms: N_1  and  C_13
REMARK    2  A    between atoms: N_2  and  C_26
REMARK    3  A    between atoms: C_14  and  C_19
REMARK    4  A    between atoms: C_19  and  C_20
REMARK    5  A    between atoms: C_20  and  C_23
REMARK    6  A    between atoms: C_26  and  C_28
REMARK                            x       y       z     vdW  Elec       q    Type
REMARK                         _______ _______ _______ _____ _____    ______ ____
ROOT
ATOM      1  N   UNL     1      34.370 -23.887 -14.543  0.00  0.00    -0.230 N 
ATOM      2  N   UNL     1      35.619 -21.795 -18.779  0.00  0.00    -0.316 N 
ATOM      3  N   UNL     1      35.059 -24.231 -13.441  0.00  0.00    -0.169 NA
ATOM      4  N   UNL     1      37.166 -22.252 -17.029  0.00  0.00    -0.229 NA
ATOM      5  C   UNL     1      35.132 -23.310 -15.522  0.00  0.00    +0.088 A 
ATOM      6  C   UNL     1      36.423 -23.277 -15.010  0.00  0.00    +0.052 A 
ATOM      7  C   UNL     1      36.309 -23.858 -13.730  0.00  0.00    +0.082 A 
ATOM      8  C   UNL     1      34.809 -22.824 -16.784  0.00  0.00    +0.053 C 
ATOM      9  C   UNL     1      35.889 -22.307 -17.482  0.00  0.00    +0.130 C 
ATOM     10  C   UNL     1      37.443 -22.736 -15.792  0.00  0.00    +0.103 C 
ATOM     11  C   UNL     1      37.378 -24.077 -12.741  0.00  0.00    +0.054 C 
ATOM     12  H   UNL     1      34.696 -21.831 -19.118  0.00  0.00    +0.148 HD
ENDROOT
BRANCH   1  13
ATOM     13  C   UNL     1      32.998 -24.132 -14.601  0.00  0.00    +0.082 C 
ATOM     14  C   UNL     1      30.831 -23.680 -15.569  0.00  0.00    -0.020 C 
ATOM     15  C   UNL     1      32.203 -23.435 -15.511  0.00  0.00    +0.015 C 
ATOM     16  C   UNL     1      32.421 -25.074 -13.749  0.00  0.00    +0.019 C 
ATOM     17  C   UNL     1      30.254 -24.621 -14.717  0.00  0.00    -0.004 C 
ATOM     18  C   UNL     1      31.049 -25.319 -13.807  0.00  0.00    +0.001 C 
BRANCH  14  19
ATOM     19  C   UNL     1      29.980 -22.934 -16.540  0.00  0.00    +0.036 C 
BRANCH  19  20
ATOM     20  C   UNL     1      28.537 -22.778 -16.048  0.00  0.00    +0.089 C 
BRANCH  20  23
ATOM     21  O   UNL     1      27.474 -24.124 -17.764  0.00  0.00    -0.275 OA
ATOM     22  N   UNL     1      26.627 -22.035 -17.308  0.00  0.00    -0.329 N 
ATOM     23  C   UNL     1      27.512 -23.076 -17.126  0.00  0.00    +0.220 C 
ATOM     24  H   UNL     1      25.913 -22.110 -17.982  0.00  0.00    +0.145 HD
ATOM     25  H   UNL     1      26.709 -21.219 -16.765  0.00  0.00    +0.145 HD
ENDBRANCH  20  23
ENDBRANCH  19  20
ENDBRANCH  14  19
ENDBRANCH   1  13
BRANCH   2  26
ATOM     26  C   UNL     1      36.632 -21.232 -19.608  0.00  0.00    +0.093 C 
ATOM     27  C   UNL     1      37.415 -22.355 -20.286  0.00  0.00    +0.026 C 
BRANCH  26  28
ATOM     28  C   UNL     1      36.021 -20.260 -20.593  0.00  0.00    -0.005 C 
ATOM     29  C   UNL     1      34.696 -20.419 -21.000  0.00  0.00    -0.003 C 
ATOM     30  C   UNL     1      36.781 -19.203 -21.093  0.00  0.00    -0.003 C 
ATOM     31  C   UNL     1      34.133 -19.523 -21.909  0.00  0.00    -0.000 C 
ATOM     32  C   UNL     1      36.218 -18.307 -22.002  0.00  0.00    -0.000 C 
ATOM     33  C   UNL     1      34.893 -18.467 -22.409  0.00  0.00    -0.000 C 
ENDBRANCH  26  28
ENDBRANCH   2  26
TORSDOF 6
ENDMDL
MODEL 5
REMARK VINA RESULT:     -10.9      3.910      8.691
REMARK  Name = 24941249
REMARK  6 active torsions:
REMARK  status: ('A' for Active; 'I' for Inactive)
REMARK    1  A    between atoms: N_1  and  C_13
REMARK    2  A    between atoms: N_2  and  C_26
REMARK    3  A    between atoms: C_14  and  C_19
REMARK    4  A    between atoms: C_19  and  C_20
REMARK    5  A    between atoms: C_20  and  C_23
REMARK    6  A    between atoms: C_26  and  C_28
REMARK                            x       y       z     vdW  Elec       q    Type
REMARK                         _______ _______ _______ _____ _____    ______ ____
ROOT
ATOM      1  N   UNL     1      32.299 -23.297 -16.766  0.00  0.00    -0.230 N 
ATOM      2  N   UNL     1      35.696 -23.739 -13.282  0.00  0.00    -0.316 N 
ATOM      3  N   UNL     1      32.339 -22.923 -18.057  0.00  0.00    -0.169 NA
ATOM      4  N   UNL     1      36.172 -23.029 -15.503  0.00  0.00    -0.229 NA
ATOM      5  C   UNL     1      33.515 -23.279 -16.140  0.00  0.00    +0.088 A 
ATOM      6  C   UNL     1      34.419 -22.857 -17.107  0.00  0.00    +0.052 A 
ATOM      7  C   UNL     1      33.631 -22.656 -18.260  0.00  0.00    +0.082 A 
ATOM      8  C   UNL     1      33.893 -23.588 -14.839  0.00  0.00    +0.053 C 
ATOM      9  C   UNL     1      35.250 -23.437 -14.596  0.00  0.00    +0.130 C 
ATOM     10  C   UNL     1      35.765 -22.737 -16.763  0.00  0.00    +0.103 C 
ATOM     11  C   UNL     1      34.079 -22.206 -19.589  0.00  0.00    +0.054 C 
ATOM     12  H   UNL     1      35.035 -24.035 -12.615  0.00  0.00    +0.148 HD
ENDROOT
BRANCH   1  13
ATOM     13  C   UNL     1      31.080 -23.660 -16.192  0.00  0.00    +0.082 C 
ATOM     14  C   UNL     1      28.690 -23.362 -15.993  0.00  0.00    -0.020 C 
ATOM     15  C   UNL     1      29.909 -22.999 -16.567  0.00  0.00    +0.015 C 
ATOM     16  C   UNL     1      31.031 -24.682 -15.245  0.00  0.00    +0.019 C 
ATOM     17  C   UNL     1      28.642 -24.384 -15.045  0.00  0.00    -0.004 C 
ATOM     18  C   UNL     1      29.812 -25.045 -14.672  0.00  0.00    +0.001 C 
BRANCH  14  19
ATOM     19  C   UNL     1      27.439 -22.655 -16.391  0.00  0.00    +0.036 C 
BRANCH  19  20
ATOM     20  C   UNL     1      27.159 -22.774 -17.894  0.00  0.00    +0.089 C 
BRANCH  20  23
ATOM     21  O   UNL     1      25.708 -21.731 -19.535  0.00  0.00    -0.275 OA
ATOM     22  N   UNL     1      25.569 -21.055 -17.341  0.00  0.00    -0.329 N 
ATOM     23  C   UNL     1      26.081 -21.818 -18.369  0.00  0.00    +0.220 C 
ATOM     24  H   UNL     1      24.862 -20.395 -17.525  0.00  0.00    +0.145 HD
ATOM     25  H   UNL     1      25.912 -21.169 -16.426  0.00  0.00    +0.145 HD
ENDBRANCH  20  23
ENDBRANCH  19  20
ENDBRANCH  14  19
ENDBRANCH   1  13
BRANCH   2  26
ATOM     26  C   UNL     1      37.062 -23.631 -12.891  0.00  0.00    +0.093 C 
ATOM     27  C   UNL     1      37.150 -23.562 -11.367  0.00  0.00    +0.026 C 
BRANCH  26  28
ATOM     28  C   UNL     1      37.865 -24.771 -13.478  0.00  0.00    -0.005 C 
ATOM     29  C   UNL     1      39.201 -24.574 -13.829  0.00  0.00    -0.003 C 
ATOM     30  C   UNL     1      37.271 -26.018 -13.668  0.00  0.00    -0.003 C 
ATOM     31  C   UNL     1      39.942 -25.624 -14.371  0.00  0.00    -0.000 C 
ATOM     32  C   UNL     1      38.012 -27.068 -14.210  0.00  0.00    -0.000 C 
ATOM     33  C   UNL     1      39.348 -26.872 -14.561  0.00  0.00    -0.000 C 
ENDBRANCH  26  28
ENDBRANCH   2  26
TORSDOF 6
ENDMDL
MODEL 6
REMARK VINA RESULT:     -10.5      2.348      7.544
REMARK  Name = 24941249
REMARK  6 active torsions:
REMARK  status: ('A' for Active; 'I' for Inactive)
REMARK    1  A    between atoms: N_1  and  C_13
REMARK    2  A    between atoms: N_2  and  C_26
REMARK    3  A    between atoms: C_14  and  C_19
REMARK    4  A    between atoms: C_19  and  C_20
REMARK    5  A    between atoms: C_20  and  C_23
REMARK    6  A    between atoms: C_26  and  C_28
REMARK                            x       y       z     vdW  Elec       q    Type
REMARK                         _______ _______ _______ _____ _____    ______ ____
ROOT
ATOM      1  N   UNL     1      32.811 -22.699 -17.616  0.00  0.00    -0.230 N 
ATOM      2  N   UNL     1      36.737 -24.617 -15.429  0.00  0.00    -0.316 N 
ATOM      3  N   UNL     1      31.493 -22.738 -17.354  0.00  0.00    -0.169 NA
ATOM      4  N   UNL     1      34.512 -24.919 -14.642  0.00  0.00    -0.229 NA
ATOM      5  C   UNL     1      33.580 -23.393 -16.723  0.00  0.00    +0.088 A 
ATOM      6  C   UNL     1      32.684 -23.927 -15.804  0.00  0.00    +0.052 A 
ATOM      7  C   UNL     1      31.420 -23.486 -16.250  0.00  0.00    +0.082 A 
ATOM      8  C   UNL     1      34.953 -23.596 -16.641  0.00  0.00    +0.053 C 
ATOM      9  C   UNL     1      35.344 -24.376 -15.564  0.00  0.00    +0.130 C 
ATOM     10  C   UNL     1      33.178 -24.700 -14.754  0.00  0.00    +0.103 C 
ATOM     11  C   UNL     1      30.106 -23.761 -15.644  0.00  0.00    +0.054 C 
ATOM     12  H   UNL     1      37.350 -24.228 -16.093  0.00  0.00    +0.148 HD
ENDROOT
BRANCH   1  13
ATOM     13  C   UNL     1      33.271 -21.987 -18.724  0.00  0.00    +0.082 C 
ATOM     14  C   UNL     1      35.099 -21.207 -20.098  0.00  0.00    -0.020 C 
ATOM     15  C   UNL     1      34.639 -21.919 -18.990  0.00  0.00    +0.015 C 
ATOM     16  C   UNL     1      32.364 -21.345 -19.566  0.00  0.00    +0.019 C 
ATOM     17  C   UNL     1      34.192 -20.565 -20.940  0.00  0.00    -0.004 C 
ATOM     18  C   UNL     1      32.824 -20.634 -20.675  0.00  0.00    +0.001 C 
BRANCH  14  19
ATOM     19  C   UNL     1      36.561 -21.132 -20.382  0.00  0.00    +0.036 C 
BRANCH  19  20
ATOM     20  C   UNL     1      37.125 -19.724 -20.159  0.00  0.00    +0.089 C 
BRANCH  20  23
ATOM     21  O   UNL     1      38.611 -18.862 -21.872  0.00  0.00    -0.275 OA
ATOM     22  N   UNL     1      36.344 -18.560 -22.115  0.00  0.00    -0.329 N 
ATOM     23  C   UNL     1      37.467 -19.015 -21.456  0.00  0.00    +0.220 C 
ATOM     24  H   UNL     1      36.437 -18.083 -22.970  0.00  0.00    +0.145 HD
ATOM     25  H   UNL     1      35.452 -18.713 -21.729  0.00  0.00    +0.145 HD
ENDBRANCH  20  23
ENDBRANCH  19  20
ENDBRANCH  14  19
ENDBRANCH   1  13
BRANCH   2  26
ATOM     26  C   UNL     1      37.282 -25.399 -14.369  0.00  0.00    +0.093 C 
ATOM     27  C   UNL     1      38.753 -25.693 -14.660  0.00  0.00    +0.026 C 
BRANCH  26  28
ATOM     28  C   UNL     1      37.069 -24.703 -13.043  0.00  0.00    -0.005 C 
ATOM     29  C   UNL     1      37.632 -23.447 -12.816  0.00  0.00    -0.003 C 
ATOM     30  C   UNL     1      36.309 -25.316 -12.047  0.00  0.00    -0.003 C 
ATOM     31  C   UNL     1      37.437 -22.805 -11.593  0.00  0.00    -0.000 C 
ATOM     32  C   UNL     1      36.114 -24.674 -10.824  0.00  0.00    -0.000 C 
ATOM     33  C   UNL     1      36.677 -23.419 -10.597  0.00  0.00    -0.000 C 
ENDBRANCH  26  28
ENDBRANCH   2  26
TORSDOF 6
ENDMDL
MODEL 7
REMARK VINA RESULT:     -10.5      2.035      2.815
REMARK  Name = 24941249
REMARK  6 active torsions:
REMARK  status: ('A' for Active; 'I' for Inactive)
REMARK    1  A    between atoms: N_1  and  C_13
REMARK    2  A    between atoms: N_2  and  C_26
REMARK    3  A    between atoms: C_14  and  C_19
REMARK    4  A    between atoms: C_19  and  C_20
REMARK    5  A    between atoms: C_20  and  C_23
REMARK    6  A    between atoms: C_26  and  C_28
REMARK                            x       y       z     vdW  Elec       q    Type
REMARK                         _______ _______ _______ _____ _____    ______ ____
ROOT
ATOM      1  N   UNL     1      34.171 -24.540 -15.112  0.00  0.00    -0.230 N 
ATOM      2  N   UNL     1      34.637 -22.166 -19.358  0.00  0.00    -0.316 N 
ATOM      3  N   UNL     1      33.124 -24.816 -14.315  0.00  0.00    -0.169 NA
ATOM      4  N   UNL     1      32.561 -22.451 -18.229  0.00  0.00    -0.229 NA
ATOM      5  C   UNL     1      33.847 -23.832 -16.237  0.00  0.00    +0.088 A 
ATOM      6  C   UNL     1      32.474 -23.633 -16.162  0.00  0.00    +0.052 A 
ATOM      7  C   UNL     1      32.093 -24.262 -14.958  0.00  0.00    +0.082 A 
ATOM      8  C   UNL     1      34.620 -23.359 -17.291  0.00  0.00    +0.053 C 
ATOM      9  C   UNL     1      33.898 -22.673 -18.255  0.00  0.00    +0.130 C 
ATOM     10  C   UNL     1      31.839 -22.929 -17.185  0.00  0.00    +0.103 C 
ATOM     11  C   UNL     1      30.741 -24.358 -14.380  0.00  0.00    +0.054 C 
ATOM     12  H   UNL     1      35.608 -22.319 -19.386  0.00  0.00    +0.148 HD
ENDROOT
BRANCH   1  13
ATOM     13  C   UNL     1      35.446 -24.977 -14.750  0.00  0.00    +0.082 C 
ATOM     14  C   UNL     1      37.447 -24.718 -13.421  0.00  0.00    -0.020 C 
ATOM     15  C   UNL     1      36.172 -24.281 -13.783  0.00  0.00    +0.015 C 
ATOM     16  C   UNL     1      35.992 -26.109 -15.353  0.00  0.00    +0.019 C 
ATOM     17  C   UNL     1      37.994 -25.850 -14.024  0.00  0.00    -0.004 C 
ATOM     18  C   UNL     1      37.267 -26.546 -14.990  0.00  0.00    +0.001 C 
BRANCH  14  19
ATOM     19  C   UNL     1      38.225 -23.974 -12.389  0.00  0.00    +0.036 C 
BRANCH  19  20
ATOM     20  C   UNL     1      37.339 -23.040 -11.555  0.00  0.00    +0.089 C 
BRANCH  20  23
ATOM     21  O   UNL     1      36.563 -24.409  -9.708  0.00  0.00    -0.275 OA
ATOM     22  N   UNL     1      35.040 -23.692 -11.275  0.00  0.00    -0.329 N 
ATOM     23  C   UNL     1      36.305 -23.788 -10.735  0.00  0.00    +0.220 C 
ATOM     24  H   UNL     1      34.282 -24.136 -10.832  0.00  0.00    +0.145 HD
ATOM     25  H   UNL     1      34.896 -23.180 -12.103  0.00  0.00    +0.145 HD
ENDBRANCH  20  23
ENDBRANCH  19  20
ENDBRANCH  14  19
ENDBRANCH   1  13
BRANCH   2  26
ATOM     26  C   UNL     1      34.026 -21.443 -20.423  0.00  0.00    +0.093 C 
ATOM     27  C   UNL     1      32.716 -20.827 -19.933  0.00  0.00    +0.026 C 
BRANCH  26  28
ATOM     28  C   UNL     1      34.990 -20.417 -20.979  0.00  0.00    -0.005 C 
ATOM     29  C   UNL     1      34.595 -19.585 -22.027  0.00  0.00    -0.003 C 
ATOM     30  C   UNL     1      36.272 -20.303 -20.443  0.00  0.00    -0.003 C 
ATOM     31  C   UNL     1      35.484 -18.640 -22.539  0.00  0.00    -0.000 C 
ATOM     32  C   UNL     1      37.161 -19.358 -20.956  0.00  0.00    -0.000 C 
ATOM     33  C   UNL     1      36.766 -18.526 -22.004  0.00  0.00    -0.000 C 
ENDBRANCH  26  28
ENDBRANCH   2  26
TORSDOF 6
ENDMDL
MODEL 8
REMARK VINA RESULT:      -9.8     11.907     17.003
REMARK  Name = 24941249
REMARK  6 active torsions:
REMARK  status: ('A' for Active; 'I' for Inactive)
REMARK    1  A    between atoms: N_1  and  C_13
REMARK    2  A    between atoms: N_2  and  C_26
REMARK    3  A    between atoms: C_14  and  C_19
REMARK    4  A    between atoms: C_19  and  C_20
REMARK    5  A    between atoms: C_20  and  C_23
REMARK    6  A    between atoms: C_26  and  C_28
REMARK                            x       y       z     vdW  Elec       q    Type
REMARK                         _______ _______ _______ _____ _____    ______ ____
ROOT
ATOM      1  N   UNL     1      32.620  -9.014 -22.168  0.00  0.00    -0.230 N 
ATOM      2  N   UNL     1      33.301 -13.135 -24.704  0.00  0.00    -0.316 N 
ATOM      3  N   UNL     1      32.039  -8.738 -20.988  0.00  0.00    -0.169 NA
ATOM      4  N   UNL     1      32.198 -13.052 -22.597  0.00  0.00    -0.229 NA
ATOM      5  C   UNL     1      32.589 -10.338 -22.511  0.00  0.00    +0.088 A 
ATOM      6  C   UNL     1      31.933 -10.973 -21.465  0.00  0.00    +0.052 A 
ATOM      7  C   UNL     1      31.622  -9.933 -20.563  0.00  0.00    +0.082 A 
ATOM      8  C   UNL     1      33.068 -11.020 -23.624  0.00  0.00    +0.053 C 
ATOM      9  C   UNL     1      32.832 -12.386 -23.593  0.00  0.00    +0.130 C 
ATOM     10  C   UNL     1      31.744 -12.353 -21.527  0.00  0.00    +0.103 C 
ATOM     11  C   UNL     1      30.922 -10.041 -19.272  0.00  0.00    +0.054 C 
ATOM     12  H   UNL     1      33.762 -12.661 -25.433  0.00  0.00    +0.148 HD
ENDROOT
BRANCH   1  13
ATOM     13  C   UNL     1      33.184  -7.980 -22.916  0.00  0.00    +0.082 C 
ATOM     14  C   UNL     1      32.966  -5.856 -24.047  0.00  0.00    -0.020 C 
ATOM     15  C   UNL     1      32.402  -6.890 -23.299  0.00  0.00    +0.015 C 
ATOM     16  C   UNL     1      34.529  -8.036 -23.280  0.00  0.00    +0.019 C 
ATOM     17  C   UNL     1      34.311  -5.912 -24.411  0.00  0.00    -0.004 C 
ATOM     18  C   UNL     1      35.093  -7.002 -24.028  0.00  0.00    +0.001 C 
BRANCH  14  19
ATOM     19  C   UNL     1      32.131  -4.691 -24.457  0.00  0.00    +0.036 C 
BRANCH  19  20
ATOM     20  C   UNL     1      31.149  -4.265 -23.359  0.00  0.00    +0.089 C 
BRANCH  20  23
ATOM     21  O   UNL     1      31.909  -1.982 -23.670  0.00  0.00    -0.275 OA
ATOM     22  N   UNL     1      30.117  -2.377 -22.283  0.00  0.00    -0.329 N 
ATOM     23  C   UNL     1      31.124  -2.764 -23.142  0.00  0.00    +0.220 C 
ATOM     24  H   UNL     1      29.999  -1.425 -22.063  0.00  0.00    +0.145 HD
ATOM     25  H   UNL     1      29.519  -3.052 -21.890  0.00  0.00    +0.145 HD
ENDBRANCH  20  23
ENDBRANCH  19  20
ENDBRANCH  14  19
ENDBRANCH   1  13
BRANCH   2  26
ATOM     26  C   UNL     1      33.129 -14.546 -24.806  0.00  0.00    +0.093 C 
ATOM     27  C   UNL     1      33.411 -14.990 -26.240  0.00  0.00    +0.026 C 
BRANCH  26  28
ATOM     28  C   UNL     1      33.997 -15.253 -23.787  0.00  0.00    -0.005 C 
ATOM     29  C   UNL     1      34.586 -16.478 -24.102  0.00  0.00    -0.003 C 
ATOM     30  C   UNL     1      34.210 -14.679 -22.534  0.00  0.00    -0.003 C 
ATOM     31  C   UNL     1      35.385 -17.129 -23.163  0.00  0.00    -0.000 C 
ATOM     32  C   UNL     1      35.010 -15.330 -21.595  0.00  0.00    -0.000 C 
ATOM     33  C   UNL     1      35.598 -16.555 -21.910  0.00  0.00    -0.000 C 
ENDBRANCH  26  28
ENDBRANCH   2  26
TORSDOF 6
ENDMDL
