MODEL 1
REMARK VINA RESULT:     -12.2      0.000      0.000
REMARK  Name = 23658582
REMARK  4 active torsions:
REMARK  status: ('A' for Active; 'I' for Inactive)
REMARK    1  A    between atoms: N_3  and  C_13
REMARK    2  A    between atoms: C_8  and  C_25
REMARK    3  A    between atoms: C_15  and  C_22
REMARK    4  A    between atoms: N_24  and  C_29
REMARK                            x       y       z     vdW  Elec       q    Type
REMARK                         _______ _______ _______ _____ _____    ______ ____
ROOT
ATOM      1 CL   UNL     1      32.211 -24.619 -14.918  0.00  0.00    -0.082 Cl
ATOM      2  O   UNL     1      35.867 -22.526 -17.925  0.00  0.00    -0.352 OA
ATOM      3  N   UNL     1      34.065 -20.806 -20.372  0.00  0.00    -0.295 N 
ATOM      4  N   UNL     1      35.848 -21.729 -19.063  0.00  0.00    -0.062 NA
ATOM      5  C   UNL     1      33.708 -22.178 -18.411  0.00  0.00    +0.072 A 
ATOM      6  C   UNL     1      34.589 -22.792 -17.538  0.00  0.00    +0.183 A 
ATOM      7  C   UNL     1      34.554 -21.534 -19.336  0.00  0.00    +0.174 A 
ATOM      8  C   UNL     1      34.201 -23.558 -16.442  0.00  0.00    +0.101 C 
ATOM      9  C   UNL     1      32.329 -22.321 -18.201  0.00  0.00    +0.007 C 
ATOM     10  C   UNL     1      32.823 -23.692 -16.245  0.00  0.00    +0.065 C 
ATOM     11  C   UNL     1      31.903 -23.086 -17.106  0.00  0.00    +0.012 C 
ATOM     12  H   UNL     1      33.086 -20.851 -20.463  0.00  0.00    +0.154 HD
ENDROOT
BRANCH   3  13
ATOM     13  C   UNL     1      34.696 -19.992 -21.354  0.00  0.00    +0.049 C 
ATOM     14  C   UNL     1      34.146 -19.887 -22.631  0.00  0.00    +0.018 C 
ATOM     15  C   UNL     1      34.764 -19.088 -23.594  0.00  0.00    +0.073 C 
ATOM     16  C   UNL     1      35.864 -19.298 -21.039  0.00  0.00    +0.015 C 
ATOM     17  C   UNL     1      35.932 -18.395 -23.279  0.00  0.00    +0.004 C 
ATOM     18  C   UNL     1      36.482 -18.500 -22.001  0.00  0.00    +0.001 C 
BRANCH  15  22
ATOM     19  F   UNL     1      34.466 -20.039 -25.769  0.00  0.00    -0.166 F 
ATOM     20  F   UNL     1      32.814 -18.888 -24.965  0.00  0.00    -0.166 F 
ATOM     21  F   UNL     1      34.618 -17.875 -25.633  0.00  0.00    -0.166 F 
ATOM     22  C   UNL     1      34.177 -18.977 -24.960  0.00  0.00    +0.419 C 
ENDBRANCH  15  22
ENDBRANCH   3  13
BRANCH   8  25
ATOM     23  O   UNL     1      35.509 -25.357 -15.710  0.00  0.00    -0.270 OA
ATOM     24  N   UNL     1      35.723 -23.321 -14.593  0.00  0.00    -0.278 N 
ATOM     25  C   UNL     1      35.198 -24.167 -15.578  0.00  0.00    +0.253 C 
ATOM     26  H   UNL     1      35.389 -22.395 -14.600  0.00  0.00    +0.155 HD
BRANCH  24  29
ATOM     27  N   UNL     1      38.835 -24.478 -12.953  0.00  0.00    -0.221 NA
ATOM     28  N   UNL     1      37.311 -23.678 -11.267  0.00  0.00    -0.221 NA
ATOM     29  C   UNL     1      36.674 -23.627 -13.587  0.00  0.00    +0.089 C 
ATOM     30  C   UNL     1      37.906 -24.174 -13.883  0.00  0.00    +0.117 C 
ATOM     31  C   UNL     1      36.429 -23.399 -12.249  0.00  0.00    +0.117 C 
ATOM     32  C   UNL     1      38.477 -24.208 -11.684  0.00  0.00    +0.199 C 
ENDBRANCH  24  29
ENDBRANCH   8  25
TORSDOF 4
ENDMDL
MODEL 2
REMARK VINA RESULT:     -11.7      7.191     11.532
REMARK  Name = 23658582
REMARK  4 active torsions:
REMARK  status: ('A' for Active; 'I' for Inactive)
REMARK    1  A    between atoms: N_3  and  C_13
REMARK    2  A    between atoms: C_8  and  C_25
REMARK    3  A    between atoms: C_15  and  C_22
REMARK    4  A    between atoms: N_24  and  C_29
REMARK                            x       y       z     vdW  Elec       q    Type
REMARK                         _______ _______ _______ _____ _____    ______ ____
ROOT
ATOM      1 CL   UNL     1      32.846 -13.035 -26.909  0.00  0.00    -0.082 Cl
ATOM      2  O   UNL     1      34.605 -14.775 -22.363  0.00  0.00    -0.352 OA
ATOM      3  N   UNL     1      34.990 -18.209 -22.864  0.00  0.00    -0.295 N 
ATOM      4  N   UNL     1      34.964 -16.026 -21.876  0.00  0.00    -0.062 NA
ATOM      5  C   UNL     1      34.287 -16.218 -24.046  0.00  0.00    +0.072 A 
ATOM      6  C   UNL     1      34.203 -14.892 -23.658  0.00  0.00    +0.183 A 
ATOM      7  C   UNL     1      34.766 -16.870 -22.893  0.00  0.00    +0.174 A 
ATOM      8  C   UNL     1      33.769 -13.859 -24.484  0.00  0.00    +0.101 C 
ATOM      9  C   UNL     1      33.918 -16.570 -25.352  0.00  0.00    +0.007 C 
ATOM     10  C   UNL     1      33.403 -14.225 -25.783  0.00  0.00    +0.065 C 
ATOM     11  C   UNL     1      33.475 -15.555 -26.211  0.00  0.00    +0.012 C 
ATOM     12  H   UNL     1      34.702 -18.678 -23.681  0.00  0.00    +0.154 HD
ENDROOT
BRANCH   3  13
ATOM     13  C   UNL     1      35.559 -19.065 -21.880  0.00  0.00    +0.049 C 
ATOM     14  C   UNL     1      34.759 -19.996 -21.219  0.00  0.00    +0.018 C 
ATOM     15  C   UNL     1      35.317 -20.836 -20.255  0.00  0.00    +0.073 C 
ATOM     16  C   UNL     1      36.918 -18.975 -21.579  0.00  0.00    +0.015 C 
ATOM     17  C   UNL     1      36.675 -20.746 -19.953  0.00  0.00    +0.004 C 
ATOM     18  C   UNL     1      37.476 -19.814 -20.616  0.00  0.00    +0.001 C 
BRANCH  15  22
ATOM     19  F   UNL     1      34.471 -23.070 -20.120  0.00  0.00    -0.166 F 
ATOM     20  F   UNL     1      34.826 -22.039 -18.246  0.00  0.00    -0.166 F 
ATOM     21  F   UNL     1      33.149 -21.458 -19.502  0.00  0.00    -0.166 F 
ATOM     22  C   UNL     1      34.461 -21.831 -19.546  0.00  0.00    +0.419 C 
ENDBRANCH  15  22
ENDBRANCH   3  13
BRANCH   8  25
ATOM     23  O   UNL     1      34.540 -11.651 -24.359  0.00  0.00    -0.270 OA
ATOM     24  N   UNL     1      32.694 -12.243 -23.061  0.00  0.00    -0.278 N 
ATOM     25  C   UNL     1      33.712 -12.494 -23.990  0.00  0.00    +0.253 C 
ATOM     26  H   UNL     1      32.103 -13.003 -22.856  0.00  0.00    +0.155 HD
BRANCH  24  29
ATOM     27  N   UNL     1      31.572  -9.887 -20.433  0.00  0.00    -0.221 NA
ATOM     28  N   UNL     1      32.393  -8.628 -22.316  0.00  0.00    -0.221 NA
ATOM     29  C   UNL     1      32.406 -11.034 -22.378  0.00  0.00    +0.089 C 
ATOM     30  C   UNL     1      31.858 -11.018 -21.112  0.00  0.00    +0.117 C 
ATOM     31  C   UNL     1      32.654  -9.797 -22.937  0.00  0.00    +0.117 C 
ATOM     32  C   UNL     1      31.860  -8.745 -21.085  0.00  0.00    +0.199 C 
ENDBRANCH  24  29
ENDBRANCH   8  25
TORSDOF 4
ENDMDL
MODEL 3
REMARK VINA RESULT:     -10.8      5.100      9.766
REMARK  Name = 23658582
REMARK  4 active torsions:
REMARK  status: ('A' for Active; 'I' for Inactive)
REMARK    1  A    between atoms: N_3  and  C_13
REMARK    2  A    between atoms: C_8  and  C_25
REMARK    3  A    between atoms: C_15  and  C_22
REMARK    4  A    between atoms: N_24  and  C_29
REMARK                            x       y       z     vdW  Elec       q    Type
REMARK                         _______ _______ _______ _____ _____    ______ ____
ROOT
ATOM      1 CL   UNL     1      37.316 -19.975 -21.246  0.00  0.00    -0.082 Cl
ATOM      2  O   UNL     1      32.789 -21.628 -19.359  0.00  0.00    -0.352 OA
ATOM      3  N   UNL     1      33.681 -23.535 -16.573  0.00  0.00    -0.295 N 
ATOM      4  N   UNL     1      32.419 -22.419 -18.277  0.00  0.00    -0.062 NA
ATOM      5  C   UNL     1      34.691 -22.219 -18.334  0.00  0.00    +0.072 A 
ATOM      6  C   UNL     1      34.144 -21.510 -19.390  0.00  0.00    +0.183 A 
ATOM      7  C   UNL     1      33.566 -22.760 -17.682  0.00  0.00    +0.174 A 
ATOM      8  C   UNL     1      34.889 -20.797 -20.325  0.00  0.00    +0.101 C 
ATOM      9  C   UNL     1      36.084 -22.235 -18.173  0.00  0.00    +0.007 C 
ATOM     10  C   UNL     1      36.277 -20.822 -20.152  0.00  0.00    +0.065 C 
ATOM     11  C   UNL     1      36.865 -21.527 -19.097  0.00  0.00    +0.012 C 
ATOM     12  H   UNL     1      34.611 -23.751 -16.333  0.00  0.00    +0.154 HD
ENDROOT
BRANCH   3  13
ATOM     13  C   UNL     1      32.715 -24.097 -15.691  0.00  0.00    +0.049 C 
ATOM     14  C   UNL     1      31.364 -24.083 -16.036  0.00  0.00    +0.018 C 
ATOM     15  C   UNL     1      30.418 -24.634 -15.172  0.00  0.00    +0.073 C 
ATOM     16  C   UNL     1      33.121 -24.665 -14.484  0.00  0.00    +0.015 C 
ATOM     17  C   UNL     1      30.823 -25.201 -13.964  0.00  0.00    +0.004 C 
ATOM     18  C   UNL     1      32.176 -25.216 -13.620  0.00  0.00    +0.001 C 
BRANCH  15  22
ATOM     19  F   UNL     1      28.371 -23.408 -15.339  0.00  0.00    -0.166 F 
ATOM     20  F   UNL     1      28.737 -24.918 -16.850  0.00  0.00    -0.166 F 
ATOM     21  F   UNL     1      28.237 -25.515 -14.819  0.00  0.00    -0.166 F 
ATOM     22  C   UNL     1      28.972 -24.617 -15.539  0.00  0.00    +0.419 C 
ENDBRANCH  15  22
ENDBRANCH   3  13
BRANCH   8  25
ATOM     23  O   UNL     1      32.998 -20.118 -21.528  0.00  0.00    -0.270 OA
ATOM     24  N   UNL     1      35.089 -19.405 -22.278  0.00  0.00    -0.278 N 
ATOM     25  C   UNL     1      34.229 -20.081 -21.404  0.00  0.00    +0.253 C 
ATOM     26  H   UNL     1      36.048 -19.457 -22.063  0.00  0.00    +0.155 HD
BRANCH  24  29
ATOM     27  N   UNL     1      33.856 -18.556 -25.665  0.00  0.00    -0.221 NA
ATOM     28  N   UNL     1      34.668 -16.553 -24.602  0.00  0.00    -0.221 NA
ATOM     29  C   UNL     1      34.754 -18.655 -23.435  0.00  0.00    +0.089 C 
ATOM     30  C   UNL     1      34.188 -19.238 -24.550  0.00  0.00    +0.117 C 
ATOM     31  C   UNL     1      34.975 -17.296 -23.518  0.00  0.00    +0.117 C 
ATOM     32  C   UNL     1      34.121 -17.237 -25.625  0.00  0.00    +0.199 C 
ENDBRANCH  24  29
ENDBRANCH   8  25
TORSDOF 4
ENDMDL
MODEL 4
REMARK VINA RESULT:     -10.4      2.975      4.224
REMARK  Name = 23658582
REMARK  4 active torsions:
REMARK  status: ('A' for Active; 'I' for Inactive)
REMARK    1  A    between atoms: N_3  and  C_13
REMARK    2  A    between atoms: C_8  and  C_25
REMARK    3  A    between atoms: C_15  and  C_22
REMARK    4  A    between atoms: N_24  and  C_29
REMARK                            x       y       z     vdW  Elec       q    Type
REMARK                         _______ _______ _______ _____ _____    ______ ____
ROOT
ATOM      1 CL   UNL     1      36.063 -24.146 -15.678  0.00  0.00    -0.082 Cl
ATOM      2  O   UNL     1      33.416 -21.888 -19.509  0.00  0.00    -0.352 OA
ATOM      3  N   UNL     1      35.684 -19.615 -20.878  0.00  0.00    -0.295 N 
ATOM      4  N   UNL     1      33.712 -20.906 -20.446  0.00  0.00    -0.062 NA
ATOM      5  C   UNL     1      35.534 -21.272 -19.122  0.00  0.00    +0.072 A 
ATOM      6  C   UNL     1      34.504 -22.105 -18.722  0.00  0.00    +0.183 A 
ATOM      7  C   UNL     1      34.977 -20.553 -20.198  0.00  0.00    +0.174 A 
ATOM      8  C   UNL     1      34.594 -23.015 -17.671  0.00  0.00    +0.101 C 
ATOM      9  C   UNL     1      36.760 -21.328 -18.442  0.00  0.00    +0.007 C 
ATOM     10  C   UNL     1      35.822 -23.059 -17.002  0.00  0.00    +0.065 C 
ATOM     11  C   UNL     1      36.885 -22.232 -17.379  0.00  0.00    +0.012 C 
ATOM     12  H   UNL     1      36.571 -19.428 -20.494  0.00  0.00    +0.154 HD
ENDROOT
BRANCH   3  13
ATOM     13  C   UNL     1      35.390 -18.847 -22.040  0.00  0.00    +0.049 C 
ATOM     14  C   UNL     1      34.860 -19.469 -23.170  0.00  0.00    +0.018 C 
ATOM     15  C   UNL     1      34.570 -18.717 -24.309  0.00  0.00    +0.073 C 
ATOM     16  C   UNL     1      35.630 -17.473 -22.048  0.00  0.00    +0.015 C 
ATOM     17  C   UNL     1      34.811 -17.343 -24.318  0.00  0.00    +0.004 C 
ATOM     18  C   UNL     1      35.341 -16.722 -23.186  0.00  0.00    +0.001 C 
BRANCH  15  22
ATOM     19  F   UNL     1      34.394 -20.683 -25.661  0.00  0.00    -0.166 F 
ATOM     20  F   UNL     1      32.640 -19.414 -25.537  0.00  0.00    -0.166 F 
ATOM     21  F   UNL     1      34.372 -18.761 -26.678  0.00  0.00    -0.166 F 
ATOM     22  C   UNL     1      34.005 -19.381 -25.519  0.00  0.00    +0.419 C 
ENDBRANCH  15  22
ENDBRANCH   3  13
BRANCH   8  25
ATOM     23  O   UNL     1      33.212 -24.884 -17.954  0.00  0.00    -0.270 OA
ATOM     24  N   UNL     1      32.678 -23.372 -16.260  0.00  0.00    -0.278 N 
ATOM     25  C   UNL     1      33.459 -23.851 -17.319  0.00  0.00    +0.253 C 
ATOM     26  H   UNL     1      32.987 -22.537 -15.841  0.00  0.00    +0.155 HD
BRANCH  24  29
ATOM     27  N   UNL     1      29.103 -24.182 -15.731  0.00  0.00    -0.221 NA
ATOM     28  N   UNL     1      30.423 -25.352 -14.091  0.00  0.00    -0.221 NA
ATOM     29  C   UNL     1      31.497 -23.937 -15.713  0.00  0.00    +0.089 C 
ATOM     30  C   UNL     1      30.246 -23.662 -16.225  0.00  0.00    +0.117 C 
ATOM     31  C   UNL     1      31.526 -24.797 -14.635  0.00  0.00    +0.117 C 
ATOM     32  C   UNL     1      29.262 -25.007 -14.679  0.00  0.00    +0.199 C 
ENDBRANCH  24  29
ENDBRANCH   8  25
TORSDOF 4
ENDMDL
MODEL 5
REMARK VINA RESULT:     -10.3     10.852     15.203
REMARK  Name = 23658582
REMARK  4 active torsions:
REMARK  status: ('A' for Active; 'I' for Inactive)
REMARK    1  A    between atoms: N_3  and  C_13
REMARK    2  A    between atoms: C_8  and  C_25
REMARK    3  A    between atoms: C_15  and  C_22
REMARK    4  A    between atoms: N_24  and  C_29
REMARK                            x       y       z     vdW  Elec       q    Type
REMARK                         _______ _______ _______ _____ _____    ______ ____
ROOT
ATOM      1 CL   UNL     1      31.794  -6.787 -21.237  0.00  0.00    -0.082 Cl
ATOM      2  O   UNL     1      34.281 -10.087 -24.354  0.00  0.00    -0.352 OA
ATOM      3  N   UNL     1      33.160 -13.229 -23.324  0.00  0.00    -0.295 N 
ATOM      4  N   UNL     1      34.298 -11.470 -24.487  0.00  0.00    -0.062 NA
ATOM      5  C   UNL     1      32.872 -10.884 -22.805  0.00  0.00    +0.072 A 
ATOM      6  C   UNL     1      33.429  -9.740 -23.351  0.00  0.00    +0.183 A 
ATOM      7  C   UNL     1      33.454 -11.924 -23.555  0.00  0.00    +0.174 A 
ATOM      8  C   UNL     1      33.144  -8.447 -22.920  0.00  0.00    +0.101 C 
ATOM      9  C   UNL     1      31.959 -10.760 -21.748  0.00  0.00    +0.007 C 
ATOM     10  C   UNL     1      32.232  -8.339 -21.865  0.00  0.00    +0.065 C 
ATOM     11  C   UNL     1      31.650  -9.472 -21.289  0.00  0.00    +0.012 C 
ATOM     12  H   UNL     1      32.585 -13.374 -22.538  0.00  0.00    +0.154 HD
ENDROOT
BRANCH   3  13
ATOM     13  C   UNL     1      33.524 -14.429 -23.999  0.00  0.00    +0.049 C 
ATOM     14  C   UNL     1      34.208 -15.433 -23.315  0.00  0.00    +0.018 C 
ATOM     15  C   UNL     1      34.564 -16.609 -23.975  0.00  0.00    +0.073 C 
ATOM     16  C   UNL     1      33.194 -14.600 -25.343  0.00  0.00    +0.015 C 
ATOM     17  C   UNL     1      34.235 -16.780 -25.320  0.00  0.00    +0.004 C 
ATOM     18  C   UNL     1      33.550 -15.775 -26.004  0.00  0.00    +0.001 C 
BRANCH  15  22
ATOM     19  F   UNL     1      34.556 -18.286 -22.269  0.00  0.00    -0.166 F 
ATOM     20  F   UNL     1      35.718 -18.703 -24.051  0.00  0.00    -0.166 F 
ATOM     21  F   UNL     1      36.419 -17.222 -22.621  0.00  0.00    -0.166 F 
ATOM     22  C   UNL     1      35.297 -17.683 -23.245  0.00  0.00    +0.419 C 
ENDBRANCH  15  22
ENDBRANCH   3  13
BRANCH   8  25
ATOM     23  O   UNL     1      34.960  -7.021 -23.317  0.00  0.00    -0.270 OA
ATOM     24  N   UNL     1      32.943  -6.553 -24.391  0.00  0.00    -0.278 N 
ATOM     25  C   UNL     1      33.778  -7.302 -23.553  0.00  0.00    +0.253 C 
ATOM     26  H   UNL     1      32.023  -6.888 -24.492  0.00  0.00    +0.155 HD
BRANCH  24  29
ATOM     27  N   UNL     1      34.662  -4.192 -26.668  0.00  0.00    -0.221 NA
ATOM     28  N   UNL     1      32.759  -3.088 -25.686  0.00  0.00    -0.221 NA
ATOM     29  C   UNL     1      33.253  -5.373 -25.114  0.00  0.00    +0.089 C 
ATOM     30  C   UNL     1      34.337  -5.297 -25.965  0.00  0.00    +0.117 C 
ATOM     31  C   UNL     1      32.492  -4.227 -25.012  0.00  0.00    +0.117 C 
ATOM     32  C   UNL     1      33.843  -3.140 -26.484  0.00  0.00    +0.199 C 
ENDBRANCH  24  29
ENDBRANCH   8  25
TORSDOF 4
ENDMDL
MODEL 6
REMARK VINA RESULT:     -10.2      3.689      4.928
REMARK  Name = 23658582
REMARK  4 active torsions:
REMARK  status: ('A' for Active; 'I' for Inactive)
REMARK    1  A    between atoms: N_3  and  C_13
REMARK    2  A    between atoms: C_8  and  C_25
REMARK    3  A    between atoms: C_15  and  C_22
REMARK    4  A    between atoms: N_24  and  C_29
REMARK                            x       y       z     vdW  Elec       q    Type
REMARK                         _______ _______ _______ _____ _____    ______ ____
ROOT
ATOM      1 CL   UNL     1      36.207 -23.520 -16.538  0.00  0.00    -0.082 Cl
ATOM      2  O   UNL     1      33.168 -21.473 -20.192  0.00  0.00    -0.352 OA
ATOM      3  N   UNL     1      35.252 -19.224 -21.863  0.00  0.00    -0.295 N 
ATOM      4  N   UNL     1      33.356 -20.527 -21.193  0.00  0.00    -0.062 NA
ATOM      5  C   UNL     1      35.300 -20.807 -20.033  0.00  0.00    +0.072 A 
ATOM      6  C   UNL     1      34.329 -21.638 -19.503  0.00  0.00    +0.183 A 
ATOM      7  C   UNL     1      34.631 -20.143 -21.080  0.00  0.00    +0.174 A 
ATOM      8  C   UNL     1      34.536 -22.500 -18.428  0.00  0.00    +0.101 C 
ATOM      9  C   UNL     1      36.585 -20.813 -19.470  0.00  0.00    +0.007 C 
ATOM     10  C   UNL     1      35.821 -22.495 -17.877  0.00  0.00    +0.065 C 
ATOM     11  C   UNL     1      36.828 -21.669 -18.386  0.00  0.00    +0.012 C 
ATOM     12  H   UNL     1      36.167 -19.007 -21.571  0.00  0.00    +0.154 HD
ENDROOT
BRANCH   3  13
ATOM     13  C   UNL     1      34.835 -18.513 -23.023  0.00  0.00    +0.049 C 
ATOM     14  C   UNL     1      34.665 -17.130 -22.969  0.00  0.00    +0.018 C 
ATOM     15  C   UNL     1      34.257 -16.433 -24.106  0.00  0.00    +0.073 C 
ATOM     16  C   UNL     1      34.597 -19.199 -24.214  0.00  0.00    +0.015 C 
ATOM     17  C   UNL     1      34.018 -17.118 -25.297  0.00  0.00    +0.004 C 
ATOM     18  C   UNL     1      34.189 -18.503 -25.350  0.00  0.00    +0.001 C 
BRANCH  15  22
ATOM     19  F   UNL     1      34.180 -14.341 -25.265  0.00  0.00    -0.166 F 
ATOM     20  F   UNL     1      32.854 -14.572 -23.565  0.00  0.00    -0.166 F 
ATOM     21  F   UNL     1      34.993 -14.341 -23.249  0.00  0.00    -0.166 F 
ATOM     22  C   UNL     1      34.073 -14.954 -24.049  0.00  0.00    +0.419 C 
ENDBRANCH  15  22
ENDBRANCH   3  13
BRANCH   8  25
ATOM     23  O   UNL     1      33.333 -24.507 -18.325  0.00  0.00    -0.270 OA
ATOM     24  N   UNL     1      32.576 -22.708 -17.047  0.00  0.00    -0.278 N 
ATOM     25  C   UNL     1      33.455 -23.338 -17.937  0.00  0.00    +0.253 C 
ATOM     26  H   UNL     1      32.789 -21.774 -16.821  0.00  0.00    +0.155 HD
BRANCH  24  29
ATOM     27  N   UNL     1      30.409 -24.670 -14.774  0.00  0.00    -0.221 NA
ATOM     28  N   UNL     1      29.020 -23.394 -16.273  0.00  0.00    -0.221 NA
ATOM     29  C   UNL     1      31.417 -23.244 -16.430  0.00  0.00    +0.089 C 
ATOM     30  C   UNL     1      31.490 -24.141 -15.384  0.00  0.00    +0.117 C 
ATOM     31  C   UNL     1      30.143 -22.903 -16.837  0.00  0.00    +0.117 C 
ATOM     32  C   UNL     1      29.223 -24.260 -15.262  0.00  0.00    +0.199 C 
ENDBRANCH  24  29
ENDBRANCH   8  25
TORSDOF 4
ENDMDL
MODEL 7
REMARK VINA RESULT:     -10.2      5.006      9.585
REMARK  Name = 23658582
REMARK  4 active torsions:
REMARK  status: ('A' for Active; 'I' for Inactive)
REMARK    1  A    between atoms: N_3  and  C_13
REMARK    2  A    between atoms: C_8  and  C_25
REMARK    3  A    between atoms: C_15  and  C_22
REMARK    4  A    between atoms: N_24  and  C_29
REMARK                            x       y       z     vdW  Elec       q    Type
REMARK                         _______ _______ _______ _____ _____    ______ ____
ROOT
ATOM      1 CL   UNL     1      32.337 -21.257 -20.547  0.00  0.00    -0.082 Cl
ATOM      2  O   UNL     1      36.795 -21.967 -18.015  0.00  0.00    -0.352 OA
ATOM      3  N   UNL     1      35.929 -24.044 -15.346  0.00  0.00    -0.295 N 
ATOM      4  N   UNL     1      37.163 -22.676 -16.878  0.00  0.00    -0.062 NA
ATOM      5  C   UNL     1      34.929 -22.945 -17.255  0.00  0.00    +0.072 A 
ATOM      6  C   UNL     1      35.463 -22.130 -18.238  0.00  0.00    +0.183 A 
ATOM      7  C   UNL     1      36.038 -23.250 -16.441  0.00  0.00    +0.174 A 
ATOM      8  C   UNL     1      34.727 -21.574 -19.282  0.00  0.00    +0.101 C 
ATOM      9  C   UNL     1      33.560 -23.248 -17.289  0.00  0.00    +0.007 C 
ATOM     10  C   UNL     1      33.363 -21.885 -19.303  0.00  0.00    +0.065 C 
ATOM     11  C   UNL     1      32.789 -22.705 -18.326  0.00  0.00    +0.012 C 
ATOM     12  H   UNL     1      35.004 -24.301 -15.131  0.00  0.00    +0.154 HD
ENDROOT
BRANCH   3  13
ATOM     13  C   UNL     1      36.896 -24.574 -14.446  0.00  0.00    +0.049 C 
ATOM     14  C   UNL     1      38.161 -24.929 -14.912  0.00  0.00    +0.018 C 
ATOM     15  C   UNL     1      39.109 -25.449 -14.029  0.00  0.00    +0.073 C 
ATOM     16  C   UNL     1      36.578 -24.738 -13.097  0.00  0.00    +0.015 C 
ATOM     17  C   UNL     1      38.791 -25.613 -12.681  0.00  0.00    +0.004 C 
ATOM     18  C   UNL     1      37.524 -25.257 -12.216  0.00  0.00    +0.001 C 
BRANCH  15  22
ATOM     19  F   UNL     1      41.069 -26.797 -13.777  0.00  0.00    -0.166 F 
ATOM     20  F   UNL     1      40.458 -26.321 -15.802  0.00  0.00    -0.166 F 
ATOM     21  F   UNL     1      41.332 -24.779 -14.542  0.00  0.00    -0.166 F 
ATOM     22  C   UNL     1      40.462 -25.830 -14.527  0.00  0.00    +0.419 C 
ENDBRANCH  15  22
ENDBRANCH   3  13
BRANCH   8  25
ATOM     23  O   UNL     1      36.595 -20.780 -20.449  0.00  0.00    -0.270 OA
ATOM     24  N   UNL     1      34.514 -19.851 -20.948  0.00  0.00    -0.278 N 
ATOM     25  C   UNL     1      35.372 -20.728 -20.271  0.00  0.00    +0.253 C 
ATOM     26  H   UNL     1      33.561 -19.913 -20.710  0.00  0.00    +0.155 HD
BRANCH  24  29
ATOM     27  N   UNL     1      34.913 -18.203 -24.240  0.00  0.00    -0.221 NA
ATOM     28  N   UNL     1      35.745 -16.733 -22.522  0.00  0.00    -0.221 NA
ATOM     29  C   UNL     1      34.844 -18.886 -21.933  0.00  0.00    +0.089 C 
ATOM     30  C   UNL     1      34.612 -19.098 -23.277  0.00  0.00    +0.117 C 
ATOM     31  C   UNL     1      35.419 -17.674 -21.611  0.00  0.00    +0.117 C 
ATOM     32  C   UNL     1      35.469 -17.059 -23.799  0.00  0.00    +0.199 C 
ENDBRANCH  24  29
ENDBRANCH   8  25
TORSDOF 4
ENDMDL
MODEL 8
REMARK VINA RESULT:     -10.1     11.222     14.490
REMARK  Name = 23658582
REMARK  4 active torsions:
REMARK  status: ('A' for Active; 'I' for Inactive)
REMARK    1  A    between atoms: N_3  and  C_13
REMARK    2  A    between atoms: C_8  and  C_25
REMARK    3  A    between atoms: C_15  and  C_22
REMARK    4  A    between atoms: N_24  and  C_29
REMARK                            x       y       z     vdW  Elec       q    Type
REMARK                         _______ _______ _______ _____ _____    ______ ____
ROOT
ATOM      1 CL   UNL     1      32.272 -13.793 -20.851  0.00  0.00    -0.082 Cl
ATOM      2  O   UNL     1      33.086  -9.826 -24.074  0.00  0.00    -0.352 OA
ATOM      3  N   UNL     1      31.400  -7.161 -22.575  0.00  0.00    -0.295 N 
ATOM      4  N   UNL     1      32.705  -8.490 -24.083  0.00  0.00    -0.062 NA
ATOM      5  C   UNL     1      31.866  -9.509 -22.222  0.00  0.00    +0.072 A 
ATOM      6  C   UNL     1      32.585 -10.431 -22.962  0.00  0.00    +0.183 A 
ATOM      7  C   UNL     1      31.979  -8.323 -22.974  0.00  0.00    +0.174 A 
ATOM      8  C   UNL     1      32.752 -11.766 -22.603  0.00  0.00    +0.101 C 
ATOM      9  C   UNL     1      31.257  -9.919 -21.027  0.00  0.00    +0.007 C 
ATOM     10  C   UNL     1      32.139 -12.161 -21.410  0.00  0.00    +0.065 C 
ATOM     11  C   UNL     1      31.405 -11.257 -20.635  0.00  0.00    +0.012 C 
ATOM     12  H   UNL     1      30.831  -7.253 -21.777  0.00  0.00    +0.154 HD
ENDROOT
BRANCH   3  13
ATOM     13  C   UNL     1      31.457  -5.835 -23.090  0.00  0.00    +0.049 C 
ATOM     14  C   UNL     1      32.082  -5.587 -24.311  0.00  0.00    +0.018 C 
ATOM     15  C   UNL     1      32.137  -4.288 -24.816  0.00  0.00    +0.073 C 
ATOM     16  C   UNL     1      30.885  -4.784 -22.373  0.00  0.00    +0.015 C 
ATOM     17  C   UNL     1      31.566  -3.237 -24.099  0.00  0.00    +0.004 C 
ATOM     18  C   UNL     1      30.939  -3.485 -22.877  0.00  0.00    +0.001 C 
BRANCH  15  22
ATOM     19  F   UNL     1      32.060  -3.262 -26.976  0.00  0.00    -0.166 F 
ATOM     20  F   UNL     1      33.994  -3.357 -26.001  0.00  0.00    -0.166 F 
ATOM     21  F   UNL     1      33.096  -5.166 -26.806  0.00  0.00    -0.166 F 
ATOM     22  C   UNL     1      32.807  -4.022 -26.121  0.00  0.00    +0.419 C 
ENDBRANCH  15  22
ENDBRANCH   3  13
BRANCH   8  25
ATOM     23  O   UNL     1      34.508 -12.255 -24.074  0.00  0.00    -0.270 OA
ATOM     24  N   UNL     1      33.046 -13.980 -23.500  0.00  0.00    -0.278 N 
ATOM     25  C   UNL     1      33.525 -12.665 -23.443  0.00  0.00    +0.253 C 
ATOM     26  H   UNL     1      32.255 -14.173 -22.947  0.00  0.00    +0.155 HD
BRANCH  24  29
ATOM     27  N   UNL     1      35.019 -16.970 -24.435  0.00  0.00    -0.221 NA
ATOM     28  N   UNL     1      33.588 -16.368 -26.277  0.00  0.00    -0.221 NA
ATOM     29  C   UNL     1      33.555 -15.069 -24.252  0.00  0.00    +0.089 C 
ATOM     30  C   UNL     1      34.513 -15.925 -23.748  0.00  0.00    +0.117 C 
ATOM     31  C   UNL     1      33.126 -15.341 -25.534  0.00  0.00    +0.117 C 
ATOM     32  C   UNL     1      34.520 -17.131 -25.675  0.00  0.00    +0.199 C 
ENDBRANCH  24  29
ENDBRANCH   8  25
TORSDOF 4
ENDMDL
MODEL 9
REMARK VINA RESULT:     -10.0     10.791     14.120
REMARK  Name = 23658582
REMARK  4 active torsions:
REMARK  status: ('A' for Active; 'I' for Inactive)
REMARK    1  A    between atoms: N_3  and  C_13
REMARK    2  A    between atoms: C_8  and  C_25
REMARK    3  A    between atoms: C_15  and  C_22
REMARK    4  A    between atoms: N_24  and  C_29
REMARK                            x       y       z     vdW  Elec       q    Type
REMARK                         _______ _______ _______ _____ _____    ______ ____
ROOT
ATOM      1 CL   UNL     1      31.786 -13.874 -20.351  0.00  0.00    -0.082 Cl
ATOM      2  O   UNL     1      33.987 -10.917 -23.983  0.00  0.00    -0.352 OA
ATOM      3  N   UNL     1      32.607  -7.755 -23.449  0.00  0.00    -0.295 N 
ATOM      4  N   UNL     1      33.889  -9.576 -24.333  0.00  0.00    -0.062 NA
ATOM      5  C   UNL     1      32.518 -10.004 -22.561  0.00  0.00    +0.072 A 
ATOM      6  C   UNL     1      33.169 -11.169 -22.926  0.00  0.00    +0.183 A 
ATOM      7  C   UNL     1      33.009  -9.051 -23.475  0.00  0.00    +0.174 A 
ATOM      8  C   UNL     1      32.994 -12.397 -22.292  0.00  0.00    +0.101 C 
ATOM      9  C   UNL     1      31.617 -10.034 -21.486  0.00  0.00    +0.007 C 
ATOM     10  C   UNL     1      32.093 -12.411 -21.222  0.00  0.00    +0.065 C 
ATOM     11  C   UNL     1      31.417 -11.253 -20.825  0.00  0.00    +0.012 C 
ATOM     12  H   UNL     1      31.886  -7.575 -22.803  0.00  0.00    +0.154 HD
ENDROOT
BRANCH   3  13
ATOM     13  C   UNL     1      33.025  -6.606 -24.177  0.00  0.00    +0.049 C 
ATOM     14  C   UNL     1      32.206  -5.478 -24.231  0.00  0.00    +0.018 C 
ATOM     15  C   UNL     1      32.617  -4.352 -24.945  0.00  0.00    +0.073 C 
ATOM     16  C   UNL     1      34.255  -6.606 -24.835  0.00  0.00    +0.015 C 
ATOM     17  C   UNL     1      33.846  -4.353 -25.602  0.00  0.00    +0.004 C 
ATOM     18  C   UNL     1      34.666  -5.481 -25.547  0.00  0.00    +0.001 C 
BRANCH  15  22
ATOM     19  F   UNL     1      32.246  -2.068 -24.336  0.00  0.00    -0.166 F 
ATOM     20  F   UNL     1      31.511  -2.700 -26.275  0.00  0.00    -0.166 F 
ATOM     21  F   UNL     1      30.507  -3.367 -24.466  0.00  0.00    -0.166 F 
ATOM     22  C   UNL     1      31.741  -3.146 -25.005  0.00  0.00    +0.419 C 
ENDBRANCH  15  22
ENDBRANCH   3  13
BRANCH   8  25
ATOM     23  O   UNL     1      34.795 -13.892 -22.220  0.00  0.00    -0.270 OA
ATOM     24  N   UNL     1      33.133 -14.255 -23.816  0.00  0.00    -0.278 N 
ATOM     25  C   UNL     1      33.721 -13.571 -22.744  0.00  0.00    +0.253 C 
ATOM     26  H   UNL     1      32.276 -13.893 -24.137  0.00  0.00    +0.155 HD
BRANCH  24  29
ATOM     27  N   UNL     1      33.620 -16.821 -26.440  0.00  0.00    -0.221 NA
ATOM     28  N   UNL     1      35.019 -17.355 -24.552  0.00  0.00    -0.221 NA
ATOM     29  C   UNL     1      33.614 -15.402 -24.496  0.00  0.00    +0.089 C 
ATOM     30  C   UNL     1      33.184 -15.738 -25.764  0.00  0.00    +0.117 C 
ATOM     31  C   UNL     1      34.540 -16.255 -23.933  0.00  0.00    +0.117 C 
ATOM     32  C   UNL     1      34.523 -17.575 -25.785  0.00  0.00    +0.199 C 
ENDBRANCH  24  29
ENDBRANCH   8  25
TORSDOF 4
ENDMDL
