MODEL 1
REMARK VINA RESULT:     -11.4      0.000      0.000
REMARK  Name = 10274777
REMARK  10 active torsions:
REMARK  status: ('A' for Active; 'I' for Inactive)
REMARK    1  A    between atoms: C_2  and  C_25
REMARK    2  A    between atoms: C_5  and  O_10
REMARK    3  A    between atoms: O_10  and  C_11
REMARK    4  A    between atoms: C_11  and  C_12
REMARK    5  A    between atoms: C_12  and  C_15
REMARK    6  A    between atoms: C_17  and  C_19
REMARK    7  A    between atoms: C_25  and  C_26
REMARK    8  A    between atoms: C_26  and  O_27
REMARK    9  A    between atoms: C_26  and  C_30
REMARK   10  A    between atoms: C_30  and  O_31
REMARK                            x       y       z     vdW  Elec       q    Type
REMARK                         _______ _______ _______ _____ _____    ______ ____
ROOT
ATOM      1  S   UNL     1      32.229 -24.354 -14.173  0.00  0.00    -0.087 S 
ATOM      2  C   UNL     1      35.015 -24.108 -13.920  0.00  0.00    -0.013 C 
ATOM      3  C   UNL     1      33.837 -24.001 -14.685  0.00  0.00    +0.029 C 
ATOM      4  C   UNL     1      33.865 -23.571 -16.015  0.00  0.00    +0.040 C 
ATOM      5  C   UNL     1      35.119 -23.241 -16.584  0.00  0.00    +0.139 C 
ATOM      6  C   UNL     1      36.235 -23.775 -14.510  0.00  0.00    -0.001 C 
ATOM      7  C   UNL     1      36.289 -23.346 -15.829  0.00  0.00    +0.037 C 
ATOM      8  C   UNL     1      32.546 -23.545 -16.580  0.00  0.00    +0.010 C 
ATOM      9  C   UNL     1      31.575 -23.944 -15.693  0.00  0.00    +0.036 C 
ENDROOT
BRANCH   5  10
ATOM     10  O   UNL     1      35.213 -22.813 -17.885  0.00  0.00    -0.475 OA
BRANCH  10  11
ATOM     11  C   UNL     1      36.217 -21.846 -18.167  0.00  0.00    +0.213 C 
BRANCH  11  12
ATOM     12  C   UNL     1      36.528 -21.847 -19.661  0.00  0.00    +0.105 C 
BRANCH  12  15
ATOM     13  O   UNL     1      33.869 -19.950 -21.291  0.00  0.00    -0.449 OA
ATOM     14  N   UNL     1      36.128 -20.067 -21.329  0.00  0.00    -0.373 NA
ATOM     15  C   UNL     1      35.610 -20.957 -20.448  0.00  0.00    +0.134 C 
ATOM     16  C   UNL     1      34.259 -20.909 -20.404  0.00  0.00    +0.216 C 
ATOM     17  C   UNL     1      35.045 -19.493 -21.804  0.00  0.00    +0.277 C 
ATOM     18  C   UNL     1      33.200 -21.609 -19.670  0.00  0.00    +0.055 C 
BRANCH  17  19
ATOM     19  C   UNL     1      34.920 -18.452 -22.786  0.00  0.00    +0.066 C 
ATOM     20  C   UNL     1      34.425 -18.744 -24.060  0.00  0.00    +0.006 C 
ATOM     21  C   UNL     1      35.293 -17.142 -22.474  0.00  0.00    +0.006 C 
ATOM     22  C   UNL     1      34.303 -17.735 -25.015  0.00  0.00    +0.000 C 
ATOM     23  C   UNL     1      35.171 -16.132 -23.429  0.00  0.00    +0.000 C 
ATOM     24  C   UNL     1      34.677 -16.428 -24.699  0.00  0.00    +0.000 C 
ENDBRANCH  17  19
ENDBRANCH  12  15
ENDBRANCH  11  12
ENDBRANCH  10  11
ENDBRANCH   5  10
BRANCH   2  25
ATOM     25  C   UNL     1      35.015 -24.563 -12.495  0.00  0.00    +0.068 C 
BRANCH  25  26
ATOM     26  C   UNL     1      36.433 -24.719 -11.928  0.00  0.00    +0.218 C 
BRANCH  26  27
ATOM     27  O   UNL     1      36.696 -26.104 -11.737  0.00  0.00    -0.342 OA
ATOM     28  C   UNL     1      37.748 -26.555 -12.579  0.00  0.00    +0.175 C 
ENDBRANCH  26  27
BRANCH  26  30
ATOM     29  O   UNL     1      36.062 -24.449  -9.539  0.00  0.00    -0.248 OA
ATOM     30  C   UNL     1      36.563 -24.040 -10.579  0.00  0.00    +0.342 C 
BRANCH  30  31
ATOM     31  O   UNL     1      37.323 -22.917 -10.641  0.00  0.00    -0.479 OA
ATOM     32  H   UNL     1      37.595 -22.581 -11.473  0.00  0.00    +0.295 HD
ENDBRANCH  30  31
ENDBRANCH  26  30
ENDBRANCH  25  26
ENDBRANCH   2  25
TORSDOF 10
ENDMDL
MODEL 2
REMARK VINA RESULT:     -11.2      7.510     11.834
REMARK  Name = 10274777
REMARK  10 active torsions:
REMARK  status: ('A' for Active; 'I' for Inactive)
REMARK    1  A    between atoms: C_2  and  C_25
REMARK    2  A    between atoms: C_5  and  O_10
REMARK    3  A    between atoms: O_10  and  C_11
REMARK    4  A    between atoms: C_11  and  C_12
REMARK    5  A    between atoms: C_12  and  C_15
REMARK    6  A    between atoms: C_17  and  C_19
REMARK    7  A    between atoms: C_25  and  C_26
REMARK    8  A    between atoms: C_26  and  O_27
REMARK    9  A    between atoms: C_26  and  C_30
REMARK   10  A    between atoms: C_30  and  O_31
REMARK                            x       y       z     vdW  Elec       q    Type
REMARK                         _______ _______ _______ _____ _____    ______ ____
ROOT
ATOM      1  S   UNL     1      34.377 -16.620 -25.231  0.00  0.00    -0.087 S 
ATOM      2  C   UNL     1      35.017 -16.238 -22.523  0.00  0.00    -0.013 C 
ATOM      3  C   UNL     1      34.386 -15.812 -23.708  0.00  0.00    +0.029 C 
ATOM      4  C   UNL     1      33.662 -14.617 -23.762  0.00  0.00    +0.040 C 
ATOM      5  C   UNL     1      33.574 -13.834 -22.586  0.00  0.00    +0.139 C 
ATOM      6  C   UNL     1      34.911 -15.444 -21.380  0.00  0.00    -0.001 C 
ATOM      7  C   UNL     1      34.199 -14.254 -21.409  0.00  0.00    +0.037 C 
ATOM      8  C   UNL     1      33.116 -14.400 -25.072  0.00  0.00    +0.010 C 
ATOM      9  C   UNL     1      33.428 -15.405 -25.956  0.00  0.00    +0.036 C 
ENDROOT
BRANCH   5  10
ATOM     10  O   UNL     1      32.878 -12.651 -22.575  0.00  0.00    -0.475 OA
BRANCH  10  11
ATOM     11  C   UNL     1      31.984 -12.448 -21.488  0.00  0.00    +0.213 C 
BRANCH  11  12
ATOM     12  C   UNL     1      31.007 -11.326 -21.828  0.00  0.00    +0.105 C 
BRANCH  12  15
ATOM     13  O   UNL     1      32.662  -8.090 -21.486  0.00  0.00    -0.449 OA
ATOM     14  N   UNL     1      31.857  -9.409 -23.138  0.00  0.00    -0.373 NA
ATOM     15  C   UNL     1      31.673  -9.983 -21.924  0.00  0.00    +0.134 C 
ATOM     16  C   UNL     1      32.146  -9.215 -20.917  0.00  0.00    +0.216 C 
ATOM     17  C   UNL     1      32.451  -8.281 -22.818  0.00  0.00    +0.277 C 
ATOM     18  C   UNL     1      32.219  -9.317 -19.456  0.00  0.00    +0.055 C 
BRANCH  17  19
ATOM     19  C   UNL     1      32.911  -7.219 -23.669  0.00  0.00    +0.066 C 
ATOM     20  C   UNL     1      34.278  -7.062 -23.919  0.00  0.00    +0.006 C 
ATOM     21  C   UNL     1      31.997  -6.337 -24.250  0.00  0.00    +0.006 C 
ATOM     22  C   UNL     1      34.726  -6.031 -24.744  0.00  0.00    +0.000 C 
ATOM     23  C   UNL     1      32.446  -5.305 -25.076  0.00  0.00    +0.000 C 
ATOM     24  C   UNL     1      33.810  -5.152 -25.323  0.00  0.00    +0.000 C 
ENDBRANCH  17  19
ENDBRANCH  12  15
ENDBRANCH  11  12
ENDBRANCH  10  11
ENDBRANCH   5  10
BRANCH   2  25
ATOM     25  C   UNL     1      35.796 -17.512 -22.435  0.00  0.00    +0.068 C 
BRANCH  25  26
ATOM     26  C   UNL     1      35.433 -18.338 -21.193  0.00  0.00    +0.218 C 
BRANCH  26  27
ATOM     27  O   UNL     1      36.635 -18.726 -20.538  0.00  0.00    -0.342 OA
ATOM     28  C   UNL     1      37.621 -19.149 -21.469  0.00  0.00    +0.175 C 
ENDBRANCH  26  27
BRANCH  26  30
ATOM     29  O   UNL     1      34.300 -20.451 -20.782  0.00  0.00    -0.248 OA
ATOM     30  C   UNL     1      34.692 -19.604 -21.574  0.00  0.00    +0.342 C 
BRANCH  30  31
ATOM     31  O   UNL     1      34.490 -19.696 -22.914  0.00  0.00    -0.479 OA
ATOM     32  H   UNL     1      34.890 -20.390 -23.402  0.00  0.00    +0.295 HD
ENDBRANCH  30  31
ENDBRANCH  26  30
ENDBRANCH  25  26
ENDBRANCH   2  25
TORSDOF 10
ENDMDL
MODEL 3
REMARK VINA RESULT:     -11.1      6.584     12.785
REMARK  Name = 10274777
REMARK  10 active torsions:
REMARK  status: ('A' for Active; 'I' for Inactive)
REMARK    1  A    between atoms: C_2  and  C_25
REMARK    2  A    between atoms: C_5  and  O_10
REMARK    3  A    between atoms: O_10  and  C_11
REMARK    4  A    between atoms: C_11  and  C_12
REMARK    5  A    between atoms: C_12  and  C_15
REMARK    6  A    between atoms: C_17  and  C_19
REMARK    7  A    between atoms: C_25  and  C_26
REMARK    8  A    between atoms: C_26  and  O_27
REMARK    9  A    between atoms: C_26  and  C_30
REMARK   10  A    between atoms: C_30  and  O_31
REMARK                            x       y       z     vdW  Elec       q    Type
REMARK                         _______ _______ _______ _____ _____    ______ ____
ROOT
ATOM      1  S   UNL     1      33.702  -9.574 -24.045  0.00  0.00    -0.087 S 
ATOM      2  C   UNL     1      32.140 -10.833 -22.081  0.00  0.00    -0.013 C 
ATOM      3  C   UNL     1      33.041 -10.898 -23.161  0.00  0.00    +0.029 C 
ATOM      4  C   UNL     1      33.513 -12.121 -23.647  0.00  0.00    +0.040 C 
ATOM      5  C   UNL     1      33.060 -13.308 -23.023  0.00  0.00    +0.139 C 
ATOM      6  C   UNL     1      31.713 -12.022 -21.486  0.00  0.00    -0.001 C 
ATOM      7  C   UNL     1      32.167 -13.248 -21.951  0.00  0.00    +0.037 C 
ATOM      8  C   UNL     1      34.415 -11.929 -24.747  0.00  0.00    +0.010 C 
ATOM      9  C   UNL     1      34.602 -10.604 -25.062  0.00  0.00    +0.036 C 
ENDROOT
BRANCH   5  10
ATOM     10  O   UNL     1      33.487 -14.540 -23.454  0.00  0.00    -0.475 OA
BRANCH  10  11
ATOM     11  C   UNL     1      34.557 -15.133 -22.730  0.00  0.00    +0.213 C 
BRANCH  11  12
ATOM     12  C   UNL     1      35.270 -16.156 -23.610  0.00  0.00    +0.105 C 
BRANCH  12  15
ATOM     13  O   UNL     1      34.332 -19.664 -23.237  0.00  0.00    -0.449 OA
ATOM     14  N   UNL     1      35.174 -17.996 -21.962  0.00  0.00    -0.373 NA
ATOM     15  C   UNL     1      34.953 -17.574 -23.230  0.00  0.00    +0.134 C 
ATOM     16  C   UNL     1      34.449 -18.552 -24.016  0.00  0.00    +0.216 C 
ATOM     17  C   UNL     1      34.786 -19.251 -22.022  0.00  0.00    +0.277 C 
ATOM     18  C   UNL     1      34.030 -18.672 -25.417  0.00  0.00    +0.055 C 
BRANCH  17  19
ATOM     19  C   UNL     1      34.771 -20.251 -20.991  0.00  0.00    +0.066 C 
ATOM     20  C   UNL     1      35.973 -20.753 -20.481  0.00  0.00    +0.006 C 
ATOM     21  C   UNL     1      33.557 -20.729 -20.492  0.00  0.00    +0.006 C 
ATOM     22  C   UNL     1      35.960 -21.724 -19.481  0.00  0.00    +0.000 C 
ATOM     23  C   UNL     1      33.544 -21.701 -19.490  0.00  0.00    +0.000 C 
ATOM     24  C   UNL     1      34.744 -22.199 -18.985  0.00  0.00    +0.000 C 
ENDBRANCH  17  19
ENDBRANCH  12  15
ENDBRANCH  11  12
ENDBRANCH  10  11
ENDBRANCH   5  10
BRANCH   2  25
ATOM     25  C   UNL     1      31.619  -9.540 -21.538  0.00  0.00    +0.068 C 
BRANCH  25  26
ATOM     26  C   UNL     1      32.484  -8.993 -20.393  0.00  0.00    +0.218 C 
BRANCH  26  27
ATOM     27  O   UNL     1      31.758  -9.122 -19.176  0.00  0.00    -0.342 OA
ATOM     28  C   UNL     1      32.110 -10.312 -18.484  0.00  0.00    +0.175 C 
ENDBRANCH  26  27
BRANCH  26  30
ATOM     29  O   UNL     1      32.674  -6.918 -21.648  0.00  0.00    -0.248 OA
ATOM     30  C   UNL     1      32.786  -7.521 -20.589  0.00  0.00    +0.342 C 
BRANCH  30  31
ATOM     31  O   UNL     1      33.186  -6.922 -19.437  0.00  0.00    -0.479 OA
ATOM     32  H   UNL     1      33.690  -7.404 -18.810  0.00  0.00    +0.295 HD
ENDBRANCH  30  31
ENDBRANCH  26  30
ENDBRANCH  25  26
ENDBRANCH   2  25
TORSDOF 10
ENDMDL
MODEL 4
REMARK VINA RESULT:     -10.6      6.025     10.453
REMARK  Name = 10274777
REMARK  10 active torsions:
REMARK  status: ('A' for Active; 'I' for Inactive)
REMARK    1  A    between atoms: C_2  and  C_25
REMARK    2  A    between atoms: C_5  and  O_10
REMARK    3  A    between atoms: O_10  and  C_11
REMARK    4  A    between atoms: C_11  and  C_12
REMARK    5  A    between atoms: C_12  and  C_15
REMARK    6  A    between atoms: C_17  and  C_19
REMARK    7  A    between atoms: C_25  and  C_26
REMARK    8  A    between atoms: C_26  and  O_27
REMARK    9  A    between atoms: C_26  and  C_30
REMARK   10  A    between atoms: C_30  and  O_31
REMARK                            x       y       z     vdW  Elec       q    Type
REMARK                         _______ _______ _______ _____ _____    ______ ____
ROOT
ATOM      1  S   UNL     1      34.119 -19.095 -24.957  0.00  0.00    -0.087 S 
ATOM      2  C   UNL     1      34.933 -18.737 -22.294  0.00  0.00    -0.013 C 
ATOM      3  C   UNL     1      34.580 -18.210 -23.551  0.00  0.00    +0.029 C 
ATOM      4  C   UNL     1      34.570 -16.833 -23.791  0.00  0.00    +0.040 C 
ATOM      5  C   UNL     1      34.927 -15.967 -22.730  0.00  0.00    +0.139 C 
ATOM      6  C   UNL     1      35.280 -17.856 -21.267  0.00  0.00    -0.001 C 
ATOM      7  C   UNL     1      35.278 -16.485 -21.481  0.00  0.00    +0.037 C 
ATOM      8  C   UNL     1      34.179 -16.544 -25.142  0.00  0.00    +0.010 C 
ATOM      9  C   UNL     1      33.909 -17.674 -25.875  0.00  0.00    +0.036 C 
ENDROOT
BRANCH   5  10
ATOM     10  O   UNL     1      34.937 -14.605 -22.902  0.00  0.00    -0.475 OA
BRANCH  10  11
ATOM     11  C   UNL     1      34.051 -13.853 -22.083  0.00  0.00    +0.213 C 
BRANCH  11  12
ATOM     12  C   UNL     1      32.901 -13.313 -22.929  0.00  0.00    +0.105 C 
BRANCH  12  15
ATOM     13  O   UNL     1      33.436  -9.830 -23.882  0.00  0.00    -0.449 OA
ATOM     14  N   UNL     1      32.297 -10.996 -22.313  0.00  0.00    -0.373 NA
ATOM     15  C   UNL     1      32.978 -11.828 -23.138  0.00  0.00    +0.134 C 
ATOM     16  C   UNL     1      33.668 -11.156 -24.088  0.00  0.00    +0.216 C 
ATOM     17  C   UNL     1      32.606  -9.816 -22.802  0.00  0.00    +0.277 C 
ATOM     18  C   UNL     1      34.548 -11.513 -25.206  0.00  0.00    +0.055 C 
BRANCH  17  19
ATOM     19  C   UNL     1      32.195  -8.511 -22.363  0.00  0.00    +0.066 C 
ATOM     20  C   UNL     1      32.664  -7.998 -21.149  0.00  0.00    +0.006 C 
ATOM     21  C   UNL     1      31.325  -7.747 -23.145  0.00  0.00    +0.006 C 
ATOM     22  C   UNL     1      32.266  -6.732 -20.722  0.00  0.00    +0.000 C 
ATOM     23  C   UNL     1      30.926  -6.480 -22.717  0.00  0.00    +0.000 C 
ATOM     24  C   UNL     1      31.396  -5.973 -21.506  0.00  0.00    +0.000 C 
ENDBRANCH  17  19
ENDBRANCH  12  15
ENDBRANCH  11  12
ENDBRANCH  10  11
ENDBRANCH   5  10
BRANCH   2  25
ATOM     25  C   UNL     1      34.950 -20.205 -22.007  0.00  0.00    +0.068 C 
BRANCH  25  26
ATOM     26  C   UNL     1      34.660 -20.520 -20.533  0.00  0.00    +0.218 C 
BRANCH  26  27
ATOM     27  O   UNL     1      35.455 -21.634 -20.142  0.00  0.00    -0.342 OA
ATOM     28  C   UNL     1      36.782 -21.240 -19.822  0.00  0.00    +0.175 C 
ENDBRANCH  26  27
BRANCH  26  30
ATOM     29  O   UNL     1      32.280 -20.528 -21.035  0.00  0.00    -0.248 OA
ATOM     30  C   UNL     1      33.208 -20.902 -20.329  0.00  0.00    +0.342 C 
BRANCH  30  31
ATOM     31  O   UNL     1      33.041 -21.735 -19.270  0.00  0.00    -0.479 OA
ATOM     32  H   UNL     1      32.626 -22.567 -19.389  0.00  0.00    +0.295 HD
ENDBRANCH  30  31
ENDBRANCH  26  30
ENDBRANCH  25  26
ENDBRANCH   2  25
TORSDOF 10
ENDMDL
MODEL 5
REMARK VINA RESULT:     -10.6      6.537     13.381
REMARK  Name = 10274777
REMARK  10 active torsions:
REMARK  status: ('A' for Active; 'I' for Inactive)
REMARK    1  A    between atoms: C_2  and  C_25
REMARK    2  A    between atoms: C_5  and  O_10
REMARK    3  A    between atoms: O_10  and  C_11
REMARK    4  A    between atoms: C_11  and  C_12
REMARK    5  A    between atoms: C_12  and  C_15
REMARK    6  A    between atoms: C_17  and  C_19
REMARK    7  A    between atoms: C_25  and  C_26
REMARK    8  A    between atoms: C_26  and  O_27
REMARK    9  A    between atoms: C_26  and  C_30
REMARK   10  A    between atoms: C_30  and  O_31
REMARK                            x       y       z     vdW  Elec       q    Type
REMARK                         _______ _______ _______ _____ _____    ______ ____
ROOT
ATOM      1  S   UNL     1      31.595 -10.964 -21.066  0.00  0.00    -0.087 S 
ATOM      2  C   UNL     1      32.956 -10.395 -23.456  0.00  0.00    -0.013 C 
ATOM      3  C   UNL     1      32.503 -11.314 -22.489  0.00  0.00    +0.029 C 
ATOM      4  C   UNL     1      32.766 -12.682 -22.601  0.00  0.00    +0.040 C 
ATOM      5  C   UNL     1      33.505 -13.132 -23.721  0.00  0.00    +0.139 C 
ATOM      6  C   UNL     1      33.683 -10.871 -24.549  0.00  0.00    -0.001 C 
ATOM      7  C   UNL     1      33.956 -12.224 -24.682  0.00  0.00    +0.037 C 
ATOM      8  C   UNL     1      32.205 -13.411 -21.498  0.00  0.00    +0.010 C 
ATOM      9  C   UNL     1      31.548 -12.602 -20.601  0.00  0.00    +0.036 C 
ENDROOT
BRANCH   5  10
ATOM     10  O   UNL     1      33.796 -14.464 -23.888  0.00  0.00    -0.475 OA
BRANCH  10  11
ATOM     11  C   UNL     1      34.551 -15.085 -22.856  0.00  0.00    +0.213 C 
BRANCH  11  12
ATOM     12  C   UNL     1      35.478 -16.137 -23.459  0.00  0.00    +0.105 C 
BRANCH  12  15
ATOM     13  O   UNL     1      34.313 -19.583 -23.152  0.00  0.00    -0.449 OA
ATOM     14  N   UNL     1      35.292 -18.010 -21.855  0.00  0.00    -0.373 NA
ATOM     15  C   UNL     1      35.074 -17.540 -23.107  0.00  0.00    +0.134 C 
ATOM     16  C   UNL     1      34.488 -18.462 -23.906  0.00  0.00    +0.216 C 
ATOM     17  C   UNL     1      34.820 -19.233 -21.937  0.00  0.00    +0.277 C 
ATOM     18  C   UNL     1      34.033 -18.517 -25.299  0.00  0.00    +0.055 C 
BRANCH  17  19
ATOM     19  C   UNL     1      34.759 -20.257 -20.931  0.00  0.00    +0.066 C 
ATOM     20  C   UNL     1      33.521 -20.733 -20.487  0.00  0.00    +0.006 C 
ATOM     21  C   UNL     1      35.935 -20.782 -20.389  0.00  0.00    +0.006 C 
ATOM     22  C   UNL     1      33.460 -21.726 -19.511  0.00  0.00    +0.000 C 
ATOM     23  C   UNL     1      35.874 -21.776 -19.412  0.00  0.00    +0.000 C 
ATOM     24  C   UNL     1      34.638 -22.248 -18.972  0.00  0.00    +0.000 C 
ENDBRANCH  17  19
ENDBRANCH  12  15
ENDBRANCH  11  12
ENDBRANCH  10  11
ENDBRANCH   5  10
BRANCH   2  25
ATOM     25  C   UNL     1      32.688  -8.926 -23.364  0.00  0.00    +0.068 C 
BRANCH  25  26
ATOM     26  C   UNL     1      33.979  -8.095 -23.344  0.00  0.00    +0.218 C 
BRANCH  26  27
ATOM     27  O   UNL     1      34.283  -7.762 -21.994  0.00  0.00    -0.342 OA
ATOM     28  C   UNL     1      33.103  -7.536 -21.236  0.00  0.00    +0.175 C 
ENDBRANCH  26  27
BRANCH  26  30
ATOM     29  O   UNL     1      34.719  -6.049 -24.432  0.00  0.00    -0.248 OA
ATOM     30  C   UNL     1      33.806  -6.796 -24.106  0.00  0.00    +0.342 C 
BRANCH  30  31
ATOM     31  O   UNL     1      32.506  -6.551 -24.412  0.00  0.00    -0.479 OA
ATOM     32  H   UNL     1      31.947  -7.255 -24.678  0.00  0.00    +0.295 HD
ENDBRANCH  30  31
ENDBRANCH  26  30
ENDBRANCH  25  26
ENDBRANCH   2  25
TORSDOF 10
ENDMDL
MODEL 6
REMARK VINA RESULT:     -10.5      3.022      4.961
REMARK  Name = 10274777
REMARK  10 active torsions:
REMARK  status: ('A' for Active; 'I' for Inactive)
REMARK    1  A    between atoms: C_2  and  C_25
REMARK    2  A    between atoms: C_5  and  O_10
REMARK    3  A    between atoms: O_10  and  C_11
REMARK    4  A    between atoms: C_11  and  C_12
REMARK    5  A    between atoms: C_12  and  C_15
REMARK    6  A    between atoms: C_17  and  C_19
REMARK    7  A    between atoms: C_25  and  C_26
REMARK    8  A    between atoms: C_26  and  O_27
REMARK    9  A    between atoms: C_26  and  C_30
REMARK   10  A    between atoms: C_30  and  O_31
REMARK                            x       y       z     vdW  Elec       q    Type
REMARK                         _______ _______ _______ _____ _____    ______ ____
ROOT
ATOM      1  S   UNL     1      35.912 -23.345 -15.511  0.00  0.00    -0.087 S 
ATOM      2  C   UNL     1      33.664 -23.178 -17.186  0.00  0.00    -0.013 C 
ATOM      3  C   UNL     1      35.018 -22.900 -16.917  0.00  0.00    +0.029 C 
ATOM      4  C   UNL     1      35.814 -22.193 -17.823  0.00  0.00    +0.040 C 
ATOM      5  C   UNL     1      35.223 -21.756 -19.033  0.00  0.00    +0.139 C 
ATOM      6  C   UNL     1      33.111 -22.733 -18.388  0.00  0.00    -0.001 C 
ATOM      7  C   UNL     1      33.880 -22.029 -19.304  0.00  0.00    +0.037 C 
ATOM      8  C   UNL     1      37.152 -22.036 -17.327  0.00  0.00    +0.010 C 
ATOM      9  C   UNL     1      37.336 -22.611 -16.091  0.00  0.00    +0.036 C 
ENDROOT
BRANCH   5  10
ATOM     10  O   UNL     1      35.952 -21.057 -19.963  0.00  0.00    -0.475 OA
BRANCH  10  11
ATOM     11  C   UNL     1      35.220 -20.214 -20.844  0.00  0.00    +0.213 C 
BRANCH  11  12
ATOM     12  C   UNL     1      36.128 -19.107 -21.370  0.00  0.00    +0.105 C 
BRANCH  12  15
ATOM     13  O   UNL     1      34.502 -17.576 -24.257  0.00  0.00    -0.449 OA
ATOM     14  N   UNL     1      35.295 -16.945 -22.235  0.00  0.00    -0.373 NA
ATOM     15  C   UNL     1      35.475 -18.274 -22.435  0.00  0.00    +0.134 C 
ATOM     16  C   UNL     1      35.009 -18.679 -23.638  0.00  0.00    +0.216 C 
ATOM     17  C   UNL     1      34.711 -16.578 -23.353  0.00  0.00    +0.277 C 
ATOM     18  C   UNL     1      34.935 -19.947 -24.370  0.00  0.00    +0.055 C 
BRANCH  17  19
ATOM     19  C   UNL     1      34.260 -15.278 -23.763  0.00  0.00    +0.066 C 
ATOM     20  C   UNL     1      34.401 -14.183 -22.905  0.00  0.00    +0.006 C 
ATOM     21  C   UNL     1      33.676 -15.099 -25.020  0.00  0.00    +0.006 C 
ATOM     22  C   UNL     1      33.963 -12.920 -23.301  0.00  0.00    +0.000 C 
ATOM     23  C   UNL     1      33.238 -13.834 -25.416  0.00  0.00    +0.000 C 
ATOM     24  C   UNL     1      33.381 -12.745 -24.557  0.00  0.00    +0.000 C 
ENDBRANCH  17  19
ENDBRANCH  12  15
ENDBRANCH  11  12
ENDBRANCH  10  11
ENDBRANCH   5  10
BRANCH   2  25
ATOM     25  C   UNL     1      32.789 -23.933 -16.237  0.00  0.00    +0.068 C 
BRANCH  25  26
ATOM     26  C   UNL     1      31.661 -23.066 -15.660  0.00  0.00    +0.218 C 
BRANCH  26  27
ATOM     27  O   UNL     1      31.651 -23.218 -14.245  0.00  0.00    -0.342 OA
ATOM     28  C   UNL     1      32.655 -24.124 -13.812  0.00  0.00    +0.175 C 
ENDBRANCH  26  27
BRANCH  26  30
ATOM     29  O   UNL     1      29.689 -24.485 -15.768  0.00  0.00    -0.248 OA
ATOM     30  C   UNL     1      30.308 -23.511 -16.176  0.00  0.00    +0.342 C 
BRANCH  30  31
ATOM     31  O   UNL     1      29.834 -22.689 -17.148  0.00  0.00    -0.479 OA
ATOM     32  H   UNL     1      30.426 -22.141 -17.627  0.00  0.00    +0.295 HD
ENDBRANCH  30  31
ENDBRANCH  26  30
ENDBRANCH  25  26
ENDBRANCH   2  25
TORSDOF 10
ENDMDL
MODEL 7
REMARK VINA RESULT:     -10.3      2.343      3.985
REMARK  Name = 10274777
REMARK  10 active torsions:
REMARK  status: ('A' for Active; 'I' for Inactive)
REMARK    1  A    between atoms: C_2  and  C_25
REMARK    2  A    between atoms: C_5  and  O_10
REMARK    3  A    between atoms: O_10  and  C_11
REMARK    4  A    between atoms: C_11  and  C_12
REMARK    5  A    between atoms: C_12  and  C_15
REMARK    6  A    between atoms: C_17  and  C_19
REMARK    7  A    between atoms: C_25  and  C_26
REMARK    8  A    between atoms: C_26  and  O_27
REMARK    9  A    between atoms: C_26  and  C_30
REMARK   10  A    between atoms: C_30  and  O_31
REMARK                            x       y       z     vdW  Elec       q    Type
REMARK                         _______ _______ _______ _____ _____    ______ ____
ROOT
ATOM      1  S   UNL     1      35.410 -24.256 -12.444  0.00  0.00    -0.087 S 
ATOM      2  C   UNL     1      33.652 -23.856 -14.597  0.00  0.00    -0.013 C 
ATOM      3  C   UNL     1      34.953 -23.854 -14.057  0.00  0.00    +0.029 C 
ATOM      4  C   UNL     1      36.065 -23.503 -14.828  0.00  0.00    +0.040 C 
ATOM      5  C   UNL     1      35.854 -23.145 -16.182  0.00  0.00    +0.139 C 
ATOM      6  C   UNL     1      33.478 -23.498 -15.936  0.00  0.00    -0.001 C 
ATOM      7  C   UNL     1      34.566 -23.146 -16.722  0.00  0.00    +0.037 C 
ATOM      8  C   UNL     1      37.274 -23.576 -14.059  0.00  0.00    +0.010 C 
ATOM      9  C   UNL     1      37.060 -23.969 -12.759  0.00  0.00    +0.036 C 
ENDROOT
BRANCH   5  10
ATOM     10  O   UNL     1      36.905 -22.791 -16.991  0.00  0.00    -0.475 OA
BRANCH  10  11
ATOM     11  C   UNL     1      36.731 -21.625 -17.787  0.00  0.00    +0.213 C 
BRANCH  11  12
ATOM     12  C   UNL     1      36.724 -22.008 -19.264  0.00  0.00    +0.105 C 
BRANCH  12  15
ATOM     13  O   UNL     1      34.033 -20.240 -20.985  0.00  0.00    -0.449 OA
ATOM     14  N   UNL     1      36.295 -20.233 -20.932  0.00  0.00    -0.373 NA
ATOM     15  C   UNL     1      35.791 -21.160 -20.081  0.00  0.00    +0.134 C 
ATOM     16  C   UNL     1      34.439 -21.185 -20.092  0.00  0.00    +0.216 C 
ATOM     17  C   UNL     1      35.202 -19.713 -21.445  0.00  0.00    +0.277 C 
ATOM     18  C   UNL     1      33.391 -21.949 -19.407  0.00  0.00    +0.055 C 
BRANCH  17  19
ATOM     19  C   UNL     1      35.060 -18.670 -22.422  0.00  0.00    +0.066 C 
ATOM     20  C   UNL     1      34.548 -18.960 -23.691  0.00  0.00    +0.006 C 
ATOM     21  C   UNL     1      35.434 -17.360 -22.113  0.00  0.00    +0.006 C 
ATOM     22  C   UNL     1      34.410 -17.949 -24.640  0.00  0.00    +0.000 C 
ATOM     23  C   UNL     1      35.297 -16.348 -23.063  0.00  0.00    +0.000 C 
ATOM     24  C   UNL     1      34.785 -16.642 -24.326  0.00  0.00    +0.000 C 
ENDBRANCH  17  19
ENDBRANCH  12  15
ENDBRANCH  11  12
ENDBRANCH  10  11
ENDBRANCH   5  10
BRANCH   2  25
ATOM     25  C   UNL     1      32.444 -24.229 -13.798  0.00  0.00    +0.068 C 
BRANCH  25  26
ATOM     26  C   UNL     1      31.164 -24.257 -14.645  0.00  0.00    +0.218 C 
BRANCH  26  27
ATOM     27  O   UNL     1      30.504 -23.004 -14.512  0.00  0.00    -0.342 OA
ATOM     28  C   UNL     1      29.475 -22.852 -15.480  0.00  0.00    +0.175 C 
ENDBRANCH  26  27
BRANCH  26  30
ATOM     29  O   UNL     1      29.612 -26.115 -14.884  0.00  0.00    -0.248 OA
ATOM     30  C   UNL     1      30.209 -25.329 -14.160  0.00  0.00    +0.342 C 
BRANCH  30  31
ATOM     31  O   UNL     1      30.096 -25.339 -12.806  0.00  0.00    -0.479 OA
ATOM     32  H   UNL     1      30.757 -24.936 -12.278  0.00  0.00    +0.295 HD
ENDBRANCH  30  31
ENDBRANCH  26  30
ENDBRANCH  25  26
ENDBRANCH   2  25
TORSDOF 10
ENDMDL
MODEL 8
REMARK VINA RESULT:     -10.3      2.808     10.210
REMARK  Name = 10274777
REMARK  10 active torsions:
REMARK  status: ('A' for Active; 'I' for Inactive)
REMARK    1  A    between atoms: C_2  and  C_25
REMARK    2  A    between atoms: C_5  and  O_10
REMARK    3  A    between atoms: O_10  and  C_11
REMARK    4  A    between atoms: C_11  and  C_12
REMARK    5  A    between atoms: C_12  and  C_15
REMARK    6  A    between atoms: C_17  and  C_19
REMARK    7  A    between atoms: C_25  and  C_26
REMARK    8  A    between atoms: C_26  and  O_27
REMARK    9  A    between atoms: C_26  and  C_30
REMARK   10  A    between atoms: C_30  and  O_31
REMARK                            x       y       z     vdW  Elec       q    Type
REMARK                         _______ _______ _______ _____ _____    ______ ____
ROOT
ATOM      1  S   UNL     1      37.069 -21.020 -19.863  0.00  0.00    -0.087 S 
ATOM      2  C   UNL     1      34.808 -20.099 -21.251  0.00  0.00    -0.013 C 
ATOM      3  C   UNL     1      35.389 -20.853 -20.213  0.00  0.00    +0.029 C 
ATOM      4  C   UNL     1      34.607 -21.582 -19.312  0.00  0.00    +0.040 C 
ATOM      5  C   UNL     1      33.200 -21.547 -19.468  0.00  0.00    +0.139 C 
ATOM      6  C   UNL     1      33.418 -20.084 -21.377  0.00  0.00    -0.001 C 
ATOM      7  C   UNL     1      32.620 -20.800 -20.496  0.00  0.00    +0.037 C 
ATOM      8  C   UNL     1      35.423 -22.266 -18.350  0.00  0.00    +0.010 C 
ATOM      9  C   UNL     1      36.767 -22.046 -18.536  0.00  0.00    +0.036 C 
ENDROOT
BRANCH   5  10
ATOM     10  O   UNL     1      32.377 -22.241 -18.616  0.00  0.00    -0.475 OA
BRANCH  10  11
ATOM     11  C   UNL     1      33.012 -23.087 -17.666  0.00  0.00    +0.213 C 
BRANCH  11  12
ATOM     12  C   UNL     1      32.061 -23.358 -16.502  0.00  0.00    +0.105 C 
BRANCH  12  15
ATOM     13  O   UNL     1      33.282 -24.292 -13.191  0.00  0.00    -0.449 OA
ATOM     14  N   UNL     1      34.132 -23.831 -15.237  0.00  0.00    -0.373 NA
ATOM     15  C   UNL     1      32.780 -23.733 -15.238  0.00  0.00    +0.134 C 
ATOM     16  C   UNL     1      32.245 -24.004 -14.026  0.00  0.00    +0.216 C 
ATOM     17  C   UNL     1      34.378 -24.168 -13.990  0.00  0.00    +0.277 C 
ATOM     18  C   UNL     1      30.895 -24.051 -13.454  0.00  0.00    +0.055 C 
BRANCH  17  19
ATOM     19  C   UNL     1      35.637 -24.423 -13.346  0.00  0.00    +0.066 C 
ATOM     20  C   UNL     1      36.567 -25.283 -13.938  0.00  0.00    +0.006 C 
ATOM     21  C   UNL     1      35.938 -23.816 -12.124  0.00  0.00    +0.006 C 
ATOM     22  C   UNL     1      37.789 -25.533 -13.314  0.00  0.00    +0.000 C 
ATOM     23  C   UNL     1      37.161 -24.066 -11.500  0.00  0.00    +0.000 C 
ATOM     24  C   UNL     1      38.086 -24.924 -12.094  0.00  0.00    +0.000 C 
ENDBRANCH  17  19
ENDBRANCH  12  15
ENDBRANCH  11  12
ENDBRANCH  10  11
ENDBRANCH   5  10
BRANCH   2  25
ATOM     25  C   UNL     1      35.619 -19.308 -22.228  0.00  0.00    +0.068 C 
BRANCH  25  26
ATOM     26  C   UNL     1      34.811 -18.182 -22.887  0.00  0.00    +0.218 C 
BRANCH  26  27
ATOM     27  O   UNL     1      35.046 -18.216 -24.290  0.00  0.00    -0.342 OA
ATOM     28  C   UNL     1      33.927 -18.739 -24.992  0.00  0.00    +0.175 C 
ENDBRANCH  26  27
BRANCH  26  30
ATOM     29  O   UNL     1      35.234 -16.469 -21.212  0.00  0.00    -0.248 OA
ATOM     30  C   UNL     1      35.253 -16.822 -22.384  0.00  0.00    +0.342 C 
BRANCH  30  31
ATOM     31  O   UNL     1      35.701 -16.025 -23.388  0.00  0.00    -0.479 OA
ATOM     32  H   UNL     1      35.610 -15.094 -23.323  0.00  0.00    +0.295 HD
ENDBRANCH  30  31
ENDBRANCH  26  30
ENDBRANCH  25  26
ENDBRANCH   2  25
TORSDOF 10
ENDMDL
MODEL 9
REMARK VINA RESULT:     -10.3      7.377     14.243
REMARK  Name = 10274777
REMARK  10 active torsions:
REMARK  status: ('A' for Active; 'I' for Inactive)
REMARK    1  A    between atoms: C_2  and  C_25
REMARK    2  A    between atoms: C_5  and  O_10
REMARK    3  A    between atoms: O_10  and  C_11
REMARK    4  A    between atoms: C_11  and  C_12
REMARK    5  A    between atoms: C_12  and  C_15
REMARK    6  A    between atoms: C_17  and  C_19
REMARK    7  A    between atoms: C_25  and  C_26
REMARK    8  A    between atoms: C_26  and  O_27
REMARK    9  A    between atoms: C_26  and  C_30
REMARK   10  A    between atoms: C_30  and  O_31
REMARK                            x       y       z     vdW  Elec       q    Type
REMARK                         _______ _______ _______ _____ _____    ______ ____
ROOT
ATOM      1  S   UNL     1      31.941  -8.956 -20.793  0.00  0.00    -0.087 S 
ATOM      2  C   UNL     1      33.586  -9.127 -23.063  0.00  0.00    -0.013 C 
ATOM      3  C   UNL     1      32.728  -9.726 -22.121  0.00  0.00    +0.029 C 
ATOM      4  C   UNL     1      32.415 -11.087 -22.177  0.00  0.00    +0.040 C 
ATOM      5  C   UNL     1      32.986 -11.862 -23.216  0.00  0.00    +0.139 C 
ATOM      6  C   UNL     1      34.132  -9.919 -24.076  0.00  0.00    -0.001 C 
ATOM      7  C   UNL     1      33.837 -11.272 -24.153  0.00  0.00    +0.037 C 
ATOM      8  C   UNL     1      31.527 -11.461 -21.113  0.00  0.00    +0.010 C 
ATOM      9  C   UNL     1      31.195 -10.406 -20.297  0.00  0.00    +0.036 C 
ENDROOT
BRANCH   5  10
ATOM     10  O   UNL     1      32.717 -13.204 -23.325  0.00  0.00    -0.475 OA
BRANCH  10  11
ATOM     11  C   UNL     1      33.427 -14.070 -22.449  0.00  0.00    +0.213 C 
BRANCH  11  12
ATOM     12  C   UNL     1      34.707 -14.552 -23.126  0.00  0.00    +0.105 C 
BRANCH  12  15
ATOM     13  O   UNL     1      34.992 -18.167 -23.547  0.00  0.00    -0.449 OA
ATOM     14  N   UNL     1      35.171 -16.641 -21.887  0.00  0.00    -0.373 NA
ATOM     15  C   UNL     1      34.871 -16.043 -23.066  0.00  0.00    +0.134 C 
ATOM     16  C   UNL     1      34.759 -16.934 -24.078  0.00  0.00    +0.216 C 
ATOM     17  C   UNL     1      35.231 -17.908 -22.232  0.00  0.00    +0.277 C 
ATOM     18  C   UNL     1      34.462 -16.870 -25.513  0.00  0.00    +0.055 C 
BRANCH  17  19
ATOM     19  C   UNL     1      35.513 -19.061 -21.423  0.00  0.00    +0.066 C 
ATOM     20  C   UNL     1      36.815 -19.305 -20.977  0.00  0.00    +0.006 C 
ATOM     21  C   UNL     1      34.488 -19.946 -21.078  0.00  0.00    +0.006 C 
ATOM     22  C   UNL     1      37.090 -20.424 -20.191  0.00  0.00    +0.000 C 
ATOM     23  C   UNL     1      34.763 -21.066 -20.292  0.00  0.00    +0.000 C 
ATOM     24  C   UNL     1      36.064 -21.305 -19.849  0.00  0.00    +0.000 C 
ENDBRANCH  17  19
ENDBRANCH  12  15
ENDBRANCH  11  12
ENDBRANCH  10  11
ENDBRANCH   5  10
BRANCH   2  25
ATOM     25  C   UNL     1      33.937  -7.674 -23.029  0.00  0.00    +0.068 C 
BRANCH  25  26
ATOM     26  C   UNL     1      33.208  -6.867 -24.113  0.00  0.00    +0.218 C 
BRANCH  26  27
ATOM     27  O   UNL     1      33.895  -5.635 -24.301  0.00  0.00    -0.342 OA
ATOM     28  C   UNL     1      34.538  -5.585 -25.566  0.00  0.00    +0.175 C 
ENDBRANCH  26  27
BRANCH  26  30
ATOM     29  O   UNL     1      31.485  -5.712 -22.844  0.00  0.00    -0.248 OA
ATOM     30  C   UNL     1      31.790  -6.540 -23.693  0.00  0.00    +0.342 C 
BRANCH  30  31
ATOM     31  O   UNL     1      30.870  -7.262 -24.383  0.00  0.00    -0.479 OA
ATOM     32  H   UNL     1      30.053  -7.486 -23.982  0.00  0.00    +0.295 HD
ENDBRANCH  30  31
ENDBRANCH  26  30
ENDBRANCH  25  26
ENDBRANCH   2  25
TORSDOF 10
ENDMDL
