MODEL 1
REMARK VINA RESULT:     -11.7      0.000      0.000
REMARK  Name = 10156987
REMARK  5 active torsions:
REMARK  status: ('A' for Active; 'I' for Inactive)
REMARK    1  A    between atoms: C_2  and  C_23
REMARK    2  A    between atoms: C_9  and  C_13
REMARK    3  A    between atoms: C_23  and  N_24
REMARK    4  A    between atoms: C_25  and  C_31
REMARK    5  A    between atoms: C_31  and  N_32
REMARK                            x       y       z     vdW  Elec       q    Type
REMARK                         _______ _______ _______ _____ _____    ______ ____
ROOT
ATOM      1  N   UNL     1      35.077 -21.769 -18.723  0.00  0.00    -0.312 N 
ATOM      2  C   UNL     1      35.343 -19.547 -22.175  0.00  0.00    -0.043 C 
ATOM      3  C   UNL     1      34.133 -20.039 -21.686  0.00  0.00    -0.005 C 
ATOM      4  C   UNL     1      36.541 -19.783 -21.512  0.00  0.00    -0.005 C 
ATOM      5  C   UNL     1      34.135 -20.792 -20.494  0.00  0.00    +0.014 C 
ATOM      6  C   UNL     1      35.351 -21.018 -19.845  0.00  0.00    +0.048 C 
ATOM      7  C   UNL     1      36.568 -20.527 -20.329  0.00  0.00    +0.014 C 
ATOM      8  C   UNL     1      33.126 -21.433 -19.724  0.00  0.00    +0.016 C 
ATOM      9  C   UNL     1      33.735 -22.024 -18.642  0.00  0.00    +0.053 C 
ATOM     10  H   UNL     1      35.751 -22.077 -18.074  0.00  0.00    +0.152 HD
ENDROOT
BRANCH   9  13
ATOM     11  O   UNL     1      35.453 -23.345 -16.779  0.00  0.00    -0.270 OA
ATOM     12  N   UNL     1      33.702 -24.165 -15.549  0.00  0.00    -0.280 N 
ATOM     13  C   UNL     1      33.261 -22.797 -17.536  0.00  0.00    +0.067 C 
ATOM     14  C   UNL     1      31.938 -22.931 -17.337  0.00  0.00    +0.007 C 
ATOM     15  C   UNL     1      34.240 -23.448 -16.601  0.00  0.00    +0.251 C 
ATOM     16  C   UNL     1      31.420 -23.706 -16.212  0.00  0.00    +0.014 C 
ATOM     17  C   UNL     1      32.322 -24.310 -15.331  0.00  0.00    +0.051 C 
ATOM     18  C   UNL     1      30.047 -23.853 -15.995  0.00  0.00    +0.001 C 
ATOM     19  C   UNL     1      31.864 -25.057 -14.243  0.00  0.00    +0.015 C 
ATOM     20  C   UNL     1      29.587 -24.599 -14.907  0.00  0.00    +0.000 C 
ATOM     21  C   UNL     1      30.493 -25.200 -14.034  0.00  0.00    +0.001 C 
ATOM     22  H   UNL     1      34.321 -24.598 -14.917  0.00  0.00    +0.155 HD
ENDBRANCH   9  13
BRANCH   2  23
ATOM     23  C   UNL     1      35.347 -18.746 -23.444  0.00  0.00    -0.050 C 
BRANCH  23  24
ATOM     24  N   UNL     1      34.673 -17.458 -23.281  0.00  0.00    +0.390 N 
ATOM     25  C   UNL     1      34.473 -14.535 -23.403  0.00  0.00    -0.026 C 
ATOM     26  C   UNL     1      34.664 -15.292 -22.084  0.00  0.00    -0.025 C 
ATOM     27  C   UNL     1      33.800 -15.449 -24.431  0.00  0.00    -0.025 C 
ATOM     28  C   UNL     1      35.387 -16.622 -22.306  0.00  0.00    -0.077 C 
ATOM     29  C   UNL     1      34.551 -16.774 -24.576  0.00  0.00    -0.077 C 
ATOM     30  H   UNL     1      33.732 -17.624 -22.924  0.00  0.00    -0.079 HD
BRANCH  25  31
ATOM     31  C   UNL     1      33.664 -13.258 -23.191  0.00  0.00    -0.086 C 
BRANCH  31  32
ATOM     32  N   UNL     1      34.213 -12.160 -23.971  0.00  0.00    +0.380 N 
ATOM     33  H   UNL     1      35.037 -11.787 -23.500  0.00  0.00    -0.089 HD
ATOM     34  H   UNL     1      33.512 -11.424 -24.063  0.00  0.00    -0.089 HD
ATOM     35  H   UNL     1      34.475 -12.498 -24.897  0.00  0.00    -0.089 HD
ENDBRANCH  31  32
ENDBRANCH  25  31
ENDBRANCH  23  24
ENDBRANCH   2  23
TORSDOF 5
ENDMDL
MODEL 2
REMARK VINA RESULT:     -11.6      3.209     10.901
REMARK  Name = 10156987
REMARK  5 active torsions:
REMARK  status: ('A' for Active; 'I' for Inactive)
REMARK    1  A    between atoms: C_2  and  C_23
REMARK    2  A    between atoms: C_9  and  C_13
REMARK    3  A    between atoms: C_23  and  N_24
REMARK    4  A    between atoms: C_25  and  C_31
REMARK    5  A    between atoms: C_31  and  N_32
REMARK                            x       y       z     vdW  Elec       q    Type
REMARK                         _______ _______ _______ _____ _____    ______ ____
ROOT
ATOM      1  N   UNL     1      34.073 -14.964 -23.430  0.00  0.00    -0.312 N 
ATOM      2  C   UNL     1      35.926 -18.366 -22.047  0.00  0.00    -0.043 C 
ATOM      3  C   UNL     1      35.630 -17.279 -21.223  0.00  0.00    -0.005 C 
ATOM      4  C   UNL     1      35.605 -18.357 -23.398  0.00  0.00    -0.005 C 
ATOM      5  C   UNL     1      34.993 -16.153 -21.782  0.00  0.00    +0.014 C 
ATOM      6  C   UNL     1      34.680 -16.167 -23.143  0.00  0.00    +0.048 C 
ATOM      7  C   UNL     1      34.973 -17.252 -23.975  0.00  0.00    +0.014 C 
ATOM      8  C   UNL     1      34.553 -14.904 -21.264  0.00  0.00    +0.016 C 
ATOM      9  C   UNL     1      33.992 -14.195 -22.301  0.00  0.00    +0.053 C 
ATOM     10  H   UNL     1      33.744 -14.697 -24.319  0.00  0.00    +0.152 HD
ENDROOT
BRANCH   9  13
ATOM     11  O   UNL     1      31.538 -13.485 -21.019  0.00  0.00    -0.270 OA
ATOM     12  N   UNL     1      31.588 -11.340 -21.826  0.00  0.00    -0.280 N 
ATOM     13  C   UNL     1      33.388 -12.903 -22.405  0.00  0.00    +0.067 C 
ATOM     14  C   UNL     1      33.981 -11.949 -23.143  0.00  0.00    +0.007 C 
ATOM     15  C   UNL     1      32.100 -12.616 -21.687  0.00  0.00    +0.251 C 
ATOM     16  C   UNL     1      33.396 -10.615 -23.264  0.00  0.00    +0.014 C 
ATOM     17  C   UNL     1      32.201 -10.336 -22.594  0.00  0.00    +0.051 C 
ATOM     18  C   UNL     1      34.003  -9.615 -24.029  0.00  0.00    +0.001 C 
ATOM     19  C   UNL     1      31.612  -9.072 -22.684  0.00  0.00    +0.015 C 
ATOM     20  C   UNL     1      33.416  -8.351 -24.119  0.00  0.00    +0.000 C 
ATOM     21  C   UNL     1      32.224  -8.080 -23.449  0.00  0.00    +0.001 C 
ATOM     22  H   UNL     1      30.748 -11.123 -21.362  0.00  0.00    +0.155 HD
ENDBRANCH   9  13
BRANCH   2  23
ATOM     23  C   UNL     1      36.606 -19.567 -21.457  0.00  0.00    -0.050 C 
BRANCH  23  24
ATOM     24  N   UNL     1      35.790 -20.206 -20.425  0.00  0.00    +0.390 N 
ATOM     25  C   UNL     1      34.284 -22.420 -19.230  0.00  0.00    -0.026 C 
ATOM     26  C   UNL     1      33.597 -21.220 -19.890  0.00  0.00    -0.025 C 
ATOM     27  C   UNL     1      35.677 -22.013 -18.739  0.00  0.00    -0.025 C 
ATOM     28  C   UNL     1      34.483 -20.598 -20.971  0.00  0.00    -0.077 C 
ATOM     29  C   UNL     1      36.495 -21.364 -19.858  0.00  0.00    -0.077 C 
ATOM     30  H   UNL     1      35.630 -19.537 -19.673  0.00  0.00    -0.079 HD
BRANCH  25  31
ATOM     31  C   UNL     1      33.440 -22.975 -18.085  0.00  0.00    -0.086 C 
BRANCH  31  32
ATOM     32  N   UNL     1      32.086 -22.446 -18.136  0.00  0.00    +0.380 N 
ATOM     33  H   UNL     1      31.675 -22.476 -17.203  0.00  0.00    -0.089 HD
ATOM     34  H   UNL     1      31.523 -23.012 -18.773  0.00  0.00    -0.089 HD
ATOM     35  H   UNL     1      32.109 -21.482 -18.468  0.00  0.00    -0.089 HD
ENDBRANCH  31  32
ENDBRANCH  25  31
ENDBRANCH  23  24
ENDBRANCH   2  23
TORSDOF 5
ENDMDL
MODEL 3
REMARK VINA RESULT:     -11.5      2.150      3.157
REMARK  Name = 10156987
REMARK  5 active torsions:
REMARK  status: ('A' for Active; 'I' for Inactive)
REMARK    1  A    between atoms: C_2  and  C_23
REMARK    2  A    between atoms: C_9  and  C_13
REMARK    3  A    between atoms: C_23  and  N_24
REMARK    4  A    between atoms: C_25  and  C_31
REMARK    5  A    between atoms: C_31  and  N_32
REMARK                            x       y       z     vdW  Elec       q    Type
REMARK                         _______ _______ _______ _____ _____    ______ ____
ROOT
ATOM      1  N   UNL     1      36.150 -20.501 -19.867  0.00  0.00    -0.312 N 
ATOM      2  C   UNL     1      35.156 -18.473 -23.304  0.00  0.00    -0.043 C 
ATOM      3  C   UNL     1      34.275 -19.341 -22.658  0.00  0.00    -0.005 C 
ATOM      4  C   UNL     1      36.435 -18.242 -22.813  0.00  0.00    -0.005 C 
ATOM      5  C   UNL     1      34.700 -19.995 -21.484  0.00  0.00    +0.014 C 
ATOM      6  C   UNL     1      35.990 -19.749 -21.009  0.00  0.00    +0.048 C 
ATOM      7  C   UNL     1      36.879 -18.880 -21.651  0.00  0.00    +0.014 C 
ATOM      8  C   UNL     1      34.094 -20.919 -20.588  0.00  0.00    +0.016 C 
ATOM      9  C   UNL     1      35.010 -21.211 -19.605  0.00  0.00    +0.053 C 
ATOM     10  H   UNL     1      36.968 -20.525 -19.318  0.00  0.00    +0.152 HD
ENDROOT
BRANCH   9  13
ATOM     11  O   UNL     1      32.718 -22.701 -18.772  0.00  0.00    -0.270 OA
ATOM     12  N   UNL     1      33.806 -23.616 -16.975  0.00  0.00    -0.280 N 
ATOM     13  C   UNL     1      34.990 -22.056 -18.451  0.00  0.00    +0.067 C 
ATOM     14  C   UNL     1      36.094 -22.175 -17.694  0.00  0.00    +0.007 C 
ATOM     15  C   UNL     1      33.740 -22.810 -18.095  0.00  0.00    +0.251 C 
ATOM     16  C   UNL     1      36.110 -23.036 -16.514  0.00  0.00    +0.014 C 
ATOM     17  C   UNL     1      34.955 -23.747 -16.177  0.00  0.00    +0.051 C 
ATOM     18  C   UNL     1      37.252 -23.166 -15.718  0.00  0.00    +0.001 C 
ATOM     19  C   UNL     1      34.932 -24.583 -15.058  0.00  0.00    +0.015 C 
ATOM     20  C   UNL     1      37.232 -24.001 -14.598  0.00  0.00    +0.000 C 
ATOM     21  C   UNL     1      36.075 -24.707 -14.269  0.00  0.00    +0.001 C 
ATOM     22  H   UNL     1      33.003 -24.127 -16.722  0.00  0.00    +0.155 HD
ENDBRANCH   9  13
BRANCH   2  23
ATOM     23  C   UNL     1      34.710 -17.775 -24.555  0.00  0.00    -0.050 C 
BRANCH  23  24
ATOM     24  N   UNL     1      34.621 -16.326 -24.372  0.00  0.00    +0.390 N 
ATOM     25  C   UNL     1      33.343 -13.838 -23.492  0.00  0.00    -0.026 C 
ATOM     26  C   UNL     1      33.390 -14.263 -24.964  0.00  0.00    -0.025 C 
ATOM     27  C   UNL     1      34.509 -14.477 -22.732  0.00  0.00    -0.025 C 
ATOM     28  C   UNL     1      33.466 -15.784 -25.101  0.00  0.00    -0.077 C 
ATOM     29  C   UNL     1      34.549 -15.992 -22.943  0.00  0.00    -0.077 C 
ATOM     30  H   UNL     1      35.464 -15.896 -24.753  0.00  0.00    -0.079 HD
BRANCH  25  31
ATOM     31  C   UNL     1      33.368 -12.318 -23.359  0.00  0.00    -0.086 C 
BRANCH  31  32
ATOM     32  N   UNL     1      34.420 -11.742 -24.182  0.00  0.00    +0.380 N 
ATOM     33  H   UNL     1      34.012 -11.354 -25.032  0.00  0.00    -0.089 HD
ATOM     34  H   UNL     1      35.094 -12.467 -24.429  0.00  0.00    -0.089 HD
ATOM     35  H   UNL     1      34.892 -11.001 -23.663  0.00  0.00    -0.089 HD
ENDBRANCH  31  32
ENDBRANCH  25  31
ENDBRANCH  23  24
ENDBRANCH   2  23
TORSDOF 5
ENDMDL
MODEL 4
REMARK VINA RESULT:     -11.5      3.664     11.434
REMARK  Name = 10156987
REMARK  5 active torsions:
REMARK  status: ('A' for Active; 'I' for Inactive)
REMARK    1  A    between atoms: C_2  and  C_23
REMARK    2  A    between atoms: C_9  and  C_13
REMARK    3  A    between atoms: C_23  and  N_24
REMARK    4  A    between atoms: C_25  and  C_31
REMARK    5  A    between atoms: C_31  and  N_32
REMARK                            x       y       z     vdW  Elec       q    Type
REMARK                         _______ _______ _______ _____ _____    ______ ____
ROOT
ATOM      1  N   UNL     1      33.465 -13.967 -24.075  0.00  0.00    -0.312 N 
ATOM      2  C   UNL     1      35.339 -17.540 -23.278  0.00  0.00    -0.043 C 
ATOM      3  C   UNL     1      35.346 -16.469 -22.384  0.00  0.00    -0.005 C 
ATOM      4  C   UNL     1      34.688 -17.458 -24.502  0.00  0.00    -0.005 C 
ATOM      5  C   UNL     1      34.677 -15.280 -22.740  0.00  0.00    +0.014 C 
ATOM      6  C   UNL     1      34.030 -15.219 -23.977  0.00  0.00    +0.048 C 
ATOM      7  C   UNL     1      34.019 -16.290 -24.877  0.00  0.00    +0.014 C 
ATOM      8  C   UNL     1      34.481 -14.024 -22.104  0.00  0.00    +0.016 C 
ATOM      9  C   UNL     1      33.732 -13.238 -22.949  0.00  0.00    +0.053 C 
ATOM     10  H   UNL     1      32.944 -13.644 -24.846  0.00  0.00    +0.152 HD
ENDROOT
BRANCH   9  13
ATOM     11  O   UNL     1      31.320 -12.540 -21.585  0.00  0.00    -0.270 OA
ATOM     12  N   UNL     1      31.533 -10.312 -22.080  0.00  0.00    -0.280 N 
ATOM     13  C   UNL     1      33.223 -11.904 -22.871  0.00  0.00    +0.067 C 
ATOM     14  C   UNL     1      33.892 -10.901 -23.464  0.00  0.00    +0.007 C 
ATOM     15  C   UNL     1      31.950 -11.629 -22.122  0.00  0.00    +0.251 C 
ATOM     16  C   UNL     1      33.405  -9.525 -23.396  0.00  0.00    +0.014 C 
ATOM     17  C   UNL     1      32.225  -9.257 -22.696  0.00  0.00    +0.051 C 
ATOM     18  C   UNL     1      34.092  -8.474 -24.010  0.00  0.00    +0.001 C 
ATOM     19  C   UNL     1      31.729  -7.954 -22.607  0.00  0.00    +0.015 C 
ATOM     20  C   UNL     1      33.598  -7.170 -23.922  0.00  0.00    +0.000 C 
ATOM     21  C   UNL     1      32.419  -6.911 -23.223  0.00  0.00    +0.001 C 
ATOM     22  H   UNL     1      30.704 -10.103 -21.591  0.00  0.00    +0.155 HD
ENDBRANCH   9  13
BRANCH   2  23
ATOM     23  C   UNL     1      36.051 -18.808 -22.905  0.00  0.00    -0.050 C 
BRANCH  23  24
ATOM     24  N   UNL     1      35.504 -19.405 -21.687  0.00  0.00    +0.390 N 
ATOM     25  C   UNL     1      34.456 -21.601 -20.050  0.00  0.00    -0.026 C 
ATOM     26  C   UNL     1      33.551 -20.524 -20.658  0.00  0.00    -0.025 C 
ATOM     27  C   UNL     1      35.873 -21.046 -19.872  0.00  0.00    -0.025 C 
ATOM     28  C   UNL     1      34.159 -19.943 -21.936  0.00  0.00    -0.077 C 
ATOM     29  C   UNL     1      36.405 -20.448 -21.176  0.00  0.00    -0.077 C 
ATOM     30  H   UNL     1      35.426 -18.681 -20.974  0.00  0.00    -0.079 HD
BRANCH  25  31
ATOM     31  C   UNL     1      33.894 -22.106 -18.723  0.00  0.00    -0.086 C 
BRANCH  31  32
ATOM     32  N   UNL     1      32.441 -22.058 -18.724  0.00  0.00    +0.380 N 
ATOM     33  H   UNL     1      32.077 -22.772 -18.093  0.00  0.00    -0.089 HD
ATOM     34  H   UNL     1      32.095 -22.232 -19.668  0.00  0.00    -0.089 HD
ATOM     35  H   UNL     1      32.130 -21.138 -18.412  0.00  0.00    -0.089 HD
ENDBRANCH  31  32
ENDBRANCH  25  31
ENDBRANCH  23  24
ENDBRANCH   2  23
TORSDOF 5
ENDMDL
MODEL 5
REMARK VINA RESULT:     -11.2      7.108     11.499
REMARK  Name = 10156987
REMARK  5 active torsions:
REMARK  status: ('A' for Active; 'I' for Inactive)
REMARK    1  A    between atoms: C_2  and  C_23
REMARK    2  A    between atoms: C_9  and  C_13
REMARK    3  A    between atoms: C_23  and  N_24
REMARK    4  A    between atoms: C_25  and  C_31
REMARK    5  A    between atoms: C_31  and  N_32
REMARK                            x       y       z     vdW  Elec       q    Type
REMARK                         _______ _______ _______ _____ _____    ______ ____
ROOT
ATOM      1  N   UNL     1      32.698 -12.200 -22.918  0.00  0.00    -0.312 N 
ATOM      2  C   UNL     1      33.059  -8.103 -22.875  0.00  0.00    -0.043 C 
ATOM      3  C   UNL     1      33.875  -8.924 -23.654  0.00  0.00    -0.005 C 
ATOM      4  C   UNL     1      32.065  -8.633 -22.062  0.00  0.00    -0.005 C 
ATOM      5  C   UNL     1      33.681 -10.320 -23.607  0.00  0.00    +0.014 C 
ATOM      6  C   UNL     1      32.677 -10.830 -22.781  0.00  0.00    +0.048 C 
ATOM      7  C   UNL     1      31.855 -10.013 -21.998  0.00  0.00    +0.014 C 
ATOM      8  C   UNL     1      34.304 -11.430 -24.242  0.00  0.00    +0.016 C 
ATOM      9  C   UNL     1      33.678 -12.572 -23.798  0.00  0.00    +0.053 C 
ATOM     10  H   UNL     1      32.096 -12.823 -22.449  0.00  0.00    +0.152 HD
ENDROOT
BRANCH   9  13
ATOM     11  O   UNL     1      32.702 -13.864 -26.152  0.00  0.00    -0.270 OA
ATOM     12  N   UNL     1      33.534 -15.907 -25.532  0.00  0.00    -0.280 N 
ATOM     13  C   UNL     1      33.852 -13.965 -24.067  0.00  0.00    +0.067 C 
ATOM     14  C   UNL     1      34.504 -14.738 -23.182  0.00  0.00    +0.007 C 
ATOM     15  C   UNL     1      33.312 -14.557 -25.339  0.00  0.00    +0.251 C 
ATOM     16  C   UNL     1      34.707 -16.163 -23.430  0.00  0.00    +0.014 C 
ATOM     17  C   UNL     1      34.215 -16.723 -24.613  0.00  0.00    +0.051 C 
ATOM     18  C   UNL     1      35.382 -16.977 -22.516  0.00  0.00    +0.001 C 
ATOM     19  C   UNL     1      34.391 -18.081 -24.887  0.00  0.00    +0.015 C 
ATOM     20  C   UNL     1      35.560 -18.336 -22.787  0.00  0.00    +0.000 C 
ATOM     21  C   UNL     1      35.065 -18.886 -23.969  0.00  0.00    +0.001 C 
ATOM     22  H   UNL     1      33.197 -16.320 -26.359  0.00  0.00    +0.155 HD
ENDBRANCH   9  13
BRANCH   2  23
ATOM     23  C   UNL     1      33.261  -6.617 -22.920  0.00  0.00    -0.050 C 
BRANCH  23  24
ATOM     24  N   UNL     1      33.303  -6.111 -24.292  0.00  0.00    +0.390 N 
ATOM     25  C   UNL     1      33.920  -4.139 -26.373  0.00  0.00    -0.026 C 
ATOM     26  C   UNL     1      32.496  -4.370 -25.855  0.00  0.00    -0.025 C 
ATOM     27  C   UNL     1      34.758  -5.404 -26.165  0.00  0.00    -0.025 C 
ATOM     28  C   UNL     1      32.506  -4.883 -24.413  0.00  0.00    -0.077 C 
ATOM     29  C   UNL     1      34.693  -5.883 -24.713  0.00  0.00    -0.077 C 
ATOM     30  H   UNL     1      32.898  -6.812 -24.912  0.00  0.00    -0.079 HD
BRANCH  25  31
ATOM     31  C   UNL     1      33.908  -3.724 -27.842  0.00  0.00    -0.086 C 
BRANCH  31  32
ATOM     32  N   UNL     1      35.091  -4.217 -28.530  0.00  0.00    +0.380 N 
ATOM     33  H   UNL     1      35.584  -3.435 -28.960  0.00  0.00    -0.089 HD
ATOM     34  H   UNL     1      34.812  -4.881 -29.252  0.00  0.00    -0.089 HD
ATOM     35  H   UNL     1      35.706  -4.680 -27.860  0.00  0.00    -0.089 HD
ENDBRANCH  31  32
ENDBRANCH  25  31
ENDBRANCH  23  24
ENDBRANCH   2  23
TORSDOF 5
ENDMDL
MODEL 6
REMARK VINA RESULT:     -11.2      2.628      3.770
REMARK  Name = 10156987
REMARK  5 active torsions:
REMARK  status: ('A' for Active; 'I' for Inactive)
REMARK    1  A    between atoms: C_2  and  C_23
REMARK    2  A    between atoms: C_9  and  C_13
REMARK    3  A    between atoms: C_23  and  N_24
REMARK    4  A    between atoms: C_25  and  C_31
REMARK    5  A    between atoms: C_31  and  N_32
REMARK                            x       y       z     vdW  Elec       q    Type
REMARK                         _______ _______ _______ _____ _____    ______ ____
ROOT
ATOM      1  N   UNL     1      34.466 -22.417 -17.851  0.00  0.00    -0.312 N 
ATOM      2  C   UNL     1      35.193 -20.279 -21.289  0.00  0.00    -0.043 C 
ATOM      3  C   UNL     1      36.209 -20.682 -20.422  0.00  0.00    -0.005 C 
ATOM      4  C   UNL     1      33.862 -20.584 -21.035  0.00  0.00    -0.005 C 
ATOM      5  C   UNL     1      35.869 -21.412 -19.265  0.00  0.00    +0.014 C 
ATOM      6  C   UNL     1      34.524 -21.706 -19.029  0.00  0.00    +0.048 C 
ATOM      7  C   UNL     1      33.500 -21.306 -19.894  0.00  0.00    +0.014 C 
ATOM      8  C   UNL     1      36.613 -21.970 -18.189  0.00  0.00    +0.016 C 
ATOM      9  C   UNL     1      35.724 -22.581 -17.336  0.00  0.00    +0.053 C 
ATOM     10  H   UNL     1      33.639 -22.757 -17.438  0.00  0.00    +0.152 HD
ENDROOT
BRANCH   9  13
ATOM     11  O   UNL     1      33.534 -23.198 -15.607  0.00  0.00    -0.270 OA
ATOM     12  N   UNL     1      34.867 -24.297 -14.100  0.00  0.00    -0.280 N 
ATOM     13  C   UNL     1      35.863 -23.297 -16.107  0.00  0.00    +0.067 C 
ATOM     14  C   UNL     1      37.078 -23.715 -15.713  0.00  0.00    +0.007 C 
ATOM     15  C   UNL     1      34.652 -23.586 -15.266  0.00  0.00    +0.251 C 
ATOM     16  C   UNL     1      37.254 -24.458 -14.467  0.00  0.00    +0.014 C 
ATOM     17  C   UNL     1      36.133 -24.738 -13.681  0.00  0.00    +0.051 C 
ATOM     18  C   UNL     1      38.513 -24.896 -14.048  0.00  0.00    +0.001 C 
ATOM     19  C   UNL     1      36.261 -25.448 -12.484  0.00  0.00    +0.015 C 
ATOM     20  C   UNL     1      38.643 -25.607 -12.852  0.00  0.00    +0.000 C 
ATOM     21  C   UNL     1      37.520 -25.881 -12.072  0.00  0.00    +0.001 C 
ATOM     22  H   UNL     1      34.090 -24.505 -13.533  0.00  0.00    +0.155 HD
ENDBRANCH   9  13
BRANCH   2  23
ATOM     23  C   UNL     1      35.549 -19.501 -22.522  0.00  0.00    -0.050 C 
BRANCH  23  24
ATOM     24  N   UNL     1      34.919 -18.181 -22.537  0.00  0.00    +0.390 N 
ATOM     25  C   UNL     1      34.876 -15.267 -22.863  0.00  0.00    -0.026 C 
ATOM     26  C   UNL     1      34.841 -15.941 -21.487  0.00  0.00    -0.025 C 
ATOM     27  C   UNL     1      34.314 -16.222 -23.921  0.00  0.00    -0.025 C 
ATOM     28  C   UNL     1      35.525 -17.309 -21.521  0.00  0.00    -0.077 C 
ATOM     29  C   UNL     1      35.015 -17.581 -23.875  0.00  0.00    -0.077 C 
ATOM     30  H   UNL     1      33.930 -18.288 -22.310  0.00  0.00    -0.079 HD
BRANCH  25  31
ATOM     31  C   UNL     1      34.106 -13.949 -22.848  0.00  0.00    -0.086 C 
BRANCH  31  32
ATOM     32  N   UNL     1      33.202 -13.863 -23.985  0.00  0.00    +0.380 N 
ATOM     33  H   UNL     1      32.261 -14.122 -23.691  0.00  0.00    -0.089 HD
ATOM     34  H   UNL     1      33.516 -14.500 -24.718  0.00  0.00    -0.089 HD
ATOM     35  H   UNL     1      33.196 -12.908 -24.344  0.00  0.00    -0.089 HD
ENDBRANCH  31  32
ENDBRANCH  25  31
ENDBRANCH  23  24
ENDBRANCH   2  23
TORSDOF 5
ENDMDL
MODEL 7
REMARK VINA RESULT:     -11.0      7.142     11.584
REMARK  Name = 10156987
REMARK  5 active torsions:
REMARK  status: ('A' for Active; 'I' for Inactive)
REMARK    1  A    between atoms: C_2  and  C_23
REMARK    2  A    between atoms: C_9  and  C_13
REMARK    3  A    between atoms: C_23  and  N_24
REMARK    4  A    between atoms: C_25  and  C_31
REMARK    5  A    between atoms: C_31  and  N_32
REMARK                            x       y       z     vdW  Elec       q    Type
REMARK                         _______ _______ _______ _____ _____    ______ ____
ROOT
ATOM      1  N   UNL     1      34.507 -11.886 -24.411  0.00  0.00    -0.312 N 
ATOM      2  C   UNL     1      33.285  -8.323 -22.758  0.00  0.00    -0.043 C 
ATOM      3  C   UNL     1      32.676  -9.542 -22.459  0.00  0.00    -0.005 C 
ATOM      4  C   UNL     1      34.354  -8.246 -23.642  0.00  0.00    -0.005 C 
ATOM      5  C   UNL     1      33.161 -10.715 -23.072  0.00  0.00    +0.014 C 
ATOM      6  C   UNL     1      34.235 -10.614 -23.958  0.00  0.00    +0.048 C 
ATOM      7  C   UNL     1      34.852  -9.395 -24.263  0.00  0.00    +0.014 C 
ATOM      8  C   UNL     1      32.799 -12.089 -23.010  0.00  0.00    +0.016 C 
ATOM      9  C   UNL     1      33.644 -12.784 -23.843  0.00  0.00    +0.053 C 
ATOM     10  H   UNL     1      35.220 -12.116 -25.051  0.00  0.00    +0.152 HD
ENDROOT
BRANCH   9  13
ATOM     11  O   UNL     1      32.639 -13.897 -26.275  0.00  0.00    -0.270 OA
ATOM     12  N   UNL     1      33.404 -16.000 -25.778  0.00  0.00    -0.280 N 
ATOM     13  C   UNL     1      33.775 -14.163 -24.197  0.00  0.00    +0.067 C 
ATOM     14  C   UNL     1      34.398 -15.009 -23.358  0.00  0.00    +0.007 C 
ATOM     15  C   UNL     1      33.224 -14.658 -25.504  0.00  0.00    +0.251 C 
ATOM     16  C   UNL     1      34.557 -16.422 -23.693  0.00  0.00    +0.014 C 
ATOM     17  C   UNL     1      34.053 -16.892 -24.910  0.00  0.00    +0.051 C 
ATOM     18  C   UNL     1      35.201 -17.312 -22.828  0.00  0.00    +0.001 C 
ATOM     19  C   UNL     1      34.188 -18.236 -25.266  0.00  0.00    +0.015 C 
ATOM     20  C   UNL     1      35.337 -18.656 -23.182  0.00  0.00    +0.000 C 
ATOM     21  C   UNL     1      34.831 -19.117 -24.397  0.00  0.00    +0.001 C 
ATOM     22  H   UNL     1      33.057 -16.350 -26.631  0.00  0.00    +0.155 HD
ENDBRANCH   9  13
BRANCH   2  23
ATOM     23  C   UNL     1      32.773  -7.070 -22.110  0.00  0.00    -0.050 C 
BRANCH  23  24
ATOM     24  N   UNL     1      32.225  -6.132 -23.088  0.00  0.00    +0.390 N 
ATOM     25  C   UNL     1      31.898  -3.504 -24.348  0.00  0.00    -0.026 C 
ATOM     26  C   UNL     1      30.835  -4.113 -23.428  0.00  0.00    -0.025 C 
ATOM     27  C   UNL     1      32.737  -4.620 -24.979  0.00  0.00    -0.025 C 
ATOM     28  C   UNL     1      31.460  -5.073 -22.414  0.00  0.00    -0.077 C 
ATOM     29  C   UNL     1      33.299  -5.564 -23.914  0.00  0.00    -0.077 C 
ATOM     30  H   UNL     1      31.588  -6.636 -23.705  0.00  0.00    -0.079 HD
BRANCH  25  31
ATOM     31  C   UNL     1      31.259  -2.625 -25.420  0.00  0.00    -0.086 C 
BRANCH  31  32
ATOM     32  N   UNL     1      29.958  -2.141 -24.986  0.00  0.00    +0.380 N 
ATOM     33  H   UNL     1      29.508  -1.642 -25.753  0.00  0.00    -0.089 HD
ATOM     34  H   UNL     1      30.077  -1.509 -24.194  0.00  0.00    -0.089 HD
ATOM     35  H   UNL     1      29.376  -2.931 -24.706  0.00  0.00    -0.089 HD
ENDBRANCH  31  32
ENDBRANCH  25  31
ENDBRANCH  23  24
ENDBRANCH   2  23
TORSDOF 5
ENDMDL
MODEL 8
REMARK VINA RESULT:     -10.9      4.450     12.274
REMARK  Name = 10156987
REMARK  5 active torsions:
REMARK  status: ('A' for Active; 'I' for Inactive)
REMARK    1  A    between atoms: C_2  and  C_23
REMARK    2  A    between atoms: C_9  and  C_13
REMARK    3  A    between atoms: C_23  and  N_24
REMARK    4  A    between atoms: C_25  and  C_31
REMARK    5  A    between atoms: C_31  and  N_32
REMARK                            x       y       z     vdW  Elec       q    Type
REMARK                         _______ _______ _______ _____ _____    ______ ____
ROOT
ATOM      1  N   UNL     1      33.588 -12.480 -21.668  0.00  0.00    -0.312 N 
ATOM      2  C   UNL     1      34.943 -16.284 -22.452  0.00  0.00    -0.043 C 
ATOM      3  C   UNL     1      34.702 -15.346 -23.457  0.00  0.00    -0.005 C 
ATOM      4  C   UNL     1      34.737 -15.978 -21.112  0.00  0.00    -0.005 C 
ATOM      5  C   UNL     1      34.238 -14.065 -23.097  0.00  0.00    +0.014 C 
ATOM      6  C   UNL     1      34.037 -13.780 -21.745  0.00  0.00    +0.048 C 
ATOM      7  C   UNL     1      34.277 -14.714 -20.732  0.00  0.00    +0.014 C 
ATOM      8  C   UNL     1      33.896 -12.893 -23.826  0.00  0.00    +0.016 C 
ATOM      9  C   UNL     1      33.500 -11.936 -22.921  0.00  0.00    +0.053 C 
ATOM     10  H   UNL     1      33.363 -12.010 -20.832  0.00  0.00    +0.152 HD
ENDROOT
BRANCH   9  13
ATOM     11  O   UNL     1      30.935 -11.039 -22.035  0.00  0.00    -0.270 OA
ATOM     12  N   UNL     1      31.329  -8.874 -22.676  0.00  0.00    -0.280 N 
ATOM     13  C   UNL     1      33.048 -10.585 -23.041  0.00  0.00    +0.067 C 
ATOM     14  C   UNL     1      33.850  -9.662 -23.599  0.00  0.00    +0.007 C 
ATOM     15  C   UNL     1      31.685 -10.202 -22.537  0.00  0.00    +0.251 C 
ATOM     16  C   UNL     1      33.423  -8.271 -23.729  0.00  0.00    +0.014 C 
ATOM     17  C   UNL     1      32.159  -7.902 -23.257  0.00  0.00    +0.051 C 
ATOM     18  C   UNL     1      34.247  -7.302 -24.309  0.00  0.00    +0.001 C 
ATOM     19  C   UNL     1      31.717  -6.581 -23.362  0.00  0.00    +0.015 C 
ATOM     20  C   UNL     1      33.807  -5.981 -24.414  0.00  0.00    +0.000 C 
ATOM     21  C   UNL     1      32.545  -5.621 -23.942  0.00  0.00    +0.001 C 
ATOM     22  H   UNL     1      30.443  -8.594 -22.349  0.00  0.00    +0.155 HD
ENDBRANCH   9  13
BRANCH   2  23
ATOM     23  C   UNL     1      35.436 -17.650 -22.829  0.00  0.00    -0.050 C 
BRANCH  23  24
ATOM     24  N   UNL     1      35.431 -18.567 -21.689  0.00  0.00    +0.390 N 
ATOM     25  C   UNL     1      35.795 -21.163 -20.373  0.00  0.00    -0.026 C 
ATOM     26  C   UNL     1      34.411 -20.594 -20.701  0.00  0.00    -0.025 C 
ATOM     27  C   UNL     1      36.803 -20.018 -20.229  0.00  0.00    -0.025 C 
ATOM     28  C   UNL     1      34.466 -19.655 -21.907  0.00  0.00    -0.077 C 
ATOM     29  C   UNL     1      36.781 -19.097 -21.451  0.00  0.00    -0.077 C 
ATOM     30  H   UNL     1      35.143 -18.054 -20.857  0.00  0.00    -0.079 HD
BRANCH  25  31
ATOM     31  C   UNL     1      35.752 -22.019 -19.110  0.00  0.00    -0.086 C 
BRANCH  31  32
ATOM     32  N   UNL     1      36.764 -21.589 -18.157  0.00  0.00    +0.380 N 
ATOM     33  H   UNL     1      37.602 -22.157 -18.273  0.00  0.00    -0.089 HD
ATOM     34  H   UNL     1      36.406 -21.701 -17.208  0.00  0.00    -0.089 HD
ATOM     35  H   UNL     1      36.991 -20.608 -18.321  0.00  0.00    -0.089 HD
ENDBRANCH  31  32
ENDBRANCH  25  31
ENDBRANCH  23  24
ENDBRANCH   2  23
TORSDOF 5
ENDMDL
MODEL 9
REMARK VINA RESULT:     -10.9      3.560     11.093
REMARK  Name = 10156987
REMARK  5 active torsions:
REMARK  status: ('A' for Active; 'I' for Inactive)
REMARK    1  A    between atoms: C_2  and  C_23
REMARK    2  A    between atoms: C_9  and  C_13
REMARK    3  A    between atoms: C_23  and  N_24
REMARK    4  A    between atoms: C_25  and  C_31
REMARK    5  A    between atoms: C_31  and  N_32
REMARK                            x       y       z     vdW  Elec       q    Type
REMARK                         _______ _______ _______ _____ _____    ______ ____
ROOT
ATOM      1  N   UNL     1      33.929 -14.706 -24.054  0.00  0.00    -0.312 N 
ATOM      2  C   UNL     1      35.574 -18.169 -22.562  0.00  0.00    -0.043 C 
ATOM      3  C   UNL     1      35.500 -16.988 -21.822  0.00  0.00    -0.005 C 
ATOM      4  C   UNL     1      35.087 -18.240 -23.862  0.00  0.00    -0.005 C 
ATOM      5  C   UNL     1      34.920 -15.848 -22.414  0.00  0.00    +0.014 C 
ATOM      6  C   UNL     1      34.438 -15.942 -23.721  0.00  0.00    +0.048 C 
ATOM      7  C   UNL     1      34.508 -17.122 -24.469  0.00  0.00    +0.014 C 
ATOM      8  C   UNL     1      34.682 -14.515 -21.976  0.00  0.00    +0.016 C 
ATOM      9  C   UNL     1      34.073 -13.838 -23.006  0.00  0.00    +0.053 C 
ATOM     10  H   UNL     1      33.522 -14.480 -24.922  0.00  0.00    +0.152 HD
ENDROOT
BRANCH   9  13
ATOM     11  O   UNL     1      34.342 -12.347 -25.428  0.00  0.00    -0.270 OA
ATOM     12  N   UNL     1      33.280 -10.508 -24.566  0.00  0.00    -0.280 N 
ATOM     13  C   UNL     1      33.600 -12.498 -23.169  0.00  0.00    +0.067 C 
ATOM     14  C   UNL     1      32.993 -11.877 -22.143  0.00  0.00    +0.007 C 
ATOM     15  C   UNL     1      33.777 -11.795 -24.484  0.00  0.00    +0.251 C 
ATOM     16  C   UNL     1      32.491 -10.512 -22.278  0.00  0.00    +0.014 C 
ATOM     17  C   UNL     1      32.644  -9.851 -23.500  0.00  0.00    +0.051 C 
ATOM     18  C   UNL     1      31.859  -9.856 -21.217  0.00  0.00    +0.001 C 
ATOM     19  C   UNL     1      32.174  -8.546 -23.668  0.00  0.00    +0.015 C 
ATOM     20  C   UNL     1      31.388  -8.551 -21.384  0.00  0.00    +0.000 C 
ATOM     21  C   UNL     1      31.546  -7.898 -22.606  0.00  0.00    +0.001 C 
ATOM     22  H   UNL     1      33.377 -10.025 -25.419  0.00  0.00    +0.155 HD
ENDBRANCH   9  13
BRANCH   2  23
ATOM     23  C   UNL     1      36.192 -19.386 -21.939  0.00  0.00    -0.050 C 
BRANCH  23  24
ATOM     24  N   UNL     1      35.362 -19.932 -20.865  0.00  0.00    +0.390 N 
ATOM     25  C   UNL     1      33.719 -21.986 -19.568  0.00  0.00    -0.026 C 
ATOM     26  C   UNL     1      33.112 -20.747 -20.234  0.00  0.00    -0.025 C 
ATOM     27  C   UNL     1      35.157 -21.687 -19.133  0.00  0.00    -0.025 C 
ATOM     28  C   UNL     1      34.008 -20.224 -21.358  0.00  0.00    -0.077 C 
ATOM     29  C   UNL     1      35.987 -21.133 -20.294  0.00  0.00    -0.077 C 
ATOM     30  H   UNL     1      35.284 -19.236 -20.125  0.00  0.00    -0.079 HD
BRANCH  25  31
ATOM     31  C   UNL     1      32.872 -22.444 -18.384  0.00  0.00    -0.086 C 
BRANCH  31  32
ATOM     32  N   UNL     1      33.636 -23.314 -17.504  0.00  0.00    +0.380 N 
ATOM     33  H   UNL     1      34.565 -22.919 -17.358  0.00  0.00    -0.089 HD
ATOM     34  H   UNL     1      33.723 -24.237 -17.930  0.00  0.00    -0.089 HD
ATOM     35  H   UNL     1      33.157 -23.397 -16.607  0.00  0.00    -0.089 HD
ENDBRANCH  31  32
ENDBRANCH  25  31
ENDBRANCH  23  24
ENDBRANCH   2  23
TORSDOF 5
ENDMDL
