MODEL 1
REMARK VINA RESULT:     -11.1      0.000      0.000
REMARK  Name = 25147644
REMARK  4 active torsions:
REMARK  status: ('A' for Active; 'I' for Inactive)
REMARK    1  A    between atoms: C_3  and  N_11
REMARK    2  A    between atoms: C_4  and  C_23
REMARK    3  A    between atoms: C_12  and  C_15
REMARK    4  A    between atoms: C_23  and  C_25
REMARK                            x       y       z     vdW  Elec       q    Type
REMARK                         _______ _______ _______ _____ _____    ______ ____
ROOT
ATOM      1  N   UNL     1      32.274 -24.083 -13.574  0.00  0.00    +0.390 N 
ATOM      2  C   UNL     1      31.010 -23.976 -15.846  0.00  0.00    +0.012 C 
ATOM      3  C   UNL     1      32.536 -24.065 -16.063  0.00  0.00    +0.053 C 
ATOM      4  C   UNL     1      33.244 -23.914 -14.691  0.00  0.00    -0.035 C 
ATOM      5  C   UNL     1      30.689 -22.752 -14.971  0.00  0.00    -0.021 C 
ATOM      6  C   UNL     1      30.605 -25.227 -15.047  0.00  0.00    -0.021 C 
ATOM      7  C   UNL     1      31.359 -22.917 -13.594  0.00  0.00    -0.077 C 
ATOM      8  C   UNL     1      31.455 -25.303 -13.767  0.00  0.00    -0.077 C 
ATOM      9  H   UNL     1      32.784 -24.159 -12.693  0.00  0.00    -0.080 HD
ENDROOT
BRANCH   3  11
ATOM     10  O   UNL     1      33.721 -24.608 -18.621  0.00  0.00    -0.267 OA
ATOM     11  N   UNL     1      33.011 -23.092 -17.016  0.00  0.00    -0.302 N 
ATOM     12  C   UNL     1      33.572 -23.452 -18.232  0.00  0.00    +0.280 C 
ATOM     13  H   UNL     1      32.934 -22.136 -16.793  0.00  0.00    +0.150 HD
BRANCH  12  15
ATOM     14  O   UNL     1      35.371 -22.081 -19.138  0.00  0.00    -0.449 OA
ATOM     15  C   UNL     1      34.036 -22.332 -19.090  0.00  0.00    +0.198 C 
ATOM     16  C   UNL     1      33.347 -21.451 -19.890  0.00  0.00    +0.045 C 
ATOM     17  C   UNL     1      34.317 -20.595 -20.474  0.00  0.00    +0.038 C 
ATOM     18  C   UNL     1      35.545 -21.024 -19.979  0.00  0.00    +0.146 C 
ATOM     19  C   UNL     1      34.295 -19.507 -21.363  0.00  0.00    +0.003 C 
ATOM     20  C   UNL     1      36.767 -20.441 -20.309  0.00  0.00    +0.037 C 
ATOM     21  C   UNL     1      35.508 -18.900 -21.714  0.00  0.00    +0.000 C 
ATOM     22  C   UNL     1      36.721 -19.361 -21.196  0.00  0.00    +0.003 C 
ENDBRANCH  12  15
ENDBRANCH   3  11
BRANCH   4  23
ATOM     23  C   UNL     1      34.433 -24.870 -14.560  0.00  0.00    +0.009 C 
BRANCH  23  25
ATOM     24  N   UNL     1      37.579 -23.135 -13.376  0.00  0.00    -0.243 NA
ATOM     25  C   UNL     1      35.486 -24.316 -13.642  0.00  0.00    -0.005 C 
ATOM     26  C   UNL     1      35.378 -24.453 -12.263  0.00  0.00    -0.001 C 
ATOM     27  C   UNL     1      36.596 -23.655 -14.145  0.00  0.00    +0.095 C 
ATOM     28  C   UNL     1      36.371 -23.931 -11.439  0.00  0.00    +0.020 C 
ATOM     29  C   UNL     1      37.441 -23.287 -12.039  0.00  0.00    +0.099 C 
ENDBRANCH  23  25
ENDBRANCH   4  23
TORSDOF 4
ENDMDL
MODEL 2
REMARK VINA RESULT:     -10.7      1.549      4.388
REMARK  Name = 25147644
REMARK  4 active torsions:
REMARK  status: ('A' for Active; 'I' for Inactive)
REMARK    1  A    between atoms: C_3  and  N_11
REMARK    2  A    between atoms: C_4  and  C_23
REMARK    3  A    between atoms: C_12  and  C_15
REMARK    4  A    between atoms: C_23  and  C_25
REMARK                            x       y       z     vdW  Elec       q    Type
REMARK                         _______ _______ _______ _____ _____    ______ ____
ROOT
ATOM      1  N   UNL     1      35.989 -25.770 -13.444  0.00  0.00    +0.390 N 
ATOM      2  C   UNL     1      37.538 -23.857 -14.291  0.00  0.00    +0.012 C 
ATOM      3  C   UNL     1      36.060 -23.411 -14.275  0.00  0.00    +0.053 C 
ATOM      4  C   UNL     1      35.169 -24.643 -13.968  0.00  0.00    -0.035 C 
ATOM      5  C   UNL     1      37.680 -25.118 -15.162  0.00  0.00    -0.021 C 
ATOM      6  C   UNL     1      37.892 -24.258 -12.848  0.00  0.00    -0.021 C 
ATOM      7  C   UNL     1      36.842 -26.259 -14.554  0.00  0.00    -0.077 C 
ATOM      8  C   UNL     1      36.884 -25.310 -12.356  0.00  0.00    -0.077 C 
ATOM      9  H   UNL     1      35.371 -26.498 -13.083  0.00  0.00    -0.080 HD
ENDROOT
BRANCH   3  11
ATOM     10  O   UNL     1      34.701 -24.631 -16.491  0.00  0.00    -0.267 OA
ATOM     11  N   UNL     1      35.669 -22.767 -15.506  0.00  0.00    -0.302 N 
ATOM     12  C   UNL     1      35.014 -23.443 -16.524  0.00  0.00    +0.280 C 
ATOM     13  H   UNL     1      35.877 -21.813 -15.627  0.00  0.00    +0.150 HD
BRANCH  12  15
ATOM     14  O   UNL     1      35.742 -22.073 -18.403  0.00  0.00    -0.449 OA
ATOM     15  C   UNL     1      34.704 -22.644 -17.739  0.00  0.00    +0.198 C 
ATOM     16  C   UNL     1      33.511 -22.355 -18.358  0.00  0.00    +0.045 C 
ATOM     17  C   UNL     1      33.828 -21.548 -19.482  0.00  0.00    +0.038 C 
ATOM     18  C   UNL     1      35.212 -21.404 -19.465  0.00  0.00    +0.146 C 
ATOM     19  C   UNL     1      33.101 -20.924 -20.510  0.00  0.00    +0.003 C 
ATOM     20  C   UNL     1      35.934 -20.675 -20.408  0.00  0.00    +0.037 C 
ATOM     21  C   UNL     1      33.799 -20.183 -21.474  0.00  0.00    +0.000 C 
ATOM     22  C   UNL     1      35.190 -20.063 -21.422  0.00  0.00    +0.003 C 
ENDBRANCH  12  15
ENDBRANCH   3  11
BRANCH   4  23
ATOM     23  C   UNL     1      34.021 -24.289 -13.019  0.00  0.00    +0.009 C 
BRANCH  23  25
ATOM     24  N   UNL     1      30.709 -25.478 -14.408  0.00  0.00    -0.243 NA
ATOM     25  C   UNL     1      32.699 -24.281 -13.734  0.00  0.00    -0.005 C 
ATOM     26  C   UNL     1      32.234 -23.135 -14.368  0.00  0.00    -0.001 C 
ATOM     27  C   UNL     1      31.906 -25.417 -13.782  0.00  0.00    +0.095 C 
ATOM     28  C   UNL     1      31.007 -23.158 -15.023  0.00  0.00    +0.020 C 
ATOM     29  C   UNL     1      30.289 -24.344 -15.014  0.00  0.00    +0.099 C 
ENDBRANCH  23  25
ENDBRANCH   4  23
TORSDOF 4
ENDMDL
MODEL 3
REMARK VINA RESULT:      -8.7     12.625     17.653
REMARK  Name = 25147644
REMARK  4 active torsions:
REMARK  status: ('A' for Active; 'I' for Inactive)
REMARK    1  A    between atoms: C_3  and  N_11
REMARK    2  A    between atoms: C_4  and  C_23
REMARK    3  A    between atoms: C_12  and  C_15
REMARK    4  A    between atoms: C_23  and  C_25
REMARK                            x       y       z     vdW  Elec       q    Type
REMARK                         _______ _______ _______ _____ _____    ______ ____
ROOT
ATOM      1  N   UNL     1      32.159  -5.513 -23.837  0.00  0.00    +0.390 N 
ATOM      2  C   UNL     1      31.821  -7.409 -22.086  0.00  0.00    +0.012 C 
ATOM      3  C   UNL     1      33.021  -7.712 -23.011  0.00  0.00    +0.053 C 
ATOM      4  C   UNL     1      33.046  -6.666 -24.155  0.00  0.00    -0.035 C 
ATOM      5  C   UNL     1      30.558  -7.206 -22.942  0.00  0.00    -0.021 C 
ATOM      6  C   UNL     1      32.125  -6.068 -21.397  0.00  0.00    -0.021 C 
ATOM      7  C   UNL     1      30.759  -5.999 -23.876  0.00  0.00    -0.077 C 
ATOM      8  C   UNL     1      32.423  -5.006 -22.470  0.00  0.00    -0.077 C 
ATOM      9  H   UNL     1      32.326  -4.763 -24.509  0.00  0.00    -0.080 HD
ENDROOT
BRANCH   3  11
ATOM     10  O   UNL     1      35.286  -9.344 -23.682  0.00  0.00    -0.267 OA
ATOM     11  N   UNL     1      32.989  -9.060 -23.524  0.00  0.00    -0.302 N 
ATOM     12  C   UNL     1      34.143  -9.771 -23.820  0.00  0.00    +0.280 C 
ATOM     13  H   UNL     1      32.116  -9.490 -23.669  0.00  0.00    +0.150 HD
BRANCH  12  15
ATOM     14  O   UNL     1      34.049 -12.186 -23.506  0.00  0.00    -0.449 OA
ATOM     15  C   UNL     1      33.940 -11.139 -24.365  0.00  0.00    +0.198 C 
ATOM     16  C   UNL     1      33.648 -11.579 -25.635  0.00  0.00    +0.045 C 
ATOM     17  C   UNL     1      33.571 -12.994 -25.561  0.00  0.00    +0.038 C 
ATOM     18  C   UNL     1      33.825 -13.317 -24.231  0.00  0.00    +0.146 C 
ATOM     19  C   UNL     1      33.315 -14.037 -26.468  0.00  0.00    +0.003 C 
ATOM     20  C   UNL     1      33.843 -14.618 -23.733  0.00  0.00    +0.037 C 
ATOM     21  C   UNL     1      33.327 -15.357 -25.996  0.00  0.00    +0.000 C 
ATOM     22  C   UNL     1      33.586 -15.640 -24.652  0.00  0.00    +0.003 C 
ENDBRANCH  12  15
ENDBRANCH   3  11
BRANCH   4  23
ATOM     23  C   UNL     1      34.472  -6.213 -24.477  0.00  0.00    +0.009 C 
BRANCH  23  25
ATOM     24  N   UNL     1      33.349  -4.278 -27.527  0.00  0.00    -0.243 NA
ATOM     25  C   UNL     1      34.528  -5.438 -25.763  0.00  0.00    -0.005 C 
ATOM     26  C   UNL     1      35.742  -5.164 -26.382  0.00  0.00    -0.001 C 
ATOM     27  C   UNL     1      33.370  -4.978 -26.370  0.00  0.00    +0.095 C 
ATOM     28  C   UNL     1      35.761  -4.446 -27.574  0.00  0.00    +0.020 C 
ATOM     29  C   UNL     1      34.549  -4.029 -28.100  0.00  0.00    +0.099 C 
ENDBRANCH  23  25
ENDBRANCH   4  23
TORSDOF 4
ENDMDL
MODEL 4
REMARK VINA RESULT:      -8.3      2.328      6.395
REMARK  Name = 25147644
REMARK  4 active torsions:
REMARK  status: ('A' for Active; 'I' for Inactive)
REMARK    1  A    between atoms: C_3  and  N_11
REMARK    2  A    between atoms: C_4  and  C_23
REMARK    3  A    between atoms: C_12  and  C_15
REMARK    4  A    between atoms: C_23  and  C_25
REMARK                            x       y       z     vdW  Elec       q    Type
REMARK                         _______ _______ _______ _____ _____    ______ ____
ROOT
ATOM      1  N   UNL     1      29.814 -24.162 -16.572  0.00  0.00    +0.390 N 
ATOM      2  C   UNL     1      30.709 -24.000 -14.133  0.00  0.00    +0.012 C 
ATOM      3  C   UNL     1      31.694 -23.355 -15.132  0.00  0.00    +0.053 C 
ATOM      4  C   UNL     1      31.217 -23.663 -16.574  0.00  0.00    -0.035 C 
ATOM      5  C   UNL     1      30.457 -25.463 -14.541  0.00  0.00    -0.021 C 
ATOM      6  C   UNL     1      29.375 -23.249 -14.283  0.00  0.00    -0.021 C 
ATOM      7  C   UNL     1      29.815 -25.503 -15.940  0.00  0.00    -0.077 C 
ATOM      8  C   UNL     1      28.943 -23.280 -15.760  0.00  0.00    -0.077 C 
ATOM      9  H   UNL     1      29.463 -24.187 -17.530  0.00  0.00    -0.080 HD
ENDROOT
BRANCH   3  11
ATOM     10  O   UNL     1      33.033 -23.615 -12.605  0.00  0.00    -0.267 OA
ATOM     11  N   UNL     1      33.053 -23.788 -14.918  0.00  0.00    -0.302 N 
ATOM     12  C   UNL     1      33.615 -23.883 -13.653  0.00  0.00    +0.280 C 
ATOM     13  H   UNL     1      33.603 -24.026 -15.699  0.00  0.00    +0.150 HD
BRANCH  12  15
ATOM     14  O   UNL     1      35.463 -25.189 -14.556  0.00  0.00    -0.449 OA
ATOM     15  C   UNL     1      35.034 -24.320 -13.603  0.00  0.00    +0.198 C 
ATOM     16  C   UNL     1      36.055 -24.003 -12.738  0.00  0.00    +0.045 C 
ATOM     17  C   UNL     1      37.195 -24.723 -13.182  0.00  0.00    +0.038 C 
ATOM     18  C   UNL     1      36.779 -25.436 -14.302  0.00  0.00    +0.146 C 
ATOM     19  C   UNL     1      38.530 -24.852 -12.763  0.00  0.00    +0.003 C 
ATOM     20  C   UNL     1      37.604 -26.278 -15.044  0.00  0.00    +0.037 C 
ATOM     21  C   UNL     1      39.385 -25.692 -13.489  0.00  0.00    +0.000 C 
ATOM     22  C   UNL     1      38.929 -26.391 -14.609  0.00  0.00    +0.003 C 
ENDBRANCH  12  15
ENDBRANCH   3  11
BRANCH   4  23
ATOM     23  C   UNL     1      31.388 -22.454 -17.498  0.00  0.00    +0.009 C 
BRANCH  23  25
ATOM     24  N   UNL     1      35.088 -23.070 -17.983  0.00  0.00    -0.243 NA
ATOM     25  C   UNL     1      32.766 -22.405 -18.094  0.00  0.00    -0.005 C 
ATOM     26  C   UNL     1      33.019 -21.686 -19.256  0.00  0.00    -0.001 C 
ATOM     27  C   UNL     1      33.825 -23.074 -17.500  0.00  0.00    +0.095 C 
ATOM     28  C   UNL     1      34.306 -21.658 -19.784  0.00  0.00    +0.020 C 
ATOM     29  C   UNL     1      35.296 -22.360 -19.116  0.00  0.00    +0.099 C 
ENDBRANCH  23  25
ENDBRANCH   4  23
TORSDOF 4
ENDMDL
