MODEL 1
REMARK VINA RESULT:     -11.8      0.000      0.000
REMARK  Name = 15984937
REMARK  6 active torsions:
REMARK  status: ('A' for Active; 'I' for Inactive)
REMARK    1  A    between atoms: C_1  and  C_9
REMARK    2  A    between atoms: C_1  and  C_20
REMARK    3  A    between atoms: C_4  and  N_10
REMARK    4  A    between atoms: N_10  and  C_13
REMARK    5  A    between atoms: C_19  and  C_25
REMARK    6  A    between atoms: C_25  and  N_26
REMARK                            x       y       z     vdW  Elec       q    Type
REMARK                         _______ _______ _______ _____ _____    ______ ____
ROOT
ATOM      1  C   UNL     1      31.108 -11.656 -21.458  0.00  0.00    +0.112 C 
ENDROOT
BRANCH   1   9
ATOM      2  O   UNL     1      31.656 -10.676 -19.371  0.00  0.00    -0.275 OA
ATOM      3  N   UNL     1      32.125  -9.413 -21.264  0.00  0.00    -0.279 N 
ATOM      4  C   UNL     1      31.907  -6.719 -22.338  0.00  0.00    +0.072 C 
ATOM      5  C   UNL     1      31.394  -7.944 -23.103  0.00  0.00    +0.041 C 
ATOM      6  C   UNL     1      31.982  -6.989 -20.832  0.00  0.00    +0.041 C 
ATOM      7  C   UNL     1      32.134  -9.226 -22.719  0.00  0.00    +0.095 C 
ATOM      8  C   UNL     1      32.694  -8.301 -20.501  0.00  0.00    +0.095 C 
ATOM      9  C   UNL     1      31.653 -10.544 -20.598  0.00  0.00    +0.230 C 
BRANCH   4  10
ATOM     10  N   UNL     1      33.208  -6.328 -22.846  0.00  0.00    -0.334 N 
ATOM     11  H   UNL     1      34.002  -6.533 -22.300  0.00  0.00    +0.147 HD
BRANCH  10  13
ATOM     12  F   UNL     1      31.781  -3.136 -26.132  0.00  0.00    -0.204 F 
ATOM     13  C   UNL     1      33.394  -5.680 -24.054  0.00  0.00    +0.047 C 
ATOM     14  C   UNL     1      32.477  -4.709 -24.504  0.00  0.00    +0.044 C 
ATOM     15  C   UNL     1      34.504  -5.972 -24.870  0.00  0.00    +0.014 C 
ATOM     16  C   UNL     1      32.664  -4.057 -25.723  0.00  0.00    +0.141 C 
ATOM     17  C   UNL     1      34.691  -5.321 -26.089  0.00  0.00    +0.004 C 
ATOM     18  C   UNL     1      33.770  -4.363 -26.515  0.00  0.00    +0.030 C 
ENDBRANCH  10  13
ENDBRANCH   4  10
ENDBRANCH   1   9
BRANCH   1  20
ATOM     19  C   UNL     1      34.175 -14.501 -22.365  0.00  0.00    -0.043 C 
ATOM     20  C   UNL     1      32.179 -12.651 -21.775  0.00  0.00    -0.013 C 
ATOM     21  C   UNL     1      33.792 -13.559 -23.321  0.00  0.00    -0.007 C 
ATOM     22  C   UNL     1      33.558 -14.515 -21.115  0.00  0.00    -0.007 C 
ATOM     23  C   UNL     1      32.793 -12.632 -23.025  0.00  0.00    -0.004 C 
ATOM     24  C   UNL     1      32.558 -13.589 -20.819  0.00  0.00    -0.004 C 
BRANCH  19  25
ATOM     25  C   UNL     1      35.243 -15.492 -22.682  0.00  0.00    -0.050 C 
BRANCH  25  26
ATOM     26  N   UNL     1      34.728 -16.859 -22.759  0.00  0.00    +0.387 N 
ATOM     27  N   UNL     1      34.998 -19.690 -23.263  0.00  0.00    +0.382 N 
ATOM     28  C   UNL     1      34.890 -19.172 -21.895  0.00  0.00    -0.083 C 
ATOM     29  C   UNL     1      35.433 -17.736 -21.814  0.00  0.00    -0.099 C 
ATOM     30  C   UNL     1      34.842 -17.381 -24.126  0.00  0.00    -0.101 C 
ATOM     31  C   UNL     1      34.309 -18.812 -24.208  0.00  0.00    -0.105 C 
ATOM     32  C   UNL     1      35.661 -20.093 -20.951  0.00  0.00    -0.026 C 
ATOM     33  H   UNL     1      33.741 -16.839 -22.504  0.00  0.00    -0.079 HD
ATOM     34  H   UNL     1      34.580 -20.619 -23.304  0.00  0.00    -0.085 HD
ATOM     35  H   UNL     1      35.985 -19.733 -23.519  0.00  0.00    -0.085 HD
ENDBRANCH  25  26
ENDBRANCH  19  25
ENDBRANCH   1  20
TORSDOF 6
ENDMDL
MODEL 2
REMARK VINA RESULT:     -11.4      3.965      7.275
REMARK  Name = 15984937
REMARK  6 active torsions:
REMARK  status: ('A' for Active; 'I' for Inactive)
REMARK    1  A    between atoms: C_1  and  C_9
REMARK    2  A    between atoms: C_1  and  C_20
REMARK    3  A    between atoms: C_4  and  N_10
REMARK    4  A    between atoms: N_10  and  C_13
REMARK    5  A    between atoms: C_19  and  C_25
REMARK    6  A    between atoms: C_25  and  N_26
REMARK                            x       y       z     vdW  Elec       q    Type
REMARK                         _______ _______ _______ _____ _____    ______ ____
ROOT
ATOM      1  C   UNL     1      35.508 -18.226 -22.249  0.00  0.00    +0.112 C 
ENDROOT
BRANCH   1   9
ATOM      2  O   UNL     1      35.244 -17.006 -20.235  0.00  0.00    -0.275 OA
ATOM      3  N   UNL     1      34.997 -15.809 -22.211  0.00  0.00    -0.279 N 
ATOM      4  C   UNL     1      33.303 -13.824 -23.496  0.00  0.00    +0.072 C 
ATOM      5  C   UNL     1      33.658 -15.153 -24.173  0.00  0.00    +0.041 C 
ATOM      6  C   UNL     1      33.429 -13.921 -21.972  0.00  0.00    +0.041 C 
ATOM      7  C   UNL     1      34.985 -15.729 -23.676  0.00  0.00    +0.095 C 
ATOM      8  C   UNL     1      34.754 -14.539 -21.526  0.00  0.00    +0.095 C 
ATOM      9  C   UNL     1      35.240 -16.965 -21.468  0.00  0.00    +0.230 C 
BRANCH   4  10
ATOM     10  N   UNL     1      34.154 -12.767 -24.007  0.00  0.00    -0.334 N 
ATOM     11  H   UNL     1      34.953 -13.021 -24.524  0.00  0.00    +0.147 HD
BRANCH  10  13
ATOM     12  F   UNL     1      31.330  -9.244 -22.383  0.00  0.00    -0.204 F 
ATOM     13  C   UNL     1      33.905 -11.422 -23.807  0.00  0.00    +0.047 C 
ATOM     14  C   UNL     1      32.717 -10.990 -23.182  0.00  0.00    +0.044 C 
ATOM     15  C   UNL     1      34.828 -10.443 -24.222  0.00  0.00    +0.014 C 
ATOM     16  C   UNL     1      32.465  -9.633 -22.981  0.00  0.00    +0.141 C 
ATOM     17  C   UNL     1      34.576  -9.086 -24.021  0.00  0.00    +0.004 C 
ATOM     18  C   UNL     1      33.394  -8.681 -23.400  0.00  0.00    +0.030 C 
ENDBRANCH  10  13
ENDBRANCH   4  10
ENDBRANCH   1   9
BRANCH   1  20
ATOM     19  C   UNL     1      34.537 -21.678 -19.910  0.00  0.00    -0.043 C 
ATOM     20  C   UNL     1      35.168 -19.433 -21.432  0.00  0.00    -0.013 C 
ATOM     21  C   UNL     1      35.870 -21.307 -20.085  0.00  0.00    -0.007 C 
ATOM     22  C   UNL     1      33.521 -20.925 -20.498  0.00  0.00    -0.007 C 
ATOM     23  C   UNL     1      36.187 -20.182 -20.847  0.00  0.00    -0.004 C 
ATOM     24  C   UNL     1      33.837 -19.801 -21.260  0.00  0.00    -0.004 C 
BRANCH  19  25
ATOM     25  C   UNL     1      34.199 -22.881 -19.097  0.00  0.00    -0.050 C 
BRANCH  25  26
ATOM     26  N   UNL     1      34.365 -22.648 -17.663  0.00  0.00    +0.387 N 
ATOM     27  N   UNL     1      35.041 -23.472 -14.978  0.00  0.00    +0.382 N 
ATOM     28  C   UNL     1      35.936 -22.604 -15.751  0.00  0.00    -0.083 C 
ATOM     29  C   UNL     1      35.762 -22.853 -17.259  0.00  0.00    -0.099 C 
ATOM     30  C   UNL     1      33.474 -23.520 -16.887  0.00  0.00    -0.101 C 
ATOM     31  C   UNL     1      33.650 -23.280 -15.387  0.00  0.00    -0.105 C 
ATOM     32  C   UNL     1      37.378 -22.870 -15.324  0.00  0.00    -0.026 C 
ATOM     33  H   UNL     1      34.113 -21.679 -17.469  0.00  0.00    -0.079 HD
ATOM     34  H   UNL     1      35.131 -23.249 -13.987  0.00  0.00    -0.085 HD
ATOM     35  H   UNL     1      35.299 -24.444 -15.149  0.00  0.00    -0.085 HD
ENDBRANCH  25  26
ENDBRANCH  19  25
ENDBRANCH   1  20
TORSDOF 6
ENDMDL
MODEL 3
REMARK VINA RESULT:     -10.8      6.360     11.320
REMARK  Name = 15984937
REMARK  6 active torsions:
REMARK  status: ('A' for Active; 'I' for Inactive)
REMARK    1  A    between atoms: C_1  and  C_9
REMARK    2  A    between atoms: C_1  and  C_20
REMARK    3  A    between atoms: C_4  and  N_10
REMARK    4  A    between atoms: N_10  and  C_13
REMARK    5  A    between atoms: C_19  and  C_25
REMARK    6  A    between atoms: C_25  and  N_26
REMARK                            x       y       z     vdW  Elec       q    Type
REMARK                         _______ _______ _______ _____ _____    ______ ____
ROOT
ATOM      1  C   UNL     1      36.418 -21.568 -19.498  0.00  0.00    +0.112 C 
ENDROOT
BRANCH   1   9
ATOM      2  O   UNL     1      34.193 -21.849 -20.262  0.00  0.00    -0.275 OA
ATOM      3  N   UNL     1      35.291 -19.924 -20.958  0.00  0.00    -0.279 N 
ATOM      4  C   UNL     1      35.762 -18.271 -23.305  0.00  0.00    +0.072 C 
ATOM      5  C   UNL     1      36.909 -18.785 -22.428  0.00  0.00    +0.041 C 
ATOM      6  C   UNL     1      34.514 -19.149 -23.167  0.00  0.00    +0.041 C 
ATOM      7  C   UNL     1      36.471 -19.052 -20.987  0.00  0.00    +0.095 C 
ATOM      8  C   UNL     1      34.141 -19.421 -21.709  0.00  0.00    +0.095 C 
ATOM      9  C   UNL     1      35.198 -21.133 -20.269  0.00  0.00    +0.230 C 
BRANCH   4  10
ATOM     10  N   UNL     1      35.453 -16.897 -22.959  0.00  0.00    -0.334 N 
ATOM     11  H   UNL     1      35.817 -16.535 -22.118  0.00  0.00    +0.147 HD
BRANCH  10  13
ATOM     12  F   UNL     1      33.128 -12.753 -23.622  0.00  0.00    -0.204 F 
ATOM     13  C   UNL     1      34.674 -16.067 -23.745  0.00  0.00    +0.047 C 
ATOM     14  C   UNL     1      34.279 -14.795 -23.286  0.00  0.00    +0.044 C 
ATOM     15  C   UNL     1      34.252 -16.469 -25.028  0.00  0.00    +0.014 C 
ATOM     16  C   UNL     1      33.492 -13.959 -24.078  0.00  0.00    +0.141 C 
ATOM     17  C   UNL     1      33.465 -15.633 -25.820  0.00  0.00    +0.004 C 
ATOM     18  C   UNL     1      33.085 -14.377 -25.344  0.00  0.00    +0.030 C 
ENDBRANCH  10  13
ENDBRANCH   4  10
ENDBRANCH   1   9
BRANCH   1  20
ATOM     19  C   UNL     1      35.306 -23.127 -15.670  0.00  0.00    -0.043 C 
ATOM     20  C   UNL     1      36.030 -22.113 -18.161  0.00  0.00    -0.013 C 
ATOM     21  C   UNL     1      36.539 -22.496 -15.834  0.00  0.00    -0.007 C 
ATOM     22  C   UNL     1      34.436 -23.250 -16.753  0.00  0.00    -0.007 C 
ATOM     23  C   UNL     1      36.902 -21.988 -17.082  0.00  0.00    -0.004 C 
ATOM     24  C   UNL     1      34.798 -22.743 -18.001  0.00  0.00    -0.004 C 
BRANCH  19  25
ATOM     25  C   UNL     1      34.919 -23.671 -14.337  0.00  0.00    -0.050 C 
BRANCH  25  26
ATOM     26  N   UNL     1      36.039 -23.693 -13.398  0.00  0.00    +0.387 N 
ATOM     27  N   UNL     1      37.700 -24.948 -11.395  0.00  0.00    +0.382 N 
ATOM     28  C   UNL     1      38.179 -24.766 -12.769  0.00  0.00    -0.083 C 
ATOM     29  C   UNL     1      36.999 -24.746 -13.756  0.00  0.00    -0.099 C 
ATOM     30  C   UNL     1      35.562 -23.881 -12.022  0.00  0.00    -0.101 C 
ATOM     31  C   UNL     1      36.733 -23.910 -11.040  0.00  0.00    -0.105 C 
ATOM     32  C   UNL     1      39.148 -25.896 -13.112  0.00  0.00    -0.026 C 
ATOM     33  H   UNL     1      36.514 -22.792 -13.452  0.00  0.00    -0.079 HD
ATOM     34  H   UNL     1      38.492 -24.900 -10.754  0.00  0.00    -0.085 HD
ATOM     35  H   UNL     1      37.241 -25.857 -11.326  0.00  0.00    -0.085 HD
ENDBRANCH  25  26
ENDBRANCH  19  25
ENDBRANCH   1  20
TORSDOF 6
ENDMDL
MODEL 4
REMARK VINA RESULT:     -10.5      4.875      8.985
REMARK  Name = 15984937
REMARK  6 active torsions:
REMARK  status: ('A' for Active; 'I' for Inactive)
REMARK    1  A    between atoms: C_1  and  C_9
REMARK    2  A    between atoms: C_1  and  C_20
REMARK    3  A    between atoms: C_4  and  N_10
REMARK    4  A    between atoms: N_10  and  C_13
REMARK    5  A    between atoms: C_19  and  C_25
REMARK    6  A    between atoms: C_25  and  N_26
REMARK                            x       y       z     vdW  Elec       q    Type
REMARK                         _______ _______ _______ _____ _____    ______ ____
ROOT
ATOM      1  C   UNL     1      35.988 -19.352 -21.450  0.00  0.00    +0.112 C 
ENDROOT
BRANCH   1   9
ATOM      2  O   UNL     1      35.301 -20.224 -23.543  0.00  0.00    -0.275 OA
ATOM      3  N   UNL     1      34.742 -18.011 -23.109  0.00  0.00    -0.279 N 
ATOM      4  C   UNL     1      34.704 -15.371 -24.331  0.00  0.00    +0.072 C 
ATOM      5  C   UNL     1      35.354 -15.628 -22.967  0.00  0.00    +0.041 C 
ATOM      6  C   UNL     1      34.628 -16.654 -25.166  0.00  0.00    +0.041 C 
ATOM      7  C   UNL     1      34.743 -16.828 -22.242  0.00  0.00    +0.095 C 
ATOM      8  C   UNL     1      34.048 -17.834 -24.385  0.00  0.00    +0.095 C 
ATOM      9  C   UNL     1      35.315 -19.243 -22.794  0.00  0.00    +0.230 C 
BRANCH   4  10
ATOM     10  N   UNL     1      33.380 -14.808 -24.149  0.00  0.00    -0.334 N 
ATOM     11  H   UNL     1      32.601 -15.368 -24.371  0.00  0.00    +0.147 HD
BRANCH  10  13
ATOM     12  F   UNL     1      31.335 -11.814 -21.007  0.00  0.00    -0.204 F 
ATOM     13  C   UNL     1      33.152 -13.526 -23.683  0.00  0.00    +0.047 C 
ATOM     14  C   UNL     1      32.341 -13.299 -22.553  0.00  0.00    +0.044 C 
ATOM     15  C   UNL     1      33.723 -12.409 -24.323  0.00  0.00    +0.014 C 
ATOM     16  C   UNL     1      32.109 -12.006 -22.084  0.00  0.00    +0.141 C 
ATOM     17  C   UNL     1      33.491 -11.116 -23.854  0.00  0.00    +0.004 C 
ATOM     18  C   UNL     1      32.684 -10.915 -22.734  0.00  0.00    +0.030 C 
ENDBRANCH  10  13
ENDBRANCH   4  10
ENDBRANCH   1   9
BRANCH   1  20
ATOM     19  C   UNL     1      34.136 -22.395 -19.076  0.00  0.00    -0.043 C 
ATOM     20  C   UNL     1      35.341 -20.416 -20.621  0.00  0.00    -0.013 C 
ATOM     21  C   UNL     1      35.527 -22.298 -19.124  0.00  0.00    -0.007 C 
ATOM     22  C   UNL     1      33.349 -21.501 -19.802  0.00  0.00    -0.007 C 
ATOM     23  C   UNL     1      36.131 -21.306 -19.897  0.00  0.00    -0.004 C 
ATOM     24  C   UNL     1      33.952 -20.510 -20.576  0.00  0.00    -0.004 C 
BRANCH  19  25
ATOM     25  C   UNL     1      33.491 -23.456 -18.250  0.00  0.00    -0.050 C 
BRANCH  25  26
ATOM     26  N   UNL     1      33.471 -23.118 -16.828  0.00  0.00    +0.387 N 
ATOM     27  N   UNL     1      33.167 -23.765 -14.029  0.00  0.00    +0.382 N 
ATOM     28  C   UNL     1      34.490 -23.502 -14.605  0.00  0.00    -0.083 C 
ATOM     29  C   UNL     1      34.511 -23.860 -16.101  0.00  0.00    -0.099 C 
ATOM     30  C   UNL     1      32.150 -23.387 -16.248  0.00  0.00    -0.101 C 
ATOM     31  C   UNL     1      32.129 -23.039 -14.759  0.00  0.00    -0.105 C 
ATOM     32  C   UNL     1      35.536 -24.314 -13.844  0.00  0.00    -0.026 C 
ATOM     33  H   UNL     1      33.664 -22.121 -16.737  0.00  0.00    -0.079 HD
ATOM     34  H   UNL     1      33.161 -23.467 -13.054  0.00  0.00    -0.085 HD
ATOM     35  H   UNL     1      32.975 -24.765 -14.096  0.00  0.00    -0.085 HD
ENDBRANCH  25  26
ENDBRANCH  19  25
ENDBRANCH   1  20
TORSDOF 6
ENDMDL
MODEL 5
REMARK VINA RESULT:     -10.2      1.194      2.035
REMARK  Name = 15984937
REMARK  6 active torsions:
REMARK  status: ('A' for Active; 'I' for Inactive)
REMARK    1  A    between atoms: C_1  and  C_9
REMARK    2  A    between atoms: C_1  and  C_20
REMARK    3  A    between atoms: C_4  and  N_10
REMARK    4  A    between atoms: N_10  and  C_13
REMARK    5  A    between atoms: C_19  and  C_25
REMARK    6  A    between atoms: C_25  and  N_26
REMARK                            x       y       z     vdW  Elec       q    Type
REMARK                         _______ _______ _______ _____ _____    ______ ____
ROOT
ATOM      1  C   UNL     1      31.247 -11.724 -21.632  0.00  0.00    +0.112 C 
ENDROOT
BRANCH   1   9
ATOM      2  O   UNL     1      31.581 -10.644 -19.549  0.00  0.00    -0.275 OA
ATOM      3  N   UNL     1      32.118  -9.419 -21.449  0.00  0.00    -0.279 N 
ATOM      4  C   UNL     1      31.828  -6.780 -22.637  0.00  0.00    +0.072 C 
ATOM      5  C   UNL     1      31.444  -8.058 -23.390  0.00  0.00    +0.041 C 
ATOM      6  C   UNL     1      31.805  -6.995 -21.119  0.00  0.00    +0.041 C 
ATOM      7  C   UNL     1      32.225  -9.281 -22.906  0.00  0.00    +0.095 C 
ATOM      8  C   UNL     1      32.563  -8.251 -20.689  0.00  0.00    +0.095 C 
ATOM      9  C   UNL     1      31.662 -10.553 -20.777  0.00  0.00    +0.230 C 
BRANCH   4  10
ATOM     10  N   UNL     1      33.138  -6.329 -23.063  0.00  0.00    -0.334 N 
ATOM     11  H   UNL     1      33.914  -6.548 -22.495  0.00  0.00    +0.147 HD
BRANCH  10  13
ATOM     12  F   UNL     1      35.853  -5.297 -26.882  0.00  0.00    -0.204 F 
ATOM     13  C   UNL     1      33.359  -5.606 -24.221  0.00  0.00    +0.047 C 
ATOM     14  C   UNL     1      34.519  -5.813 -24.994  0.00  0.00    +0.044 C 
ATOM     15  C   UNL     1      32.432  -4.642 -24.663  0.00  0.00    +0.014 C 
ATOM     16  C   UNL     1      34.743  -5.084 -26.161  0.00  0.00    +0.141 C 
ATOM     17  C   UNL     1      32.656  -3.912 -25.830  0.00  0.00    +0.004 C 
ATOM     18  C   UNL     1      33.812  -4.134 -26.579  0.00  0.00    +0.030 C 
ENDBRANCH  10  13
ENDBRANCH   4  10
ENDBRANCH   1   9
BRANCH   1  20
ATOM     19  C   UNL     1      34.254 -14.770 -21.577  0.00  0.00    -0.043 C 
ATOM     20  C   UNL     1      32.298 -12.789 -21.613  0.00  0.00    -0.013 C 
ATOM     21  C   UNL     1      34.295 -13.768 -22.546  0.00  0.00    -0.007 C 
ATOM     22  C   UNL     1      33.234 -14.780 -20.626  0.00  0.00    -0.007 C 
ATOM     23  C   UNL     1      33.315 -12.775 -22.564  0.00  0.00    -0.004 C 
ATOM     24  C   UNL     1      32.253 -13.788 -20.644  0.00  0.00    -0.004 C 
BRANCH  19  25
ATOM     25  C   UNL     1      35.301 -15.832 -21.558  0.00  0.00    -0.050 C 
BRANCH  25  26
ATOM     26  N   UNL     1      35.345 -16.592 -22.806  0.00  0.00    +0.387 N 
ATOM     27  N   UNL     1      34.182 -18.289 -24.834  0.00  0.00    +0.382 N 
ATOM     28  C   UNL     1      34.422 -16.864 -25.087  0.00  0.00    -0.083 C 
ATOM     29  C   UNL     1      34.373 -16.065 -23.773  0.00  0.00    -0.099 C 
ATOM     30  C   UNL     1      35.098 -18.018 -22.556  0.00  0.00    -0.101 C 
ATOM     31  C   UNL     1      35.140 -18.813 -23.862  0.00  0.00    -0.105 C 
ATOM     32  C   UNL     1      33.373 -16.348 -26.070  0.00  0.00    -0.026 C 
ATOM     33  H   UNL     1      36.279 -16.493 -23.203  0.00  0.00    -0.079 HD
ATOM     34  H   UNL     1      34.277 -18.805 -25.709  0.00  0.00    -0.085 HD
ATOM     35  H   UNL     1      33.241 -18.399 -24.457  0.00  0.00    -0.085 HD
ENDBRANCH  25  26
ENDBRANCH  19  25
ENDBRANCH   1  20
TORSDOF 6
ENDMDL
MODEL 6
REMARK VINA RESULT:     -10.0      7.534     15.066
REMARK  Name = 15984937
REMARK  6 active torsions:
REMARK  status: ('A' for Active; 'I' for Inactive)
REMARK    1  A    between atoms: C_1  and  C_9
REMARK    2  A    between atoms: C_1  and  C_20
REMARK    3  A    between atoms: C_4  and  N_10
REMARK    4  A    between atoms: N_10  and  C_13
REMARK    5  A    between atoms: C_19  and  C_25
REMARK    6  A    between atoms: C_25  and  N_26
REMARK                            x       y       z     vdW  Elec       q    Type
REMARK                         _______ _______ _______ _____ _____    ______ ____
ROOT
ATOM      1  C   UNL     1      36.003 -21.023 -19.477  0.00  0.00    +0.112 C 
ENDROOT
BRANCH   1   9
ATOM      2  O   UNL     1      33.797 -21.774 -19.905  0.00  0.00    -0.275 OA
ATOM      3  N   UNL     1      34.866 -22.698 -18.059  0.00  0.00    -0.279 N 
ATOM      4  C   UNL     1      34.435 -23.396 -15.269  0.00  0.00    +0.072 C 
ATOM      5  C   UNL     1      35.629 -22.549 -15.721  0.00  0.00    +0.041 C 
ATOM      6  C   UNL     1      33.282 -23.321 -16.275  0.00  0.00    +0.041 C 
ATOM      7  C   UNL     1      36.027 -22.823 -17.172  0.00  0.00    +0.095 C 
ATOM      8  C   UNL     1      33.736 -23.561 -17.714  0.00  0.00    +0.095 C 
ATOM      9  C   UNL     1      34.787 -21.862 -19.174  0.00  0.00    +0.230 C 
BRANCH   4  10
ATOM     10  N   UNL     1      34.850 -24.772 -15.078  0.00  0.00    -0.334 N 
ATOM     11  H   UNL     1      34.337 -25.481 -15.531  0.00  0.00    +0.147 HD
BRANCH  10  13
ATOM     12  F   UNL     1      39.217 -26.709 -14.632  0.00  0.00    -0.204 F 
ATOM     13  C   UNL     1      35.926 -25.145 -14.293  0.00  0.00    +0.047 C 
ATOM     14  C   UNL     1      37.062 -25.754 -14.862  0.00  0.00    +0.044 C 
ATOM     15  C   UNL     1      35.918 -24.928 -12.901  0.00  0.00    +0.014 C 
ATOM     16  C   UNL     1      38.146 -26.132 -14.070  0.00  0.00    +0.141 C 
ATOM     17  C   UNL     1      37.002 -25.305 -12.109  0.00  0.00    +0.004 C 
ATOM     18  C   UNL     1      38.117 -25.907 -12.695  0.00  0.00    +0.030 C 
ENDBRANCH  10  13
ENDBRANCH   4  10
ENDBRANCH   1   9
BRANCH   1  20
ATOM     19  C   UNL     1      35.337 -18.601 -22.943  0.00  0.00    -0.043 C 
ATOM     20  C   UNL     1      35.770 -20.177 -20.688  0.00  0.00    -0.013 C 
ATOM     21  C   UNL     1      34.307 -19.396 -22.439  0.00  0.00    -0.007 C 
ATOM     22  C   UNL     1      36.583 -18.596 -22.317  0.00  0.00    -0.007 C 
ATOM     23  C   UNL     1      34.524 -20.185 -21.309  0.00  0.00    -0.004 C 
ATOM     24  C   UNL     1      36.801 -19.386 -21.188  0.00  0.00    -0.004 C 
BRANCH  19  25
ATOM     25  C   UNL     1      35.105 -17.758 -24.150  0.00  0.00    -0.050 C 
BRANCH  25  26
ATOM     26  N   UNL     1      34.332 -16.554 -23.849  0.00  0.00    +0.387 N 
ATOM     27  N   UNL     1      33.941 -13.693 -23.779  0.00  0.00    +0.382 N 
ATOM     28  C   UNL     1      33.235 -14.529 -24.756  0.00  0.00    -0.083 C 
ATOM     29  C   UNL     1      34.050 -15.795 -25.074  0.00  0.00    -0.099 C 
ATOM     30  C   UNL     1      35.040 -15.712 -22.876  0.00  0.00    -0.101 C 
ATOM     31  C   UNL     1      34.235 -14.450 -22.563  0.00  0.00    -0.105 C 
ATOM     32  C   UNL     1      32.990 -13.714 -26.025  0.00  0.00    -0.026 C 
ATOM     33  H   UNL     1      33.445 -16.843 -23.438  0.00  0.00    -0.079 HD
ATOM     34  H   UNL     1      33.357 -12.892 -23.541  0.00  0.00    -0.085 HD
ATOM     35  H   UNL     1      34.821 -13.382 -24.190  0.00  0.00    -0.085 HD
ENDBRANCH  25  26
ENDBRANCH  19  25
ENDBRANCH   1  20
TORSDOF 6
ENDMDL
MODEL 7
REMARK VINA RESULT:     -10.0      8.233     14.414
REMARK  Name = 15984937
REMARK  6 active torsions:
REMARK  status: ('A' for Active; 'I' for Inactive)
REMARK    1  A    between atoms: C_1  and  C_9
REMARK    2  A    between atoms: C_1  and  C_20
REMARK    3  A    between atoms: C_4  and  N_10
REMARK    4  A    between atoms: N_10  and  C_13
REMARK    5  A    between atoms: C_19  and  C_25
REMARK    6  A    between atoms: C_25  and  N_26
REMARK                            x       y       z     vdW  Elec       q    Type
REMARK                         _______ _______ _______ _____ _____    ______ ____
ROOT
ATOM      1  C   UNL     1      35.734 -22.414 -19.277  0.00  0.00    +0.112 C 
ENDROOT
BRANCH   1   9
ATOM      2  O   UNL     1      37.192 -21.672 -17.563  0.00  0.00    -0.275 OA
ATOM      3  N   UNL     1      35.189 -22.630 -16.877  0.00  0.00    -0.279 N 
ATOM      4  C   UNL     1      34.085 -24.518 -14.959  0.00  0.00    +0.072 C 
ATOM      5  C   UNL     1      33.788 -24.614 -16.459  0.00  0.00    +0.041 C 
ATOM      6  C   UNL     1      35.391 -23.760 -14.694  0.00  0.00    +0.041 C 
ATOM      7  C   UNL     1      33.898 -23.262 -17.166  0.00  0.00    +0.095 C 
ATOM      8  C   UNL     1      35.470 -22.436 -15.454  0.00  0.00    +0.095 C 
ATOM      9  C   UNL     1      36.111 -22.201 -17.833  0.00  0.00    +0.230 C 
BRANCH   4  10
ATOM     10  N   UNL     1      32.980 -23.874 -14.275  0.00  0.00    -0.334 N 
ATOM     11  H   UNL     1      33.187 -23.219 -13.569  0.00  0.00    +0.147 HD
BRANCH  10  13
ATOM     12  F   UNL     1      28.694 -22.411 -15.858  0.00  0.00    -0.204 F 
ATOM     13  C   UNL     1      31.652 -24.131 -14.560  0.00  0.00    +0.047 C 
ATOM     14  C   UNL     1      30.814 -23.124 -15.079  0.00  0.00    +0.044 C 
ATOM     15  C   UNL     1      31.096 -25.406 -14.338  0.00  0.00    +0.014 C 
ATOM     16  C   UNL     1      29.473 -23.383 -15.364  0.00  0.00    +0.141 C 
ATOM     17  C   UNL     1      29.755 -25.665 -14.623  0.00  0.00    +0.004 C 
ATOM     18  C   UNL     1      28.944 -24.652 -15.136  0.00  0.00    +0.030 C 
ENDBRANCH  10  13
ENDBRANCH   4  10
ENDBRANCH   1   9
BRANCH   1  20
ATOM     19  C   UNL     1      35.704 -18.690 -21.389  0.00  0.00    -0.043 C 
ATOM     20  C   UNL     1      35.724 -21.112 -20.015  0.00  0.00    -0.013 C 
ATOM     21  C   UNL     1      34.503 -19.342 -21.108  0.00  0.00    -0.007 C 
ATOM     22  C   UNL     1      36.914 -19.251 -20.981  0.00  0.00    -0.007 C 
ATOM     23  C   UNL     1      34.513 -20.556 -20.420  0.00  0.00    -0.004 C 
ATOM     24  C   UNL     1      36.924 -20.465 -20.294  0.00  0.00    -0.004 C 
BRANCH  19  25
ATOM     25  C   UNL     1      35.693 -17.394 -22.125  0.00  0.00    -0.050 C 
BRANCH  25  26
ATOM     26  N   UNL     1      35.337 -17.556 -23.534  0.00  0.00    +0.387 N 
ATOM     27  N   UNL     1      33.446 -17.803 -25.703  0.00  0.00    +0.382 N 
ATOM     28  C   UNL     1      34.208 -16.566 -25.501  0.00  0.00    -0.083 C 
ATOM     29  C   UNL     1      34.579 -16.395 -24.018  0.00  0.00    -0.099 C 
ATOM     30  C   UNL     1      34.569 -18.791 -23.737  0.00  0.00    -0.101 C 
ATOM     31  C   UNL     1      34.192 -18.960 -25.209  0.00  0.00    -0.105 C 
ATOM     32  C   UNL     1      33.374 -15.382 -25.986  0.00  0.00    -0.026 C 
ATOM     33  H   UNL     1      36.201 -17.624 -24.072  0.00  0.00    -0.079 HD
ATOM     34  H   UNL     1      33.262 -17.924 -26.698  0.00  0.00    -0.085 HD
ATOM     35  H   UNL     1      32.570 -17.735 -25.185  0.00  0.00    -0.085 HD
ENDBRANCH  25  26
ENDBRANCH  19  25
ENDBRANCH   1  20
TORSDOF 6
ENDMDL
MODEL 8
REMARK VINA RESULT:      -9.9      4.099     11.729
REMARK  Name = 15984937
REMARK  6 active torsions:
REMARK  status: ('A' for Active; 'I' for Inactive)
REMARK    1  A    between atoms: C_1  and  C_9
REMARK    2  A    between atoms: C_1  and  C_20
REMARK    3  A    between atoms: C_4  and  N_10
REMARK    4  A    between atoms: N_10  and  C_13
REMARK    5  A    between atoms: C_19  and  C_25
REMARK    6  A    between atoms: C_25  and  N_26
REMARK                            x       y       z     vdW  Elec       q    Type
REMARK                         _______ _______ _______ _____ _____    ______ ____
ROOT
ATOM      1  C   UNL     1      33.769 -13.176 -24.240  0.00  0.00    +0.112 C 
ENDROOT
BRANCH   1   9
ATOM      2  O   UNL     1      34.559 -13.272 -22.009  0.00  0.00    -0.275 OA
ATOM      3  N   UNL     1      34.208 -15.308 -23.071  0.00  0.00    -0.279 N 
ATOM      4  C   UNL     1      35.419 -17.920 -23.486  0.00  0.00    +0.072 C 
ATOM      5  C   UNL     1      34.922 -17.059 -24.652  0.00  0.00    +0.041 C 
ATOM      6  C   UNL     1      35.731 -17.067 -22.252  0.00  0.00    +0.041 C 
ATOM      7  C   UNL     1      33.805 -16.100 -24.239  0.00  0.00    +0.095 C 
ATOM      8  C   UNL     1      34.602 -16.097 -21.903  0.00  0.00    +0.095 C 
ATOM      9  C   UNL     1      34.214 -13.915 -23.004  0.00  0.00    +0.230 C 
BRANCH   4  10
ATOM     10  N   UNL     1      34.433 -18.933 -23.164  0.00  0.00    -0.334 N 
ATOM     11  H   UNL     1      33.680 -19.064 -23.786  0.00  0.00    +0.147 HD
BRANCH  10  13
ATOM     12  F   UNL     1      36.971 -21.362 -19.897  0.00  0.00    -0.204 F 
ATOM     13  C   UNL     1      34.490 -19.722 -22.031  0.00  0.00    +0.047 C 
ATOM     14  C   UNL     1      35.726 -20.160 -21.514  0.00  0.00    +0.044 C 
ATOM     15  C   UNL     1      33.316 -20.114 -21.358  0.00  0.00    +0.014 C 
ATOM     16  C   UNL     1      35.784 -20.958 -20.372  0.00  0.00    +0.141 C 
ATOM     17  C   UNL     1      33.374 -20.912 -20.216  0.00  0.00    +0.004 C 
ATOM     18  C   UNL     1      34.609 -21.334 -19.723  0.00  0.00    +0.030 C 
ENDBRANCH  10  13
ENDBRANCH   4  10
ENDBRANCH   1   9
BRANCH   1  20
ATOM     19  C   UNL     1      34.056  -8.946 -23.653  0.00  0.00    -0.043 C 
ATOM     20  C   UNL     1      33.870 -11.698 -24.036  0.00  0.00    -0.013 C 
ATOM     21  C   UNL     1      33.009  -9.661 -23.072  0.00  0.00    -0.007 C 
ATOM     22  C   UNL     1      35.010  -9.609 -24.424  0.00  0.00    -0.007 C 
ATOM     23  C   UNL     1      32.915 -11.040 -23.263  0.00  0.00    -0.004 C 
ATOM     24  C   UNL     1      34.916 -10.988 -24.617  0.00  0.00    -0.004 C 
BRANCH  19  25
ATOM     25  C   UNL     1      34.156  -7.473 -23.449  0.00  0.00    -0.050 C 
BRANCH  25  26
ATOM     26  N   UNL     1      32.870  -6.870 -23.101  0.00  0.00    +0.387 N 
ATOM     27  N   UNL     1      31.219  -4.765 -22.011  0.00  0.00    +0.382 N 
ATOM     28  C   UNL     1      31.317  -4.976 -23.459  0.00  0.00    -0.083 C 
ATOM     29  C   UNL     1      32.672  -5.607 -23.824  0.00  0.00    -0.099 C 
ATOM     30  C   UNL     1      32.772  -6.652 -21.652  0.00  0.00    -0.101 C 
ATOM     31  C   UNL     1      31.430  -6.018 -21.287  0.00  0.00    -0.105 C 
ATOM     32  C   UNL     1      31.138  -3.637 -24.172  0.00  0.00    -0.026 C 
ATOM     33  H   UNL     1      32.132  -7.519 -23.377  0.00  0.00    -0.079 HD
ATOM     34  H   UNL     1      30.293  -4.401 -21.788  0.00  0.00    -0.085 HD
ATOM     35  H   UNL     1      31.940  -4.100 -21.729  0.00  0.00    -0.085 HD
ENDBRANCH  25  26
ENDBRANCH  19  25
ENDBRANCH   1  20
TORSDOF 6
ENDMDL
MODEL 9
REMARK VINA RESULT:      -9.9      6.321     10.995
REMARK  Name = 15984937
REMARK  6 active torsions:
REMARK  status: ('A' for Active; 'I' for Inactive)
REMARK    1  A    between atoms: C_1  and  C_9
REMARK    2  A    between atoms: C_1  and  C_20
REMARK    3  A    between atoms: C_4  and  N_10
REMARK    4  A    between atoms: N_10  and  C_13
REMARK    5  A    between atoms: C_19  and  C_25
REMARK    6  A    between atoms: C_25  and  N_26
REMARK                            x       y       z     vdW  Elec       q    Type
REMARK                         _______ _______ _______ _____ _____    ______ ____
ROOT
ATOM      1  C   UNL     1      36.313 -21.542 -19.488  0.00  0.00    +0.112 C 
ENDROOT
BRANCH   1   9
ATOM      2  O   UNL     1      34.141 -21.853 -20.381  0.00  0.00    -0.275 OA
ATOM      3  N   UNL     1      35.244 -19.902 -20.995  0.00  0.00    -0.279 N 
ATOM      4  C   UNL     1      35.820 -18.216 -23.294  0.00  0.00    +0.072 C 
ATOM      5  C   UNL     1      36.923 -18.720 -22.358  0.00  0.00    +0.041 C 
ATOM      6  C   UNL     1      34.581 -19.117 -23.237  0.00  0.00    +0.041 C 
ATOM      7  C   UNL     1      36.408 -19.010 -20.947  0.00  0.00    +0.095 C 
ATOM      8  C   UNL     1      34.130 -19.410 -21.806  0.00  0.00    +0.095 C 
ATOM      9  C   UNL     1      35.132 -21.120 -20.324  0.00  0.00    +0.230 C 
BRANCH   4  10
ATOM     10  N   UNL     1      35.468 -16.852 -22.954  0.00  0.00    -0.334 N 
ATOM     11  H   UNL     1      35.803 -16.482 -22.104  0.00  0.00    +0.147 HD
BRANCH  10  13
ATOM     12  F   UNL     1      33.159 -12.715 -23.715  0.00  0.00    -0.204 F 
ATOM     13  C   UNL     1      34.686 -16.041 -23.757  0.00  0.00    +0.047 C 
ATOM     14  C   UNL     1      34.302 -14.753 -23.331  0.00  0.00    +0.044 C 
ATOM     15  C   UNL     1      34.249 -16.477 -25.023  0.00  0.00    +0.014 C 
ATOM     16  C   UNL     1      33.512 -13.936 -24.139  0.00  0.00    +0.141 C 
ATOM     17  C   UNL     1      33.459 -15.660 -25.831  0.00  0.00    +0.004 C 
ATOM     18  C   UNL     1      33.091 -14.389 -25.388  0.00  0.00    +0.030 C 
ENDBRANCH  10  13
ENDBRANCH   4  10
ENDBRANCH   1   9
BRANCH   1  20
ATOM     19  C   UNL     1      35.006 -23.328 -15.824  0.00  0.00    -0.043 C 
ATOM     20  C   UNL     1      35.856 -22.167 -18.208  0.00  0.00    -0.013 C 
ATOM     21  C   UNL     1      36.251 -22.704 -15.890  0.00  0.00    -0.007 C 
ATOM     22  C   UNL     1      34.187 -23.371 -16.952  0.00  0.00    -0.007 C 
ATOM     23  C   UNL     1      36.678 -22.122 -17.084  0.00  0.00    -0.004 C 
ATOM     24  C   UNL     1      34.613 -22.789 -18.147  0.00  0.00    -0.004 C 
BRANCH  19  25
ATOM     25  C   UNL     1      34.550 -23.951 -14.548  0.00  0.00    -0.050 C 
BRANCH  25  26
ATOM     26  N   UNL     1      33.194 -24.488 -14.644  0.00  0.00    +0.387 N 
ATOM     27  N   UNL     1      30.365 -24.468 -14.057  0.00  0.00    +0.382 N 
ATOM     28  C   UNL     1      30.866 -24.086 -15.382  0.00  0.00    -0.083 C 
ATOM     29  C   UNL     1      32.292 -23.518 -15.280  0.00  0.00    -0.099 C 
ATOM     30  C   UNL     1      32.689 -24.866 -13.318  0.00  0.00    -0.101 C 
ATOM     31  C   UNL     1      31.268 -25.423 -13.416  0.00  0.00    -0.105 C 
ATOM     32  C   UNL     1      29.919 -23.054 -15.994  0.00  0.00    -0.026 C 
ATOM     33  H   UNL     1      33.226 -25.326 -15.225  0.00  0.00    -0.079 HD
ATOM     34  H   UNL     1      29.444 -24.894 -14.157  0.00  0.00    -0.085 HD
ATOM     35  H   UNL     1      30.309 -23.632 -13.475  0.00  0.00    -0.085 HD
ENDBRANCH  25  26
ENDBRANCH  19  25
ENDBRANCH   1  20
TORSDOF 6
ENDMDL
