MODEL 1
REMARK VINA RESULT:     -12.0      0.000      0.000
REMARK  Name = 154000
REMARK  7 active torsions:
REMARK  status: ('A' for Active; 'I' for Inactive)
REMARK    1  A    between atoms: O_1  and  C_5
REMARK    2  A    between atoms: O_1  and  C_17
REMARK    3  A    between atoms: C_2  and  C_8
REMARK    4  A    between atoms: C_8  and  C_13
REMARK    5  A    between atoms: C_17  and  C_18
REMARK    6  A    between atoms: C_18  and  C_21
REMARK    7  A    between atoms: C_23  and  C_25
REMARK                            x       y       z     vdW  Elec       q    Type
REMARK                         _______ _______ _______ _____ _____    ______ ____
ROOT
ATOM      1  O   UNL     1      34.006 -14.439 -23.681  0.00  0.00    -0.475 OA
ENDROOT
BRANCH   1   5
ATOM      2  C   UNL     1      32.329 -10.826 -22.575  0.00  0.00    -0.021 C 
ATOM      3  C   UNL     1      31.969 -11.981 -21.895  0.00  0.00    -0.001 C 
ATOM      4  C   UNL     1      33.241 -10.862 -23.618  0.00  0.00    -0.001 C 
ATOM      5  C   UNL     1      33.454 -13.250 -23.316  0.00  0.00    +0.139 C 
ATOM      6  C   UNL     1      32.534 -13.200 -22.268  0.00  0.00    +0.037 C 
ATOM      7  C   UNL     1      33.807 -12.082 -23.991  0.00  0.00    +0.037 C 
BRANCH   2   8
ATOM      8  C   UNL     1      31.716  -9.509 -22.172  0.00  0.00    +0.047 C 
BRANCH   8  13
ATOM      9  O   UNL     1      32.355  -6.353 -20.957  0.00  0.00    -0.346 OA
ATOM     10  O   UNL     1      32.596  -9.407 -19.278  0.00  0.00    -0.272 OA
ATOM     11  O   UNL     1      32.588  -6.781 -23.201  0.00  0.00    -0.247 OA
ATOM     12  N   UNL     1      32.357  -7.146 -19.790  0.00  0.00    -0.144 N 
ATOM     13  C   UNL     1      32.737  -8.573 -21.553  0.00  0.00    +0.184 C 
ATOM     14  C   UNL     1      32.560  -8.477 -20.068  0.00  0.00    +0.264 C 
ATOM     15  C   UNL     1      32.557  -7.160 -22.042  0.00  0.00    +0.348 C 
ATOM     16  H   UNL     1      32.227  -6.788 -18.882  0.00  0.00    +0.196 HD
ENDBRANCH   8  13
ENDBRANCH   2   8
ENDBRANCH   1   5
BRANCH   1  17
ATOM     17  C   UNL     1      34.603 -15.222 -22.647  0.00  0.00    +0.213 C 
BRANCH  17  18
ATOM     18  C   UNL     1      35.518 -16.276 -23.262  0.00  0.00    +0.105 C 
BRANCH  18  21
ATOM     19  O   UNL     1      34.336 -19.719 -22.992  0.00  0.00    -0.449 OA
ATOM     20  N   UNL     1      35.289 -18.152 -21.668  0.00  0.00    -0.373 NA
ATOM     21  C   UNL     1      35.102 -17.679 -22.923  0.00  0.00    +0.134 C 
ATOM     22  C   UNL     1      34.533 -18.597 -23.738  0.00  0.00    +0.216 C 
ATOM     23  C   UNL     1      34.813 -19.374 -21.765  0.00  0.00    +0.277 C 
ATOM     24  C   UNL     1      34.112 -18.646 -25.143  0.00  0.00    +0.055 C 
BRANCH  23  25
ATOM     25  C   UNL     1      34.726 -20.400 -20.763  0.00  0.00    +0.066 C 
ATOM     26  C   UNL     1      33.477 -20.859 -20.333  0.00  0.00    +0.006 C 
ATOM     27  C   UNL     1      35.889 -20.944 -20.212  0.00  0.00    +0.006 C 
ATOM     28  C   UNL     1      33.394 -21.854 -19.359  0.00  0.00    +0.000 C 
ATOM     29  C   UNL     1      35.805 -21.940 -19.239  0.00  0.00    +0.000 C 
ATOM     30  C   UNL     1      34.558 -22.395 -18.812  0.00  0.00    +0.000 C 
ENDBRANCH  23  25
ENDBRANCH  18  21
ENDBRANCH  17  18
ENDBRANCH   1  17
TORSDOF 7
ENDMDL
MODEL 2
REMARK VINA RESULT:     -11.9      2.533     10.951
REMARK  Name = 154000
REMARK  7 active torsions:
REMARK  status: ('A' for Active; 'I' for Inactive)
REMARK    1  A    between atoms: O_1  and  C_5
REMARK    2  A    between atoms: O_1  and  C_17
REMARK    3  A    between atoms: C_2  and  C_8
REMARK    4  A    between atoms: C_8  and  C_13
REMARK    5  A    between atoms: C_17  and  C_18
REMARK    6  A    between atoms: C_18  and  C_21
REMARK    7  A    between atoms: C_23  and  C_25
REMARK                            x       y       z     vdW  Elec       q    Type
REMARK                         _______ _______ _______ _____ _____    ______ ____
ROOT
ATOM      1  O   UNL     1      35.225 -15.759 -23.505  0.00  0.00    -0.475 OA
ENDROOT
BRANCH   1   5
ATOM      2  C   UNL     1      35.265 -19.534 -21.822  0.00  0.00    -0.021 C 
ATOM      3  C   UNL     1      35.588 -18.436 -21.039  0.00  0.00    -0.001 C 
ATOM      4  C   UNL     1      34.929 -19.388 -23.159  0.00  0.00    -0.001 C 
ATOM      5  C   UNL     1      35.238 -17.001 -22.950  0.00  0.00    +0.139 C 
ATOM      6  C   UNL     1      35.575 -17.162 -21.606  0.00  0.00    +0.037 C 
ATOM      7  C   UNL     1      34.916 -18.114 -23.726  0.00  0.00    +0.037 C 
BRANCH   2   8
ATOM      8  C   UNL     1      35.282 -20.912 -21.208  0.00  0.00    +0.047 C 
BRANCH   8  13
ATOM      9  O   UNL     1      32.629 -22.336 -19.543  0.00  0.00    -0.346 OA
ATOM     10  O   UNL     1      36.006 -22.365 -18.654  0.00  0.00    -0.272 OA
ATOM     11  O   UNL     1      32.284 -20.503 -20.883  0.00  0.00    -0.247 OA
ATOM     12  N   UNL     1      33.747 -22.886 -18.883  0.00  0.00    -0.144 N 
ATOM     13  C   UNL     1      34.477 -20.970 -19.924  0.00  0.00    +0.184 C 
ATOM     14  C   UNL     1      34.884 -22.139 -19.078  0.00  0.00    +0.264 C 
ATOM     15  C   UNL     1      33.015 -21.201 -20.199  0.00  0.00    +0.348 C 
ATOM     16  H   UNL     1      33.716 -23.710 -18.344  0.00  0.00    +0.196 HD
ENDBRANCH   8  13
ENDBRANCH   2   8
ENDBRANCH   1   5
BRANCH   1  17
ATOM     17  C   UNL     1      34.466 -14.755 -22.830  0.00  0.00    +0.213 C 
BRANCH  17  18
ATOM     18  C   UNL     1      33.636 -13.970 -23.841  0.00  0.00    +0.105 C 
BRANCH  18  21
ATOM     19  O   UNL     1      32.427 -10.939 -22.206  0.00  0.00    -0.449 OA
ATOM     20  N   UNL     1      33.646 -11.504 -24.025  0.00  0.00    -0.373 NA
ATOM     21  C   UNL     1      33.249 -12.606 -23.345  0.00  0.00    +0.134 C 
ATOM     22  C   UNL     1      32.516 -12.298 -22.250  0.00  0.00    +0.216 C 
ATOM     23  C   UNL     1      33.127 -10.538 -23.301  0.00  0.00    +0.277 C 
ATOM     24  C   UNL     1      31.847 -13.047 -21.181  0.00  0.00    +0.055 C 
BRANCH  23  25
ATOM     25  C   UNL     1      33.194  -9.116 -23.497  0.00  0.00    +0.066 C 
ATOM     26  C   UNL     1      32.020  -8.359 -23.565  0.00  0.00    +0.006 C 
ATOM     27  C   UNL     1      34.432  -8.481 -23.625  0.00  0.00    +0.006 C 
ATOM     28  C   UNL     1      32.086  -6.979 -23.758  0.00  0.00    +0.000 C 
ATOM     29  C   UNL     1      34.498  -7.101 -23.817  0.00  0.00    +0.000 C 
ATOM     30  C   UNL     1      33.325  -6.350 -23.883  0.00  0.00    +0.000 C 
ENDBRANCH  23  25
ENDBRANCH  18  21
ENDBRANCH  17  18
ENDBRANCH   1  17
TORSDOF 7
ENDMDL
MODEL 3
REMARK VINA RESULT:     -11.8      5.572      9.943
REMARK  Name = 154000
REMARK  7 active torsions:
REMARK  status: ('A' for Active; 'I' for Inactive)
REMARK    1  A    between atoms: O_1  and  C_5
REMARK    2  A    between atoms: O_1  and  C_17
REMARK    3  A    between atoms: C_2  and  C_8
REMARK    4  A    between atoms: C_8  and  C_13
REMARK    5  A    between atoms: C_17  and  C_18
REMARK    6  A    between atoms: C_18  and  C_21
REMARK    7  A    between atoms: C_23  and  C_25
REMARK                            x       y       z     vdW  Elec       q    Type
REMARK                         _______ _______ _______ _____ _____    ______ ____
ROOT
ATOM      1  O   UNL     1      32.714 -22.775 -18.678  0.00  0.00    -0.475 OA
ENDROOT
BRANCH   1   5
ATOM      2  C   UNL     1      34.873 -20.119 -20.997  0.00  0.00    -0.021 C 
ATOM      3  C   UNL     1      33.487 -20.085 -21.034  0.00  0.00    -0.001 C 
ATOM      4  C   UNL     1      35.547 -21.029 -20.196  0.00  0.00    -0.001 C 
ATOM      5  C   UNL     1      33.424 -21.900 -19.442  0.00  0.00    +0.139 C 
ATOM      6  C   UNL     1      32.758 -20.981 -20.252  0.00  0.00    +0.037 C 
ATOM      7  C   UNL     1      34.818 -21.924 -19.414  0.00  0.00    +0.037 C 
BRANCH   2   8
ATOM      8  C   UNL     1      35.660 -19.152 -21.844  0.00  0.00    +0.047 C 
BRANCH   8  13
ATOM      9  O   UNL     1      35.466 -15.992 -23.194  0.00  0.00    -0.346 OA
ATOM     10  O   UNL     1      34.695 -19.043 -24.710  0.00  0.00    -0.272 OA
ATOM     11  O   UNL     1      35.258 -16.279 -20.925  0.00  0.00    -0.247 OA
ATOM     12  N   UNL     1      35.297 -16.827 -24.319  0.00  0.00    -0.144 N 
ATOM     13  C   UNL     1      34.771 -18.097 -22.476  0.00  0.00    +0.184 C 
ATOM     14  C   UNL     1      34.903 -18.096 -23.969  0.00  0.00    +0.264 C 
ATOM     15  C   UNL     1      35.185 -16.709 -22.064  0.00  0.00    +0.348 C 
ATOM     16  H   UNL     1      35.445 -16.533 -25.247  0.00  0.00    +0.196 HD
ENDBRANCH   8  13
ENDBRANCH   2   8
ENDBRANCH   1   5
BRANCH   1  17
ATOM     17  C   UNL     1      33.395 -23.377 -17.577  0.00  0.00    +0.213 C 
BRANCH  17  18
ATOM     18  C   UNL     1      32.446 -23.500 -16.389  0.00  0.00    +0.105 C 
BRANCH  18  21
ATOM     19  O   UNL     1      33.630 -24.459 -13.073  0.00  0.00    -0.449 OA
ATOM     20  N   UNL     1      34.506 -23.849 -15.067  0.00  0.00    -0.373 NA
ATOM     21  C   UNL     1      33.152 -23.863 -15.114  0.00  0.00    +0.134 C 
ATOM     22  C   UNL     1      32.600 -24.226 -13.934  0.00  0.00    +0.216 C 
ATOM     23  C   UNL     1      34.737 -24.212 -13.825  0.00  0.00    +0.277 C 
ATOM     24  C   UNL     1      31.240 -24.408 -13.414  0.00  0.00    +0.055 C 
BRANCH  23  25
ATOM     25  C   UNL     1      35.990 -24.388 -13.144  0.00  0.00    +0.066 C 
ATOM     26  C   UNL     1      36.444 -23.420 -12.243  0.00  0.00    +0.006 C 
ATOM     27  C   UNL     1      36.764 -25.527 -13.382  0.00  0.00    +0.006 C 
ATOM     28  C   UNL     1      37.662 -23.591 -11.586  0.00  0.00    +0.000 C 
ATOM     29  C   UNL     1      37.982 -25.698 -12.724  0.00  0.00    +0.000 C 
ATOM     30  C   UNL     1      38.431 -24.730 -11.825  0.00  0.00    +0.000 C 
ENDBRANCH  23  25
ENDBRANCH  18  21
ENDBRANCH  17  18
ENDBRANCH   1  17
TORSDOF 7
ENDMDL
MODEL 4
REMARK VINA RESULT:     -11.8      3.591     11.090
REMARK  Name = 154000
REMARK  7 active torsions:
REMARK  status: ('A' for Active; 'I' for Inactive)
REMARK    1  A    between atoms: O_1  and  C_5
REMARK    2  A    between atoms: O_1  and  C_17
REMARK    3  A    between atoms: C_2  and  C_8
REMARK    4  A    between atoms: C_8  and  C_13
REMARK    5  A    between atoms: C_17  and  C_18
REMARK    6  A    between atoms: C_18  and  C_21
REMARK    7  A    between atoms: C_23  and  C_25
REMARK                            x       y       z     vdW  Elec       q    Type
REMARK                         _______ _______ _______ _____ _____    ______ ____
ROOT
ATOM      1  O   UNL     1      34.570 -19.240 -21.734  0.00  0.00    -0.475 OA
ENDROOT
BRANCH   1   5
ATOM      2  C   UNL     1      34.004 -22.399 -19.129  0.00  0.00    -0.021 C 
ATOM      3  C   UNL     1      35.294 -22.033 -19.485  0.00  0.00    -0.001 C 
ATOM      4  C   UNL     1      32.902 -21.725 -19.631  0.00  0.00    -0.001 C 
ATOM      5  C   UNL     1      34.385 -20.280 -20.877  0.00  0.00    +0.139 C 
ATOM      6  C   UNL     1      35.486 -20.967 -20.364  0.00  0.00    +0.037 C 
ATOM      7  C   UNL     1      33.093 -20.659 -20.510  0.00  0.00    +0.037 C 
BRANCH   2   8
ATOM      8  C   UNL     1      33.798 -23.552 -18.179  0.00  0.00    +0.047 C 
BRANCH   8  13
ATOM      9  O   UNL     1      32.658 -24.239 -15.006  0.00  0.00    -0.346 OA
ATOM     10  O   UNL     1      35.952 -23.755 -16.062  0.00  0.00    -0.272 OA
ATOM     11  O   UNL     1      31.289 -23.161 -16.503  0.00  0.00    -0.247 OA
ATOM     12  N   UNL     1      34.052 -24.412 -14.884  0.00  0.00    -0.144 N 
ATOM     13  C   UNL     1      33.716 -23.092 -16.736  0.00  0.00    +0.184 C 
ATOM     14  C   UNL     1      34.744 -23.775 -15.886  0.00  0.00    +0.264 C 
ATOM     15  C   UNL     1      32.401 -23.474 -16.110  0.00  0.00    +0.348 C 
ATOM     16  H   UNL     1      34.480 -24.930 -14.164  0.00  0.00    +0.196 HD
ENDBRANCH   8  13
ENDBRANCH   2   8
ENDBRANCH   1   5
BRANCH   1  17
ATOM     17  C   UNL     1      35.530 -18.253 -21.360  0.00  0.00    +0.213 C 
BRANCH  17  18
ATOM     18  C   UNL     1      36.084 -17.573 -22.608  0.00  0.00    +0.105 C 
BRANCH  18  21
ATOM     19  O   UNL     1      33.815 -15.321 -24.368  0.00  0.00    -0.449 OA
ATOM     20  N   UNL     1      34.942 -15.389 -22.408  0.00  0.00    -0.373 NA
ATOM     21  C   UNL     1      35.175 -16.504 -23.142  0.00  0.00    +0.134 C 
ATOM     22  C   UNL     1      34.512 -16.490 -24.321  0.00  0.00    +0.216 C 
ATOM     23  C   UNL     1      34.125 -14.717 -23.188  0.00  0.00    +0.277 C 
ATOM     24  C   UNL     1      34.388 -17.388 -25.475  0.00  0.00    +0.055 C 
BRANCH  23  25
ATOM     25  C   UNL     1      33.507 -13.437 -22.975  0.00  0.00    +0.066 C 
ATOM     26  C   UNL     1      33.842 -12.350 -23.788  0.00  0.00    +0.006 C 
ATOM     27  C   UNL     1      32.571 -13.271 -21.951  0.00  0.00    +0.006 C 
ATOM     28  C   UNL     1      33.244 -11.108 -23.579  0.00  0.00    +0.000 C 
ATOM     29  C   UNL     1      31.972 -12.029 -21.743  0.00  0.00    +0.000 C 
ATOM     30  C   UNL     1      32.308 -10.947 -22.556  0.00  0.00    +0.000 C 
ENDBRANCH  23  25
ENDBRANCH  18  21
ENDBRANCH  17  18
ENDBRANCH   1  17
TORSDOF 7
ENDMDL
MODEL 5
REMARK VINA RESULT:     -11.7      1.007      1.636
REMARK  Name = 154000
REMARK  7 active torsions:
REMARK  status: ('A' for Active; 'I' for Inactive)
REMARK    1  A    between atoms: O_1  and  C_5
REMARK    2  A    between atoms: O_1  and  C_17
REMARK    3  A    between atoms: C_2  and  C_8
REMARK    4  A    between atoms: C_8  and  C_13
REMARK    5  A    between atoms: C_17  and  C_18
REMARK    6  A    between atoms: C_18  and  C_21
REMARK    7  A    between atoms: C_23  and  C_25
REMARK                            x       y       z     vdW  Elec       q    Type
REMARK                         _______ _______ _______ _____ _____    ______ ____
ROOT
ATOM      1  O   UNL     1      33.435 -14.377 -23.345  0.00  0.00    -0.475 OA
ENDROOT
BRANCH   1   5
ATOM      2  C   UNL     1      33.120 -10.258 -23.207  0.00  0.00    -0.021 C 
ATOM      3  C   UNL     1      32.341 -11.030 -22.358  0.00  0.00    -0.001 C 
ATOM      4  C   UNL     1      34.002 -10.844 -24.102  0.00  0.00    -0.001 C 
ATOM      5  C   UNL     1      33.331 -13.021 -23.299  0.00  0.00    +0.139 C 
ATOM      6  C   UNL     1      32.447 -12.419 -22.404  0.00  0.00    +0.037 C 
ATOM      7  C   UNL     1      34.108 -12.234 -24.148  0.00  0.00    +0.037 C 
BRANCH   2   8
ATOM      8  C   UNL     1      33.004  -8.755 -23.157  0.00  0.00    +0.047 C 
BRANCH   8  13
ATOM      9  O   UNL     1      31.746  -6.420 -20.965  0.00  0.00    -0.346 OA
ATOM     10  O   UNL     1      30.551  -7.276 -24.134  0.00  0.00    -0.272 OA
ATOM     11  O   UNL     1      32.923  -8.222 -20.163  0.00  0.00    -0.247 OA
ATOM     12  N   UNL     1      31.041  -6.146 -22.156  0.00  0.00    -0.144 N 
ATOM     13  C   UNL     1      31.813  -8.305 -22.333  0.00  0.00    +0.184 C 
ATOM     14  C   UNL     1      31.054  -7.212 -23.023  0.00  0.00    +0.264 C 
ATOM     15  C   UNL     1      32.246  -7.691 -21.028  0.00  0.00    +0.348 C 
ATOM     16  H   UNL     1      30.593  -5.290 -22.344  0.00  0.00    +0.196 HD
ENDBRANCH   8  13
ENDBRANCH   2   8
ENDBRANCH   1   5
BRANCH   1  17
ATOM     17  C   UNL     1      34.464 -14.977 -22.557  0.00  0.00    +0.213 C 
BRANCH  17  18
ATOM     18  C   UNL     1      35.269 -15.949 -23.414  0.00  0.00    +0.105 C 
BRANCH  18  21
ATOM     19  O   UNL     1      34.382 -19.484 -23.218  0.00  0.00    -0.449 OA
ATOM     20  N   UNL     1      35.167 -17.862 -21.851  0.00  0.00    -0.373 NA
ATOM     21  C   UNL     1      34.968 -17.387 -23.104  0.00  0.00    +0.134 C 
ATOM     22  C   UNL     1      34.498 -18.337 -23.944  0.00  0.00    +0.216 C 
ATOM     23  C   UNL     1      34.800 -19.118 -21.975  0.00  0.00    +0.277 C 
ATOM     24  C   UNL     1      34.114 -18.401 -25.359  0.00  0.00    +0.055 C 
BRANCH  23  25
ATOM     25  C   UNL     1      34.779 -20.163 -20.990  0.00  0.00    +0.066 C 
ATOM     26  C   UNL     1      33.561 -20.672 -20.530  0.00  0.00    +0.006 C 
ATOM     27  C   UNL     1      35.976 -20.676 -20.484  0.00  0.00    +0.006 C 
ATOM     28  C   UNL     1      33.542 -21.685 -19.571  0.00  0.00    +0.000 C 
ATOM     29  C   UNL     1      35.957 -21.690 -19.526  0.00  0.00    +0.000 C 
ATOM     30  C   UNL     1      34.740 -22.195 -19.070  0.00  0.00    +0.000 C 
ENDBRANCH  23  25
ENDBRANCH  18  21
ENDBRANCH  17  18
ENDBRANCH   1  17
TORSDOF 7
ENDMDL
MODEL 6
REMARK VINA RESULT:     -11.7      2.865     10.738
REMARK  Name = 154000
REMARK  7 active torsions:
REMARK  status: ('A' for Active; 'I' for Inactive)
REMARK    1  A    between atoms: O_1  and  C_5
REMARK    2  A    between atoms: O_1  and  C_17
REMARK    3  A    between atoms: C_2  and  C_8
REMARK    4  A    between atoms: C_8  and  C_13
REMARK    5  A    between atoms: C_17  and  C_18
REMARK    6  A    between atoms: C_18  and  C_21
REMARK    7  A    between atoms: C_23  and  C_25
REMARK                            x       y       z     vdW  Elec       q    Type
REMARK                         _______ _______ _______ _____ _____    ______ ____
ROOT
ATOM      1  O   UNL     1      35.354 -15.737 -23.370  0.00  0.00    -0.475 OA
ENDROOT
BRANCH   1   5
ATOM      2  C   UNL     1      35.272 -19.562 -21.805  0.00  0.00    -0.021 C 
ATOM      3  C   UNL     1      34.950 -19.365 -23.140  0.00  0.00    -0.001 C 
ATOM      4  C   UNL     1      35.620 -18.498 -20.986  0.00  0.00    -0.001 C 
ATOM      5  C   UNL     1      35.326 -16.996 -22.855  0.00  0.00    +0.139 C 
ATOM      6  C   UNL     1      34.978 -18.075 -23.668  0.00  0.00    +0.037 C 
ATOM      7  C   UNL     1      35.647 -17.208 -21.515  0.00  0.00    +0.037 C 
BRANCH   2   8
ATOM      8  C   UNL     1      35.241 -20.957 -21.233  0.00  0.00    +0.047 C 
BRANCH   8  13
ATOM      9  O   UNL     1      32.791 -22.455 -19.339  0.00  0.00    -0.346 OA
ATOM     10  O   UNL     1      36.216 -22.262 -18.682  0.00  0.00    -0.272 OA
ATOM     11  O   UNL     1      32.254 -20.700 -20.719  0.00  0.00    -0.247 OA
ATOM     12  N   UNL     1      33.980 -22.916 -18.736  0.00  0.00    -0.144 N 
ATOM     13  C   UNL     1      34.529 -21.007 -19.895  0.00  0.00    +0.184 C 
ATOM     14  C   UNL     1      35.056 -22.116 -19.037  0.00  0.00    +0.264 C 
ATOM     15  C   UNL     1      33.066 -21.328 -20.061  0.00  0.00    +0.348 C 
ATOM     16  H   UNL     1      34.032 -23.717 -18.166  0.00  0.00    +0.196 HD
ENDBRANCH   8  13
ENDBRANCH   2   8
ENDBRANCH   1   5
BRANCH   1  17
ATOM     17  C   UNL     1      34.303 -14.852 -22.979  0.00  0.00    +0.213 C 
BRANCH  17  18
ATOM     18  C   UNL     1      33.462 -14.480 -24.196  0.00  0.00    +0.105 C 
BRANCH  18  21
ATOM     19  O   UNL     1      33.560 -11.071 -25.496  0.00  0.00    -0.449 OA
ATOM     20  N   UNL     1      33.484 -12.112 -23.489  0.00  0.00    -0.373 NA
ATOM     21  C   UNL     1      33.497 -13.011 -24.502  0.00  0.00    +0.134 C 
ATOM     22  C   UNL     1      33.542 -12.415 -25.716  0.00  0.00    +0.216 C 
ATOM     23  C   UNL     1      33.524 -10.970 -24.139  0.00  0.00    +0.277 C 
ATOM     24  C   UNL     1      33.575 -12.864 -27.112  0.00  0.00    +0.055 C 
BRANCH  23  25
ATOM     25  C   UNL     1      33.532  -9.628 -23.625  0.00  0.00    +0.066 C 
ATOM     26  C   UNL     1      32.419  -9.128 -22.942  0.00  0.00    +0.006 C 
ATOM     27  C   UNL     1      34.652  -8.813 -23.808  0.00  0.00    +0.006 C 
ATOM     28  C   UNL     1      32.428  -7.825 -22.446  0.00  0.00    +0.000 C 
ATOM     29  C   UNL     1      34.661  -7.510 -23.311  0.00  0.00    +0.000 C 
ATOM     30  C   UNL     1      33.549  -7.015 -22.630  0.00  0.00    +0.000 C 
ENDBRANCH  23  25
ENDBRANCH  18  21
ENDBRANCH  17  18
ENDBRANCH   1  17
TORSDOF 7
ENDMDL
MODEL 7
REMARK VINA RESULT:     -11.6      2.096     10.627
REMARK  Name = 154000
REMARK  7 active torsions:
REMARK  status: ('A' for Active; 'I' for Inactive)
REMARK    1  A    between atoms: O_1  and  C_5
REMARK    2  A    between atoms: O_1  and  C_17
REMARK    3  A    between atoms: C_2  and  C_8
REMARK    4  A    between atoms: C_8  and  C_13
REMARK    5  A    between atoms: C_17  and  C_18
REMARK    6  A    between atoms: C_18  and  C_21
REMARK    7  A    between atoms: C_23  and  C_25
REMARK                            x       y       z     vdW  Elec       q    Type
REMARK                         _______ _______ _______ _____ _____    ______ ____
ROOT
ATOM      1  O   UNL     1      33.696 -14.762 -25.336  0.00  0.00    -0.475 OA
ENDROOT
BRANCH   1   5
ATOM      2  C   UNL     1      34.938 -18.242 -23.483  0.00  0.00    -0.021 C 
ATOM      3  C   UNL     1      35.190 -17.020 -22.876  0.00  0.00    -0.001 C 
ATOM      4  C   UNL     1      34.278 -18.317 -24.700  0.00  0.00    -0.001 C 
ATOM      5  C   UNL     1      34.105 -15.907 -24.726  0.00  0.00    +0.139 C 
ATOM      6  C   UNL     1      34.771 -15.846 -23.501  0.00  0.00    +0.037 C 
ATOM      7  C   UNL     1      33.859 -17.143 -25.325  0.00  0.00    +0.037 C 
BRANCH   2   8
ATOM      8  C   UNL     1      35.392 -19.511 -22.807  0.00  0.00    +0.047 C 
BRANCH   8  13
ATOM      9  O   UNL     1      35.294 -21.134 -19.775  0.00  0.00    -0.346 OA
ATOM     10  O   UNL     1      37.806 -19.062 -21.038  0.00  0.00    -0.272 OA
ATOM     11  O   UNL     1      33.335 -20.561 -20.827  0.00  0.00    -0.247 OA
ATOM     12  N   UNL     1      36.628 -20.681 -19.846  0.00  0.00    -0.144 N 
ATOM     13  C   UNL     1      35.413 -19.374 -21.297  0.00  0.00    +0.184 C 
ATOM     14  C   UNL     1      36.777 -19.650 -20.742  0.00  0.00    +0.264 C 
ATOM     15  C   UNL     1      34.529 -20.401 -20.638  0.00  0.00    +0.348 C 
ATOM     16  H   UNL     1      37.365 -21.060 -19.315  0.00  0.00    +0.196 HD
ENDBRANCH   8  13
ENDBRANCH   2   8
ENDBRANCH   1   5
BRANCH   1  17
ATOM     17  C   UNL     1      32.930 -13.846 -24.553  0.00  0.00    +0.213 C 
BRANCH  17  18
ATOM     18  C   UNL     1      33.798 -12.656 -24.157  0.00  0.00    +0.105 C 
BRANCH  18  21
ATOM     19  O   UNL     1      31.926 -10.769 -21.656  0.00  0.00    -0.449 OA
ATOM     20  N   UNL     1      33.091 -10.365 -23.552  0.00  0.00    -0.373 NA
ATOM     21  C   UNL     1      33.084 -11.688 -23.258  0.00  0.00    +0.134 C 
ATOM     22  C   UNL     1      32.394 -11.959 -22.127  0.00  0.00    +0.216 C 
ATOM     23  C   UNL     1      32.384  -9.864 -22.563  0.00  0.00    +0.277 C 
ATOM     24  C   UNL     1      32.061 -13.161 -21.354  0.00  0.00    +0.055 C 
BRANCH  23  25
ATOM     25  C   UNL     1      32.026  -8.498 -22.299  0.00  0.00    +0.066 C 
ATOM     26  C   UNL     1      32.438  -7.878 -21.116  0.00  0.00    +0.006 C 
ATOM     27  C   UNL     1      31.261  -7.782 -23.223  0.00  0.00    +0.006 C 
ATOM     28  C   UNL     1      32.088  -6.553 -20.860  0.00  0.00    +0.000 C 
ATOM     29  C   UNL     1      30.912  -6.456 -22.968  0.00  0.00    +0.000 C 
ATOM     30  C   UNL     1      31.325  -5.841 -21.786  0.00  0.00    +0.000 C 
ENDBRANCH  23  25
ENDBRANCH  18  21
ENDBRANCH  17  18
ENDBRANCH   1  17
TORSDOF 7
ENDMDL
MODEL 8
REMARK VINA RESULT:     -11.6      6.287     10.232
REMARK  Name = 154000
REMARK  7 active torsions:
REMARK  status: ('A' for Active; 'I' for Inactive)
REMARK    1  A    between atoms: O_1  and  C_5
REMARK    2  A    between atoms: O_1  and  C_17
REMARK    3  A    between atoms: C_2  and  C_8
REMARK    4  A    between atoms: C_8  and  C_13
REMARK    5  A    between atoms: C_17  and  C_18
REMARK    6  A    between atoms: C_18  and  C_21
REMARK    7  A    between atoms: C_23  and  C_25
REMARK                            x       y       z     vdW  Elec       q    Type
REMARK                         _______ _______ _______ _____ _____    ______ ____
ROOT
ATOM      1  O   UNL     1      35.731 -23.153 -17.430  0.00  0.00    -0.475 OA
ENDROOT
BRANCH   1   5
ATOM      2  C   UNL     1      34.541 -20.695 -20.533  0.00  0.00    -0.021 C 
ATOM      3  C   UNL     1      35.892 -20.828 -20.250  0.00  0.00    -0.001 C 
ATOM      4  C   UNL     1      33.582 -21.371 -19.794  0.00  0.00    -0.001 C 
ATOM      5  C   UNL     1      35.340 -22.343 -18.452  0.00  0.00    +0.139 C 
ATOM      6  C   UNL     1      36.295 -21.657 -19.203  0.00  0.00    +0.037 C 
ATOM      7  C   UNL     1      33.985 -22.200 -18.747  0.00  0.00    +0.037 C 
BRANCH   2   8
ATOM      8  C   UNL     1      34.107 -19.797 -21.665  0.00  0.00    +0.047 C 
BRANCH   8  13
ATOM      9  O   UNL     1      35.154 -17.538 -24.040  0.00  0.00    -0.346 OA
ATOM     10  O   UNL     1      35.811 -17.529 -20.610  0.00  0.00    -0.272 OA
ATOM     11  O   UNL     1      34.697 -19.706 -24.648  0.00  0.00    -0.247 OA
ATOM     12  N   UNL     1      35.484 -16.896 -22.828  0.00  0.00    -0.144 N 
ATOM     13  C   UNL     1      35.288 -19.138 -22.351  0.00  0.00    +0.184 C 
ATOM     14  C   UNL     1      35.564 -17.780 -21.779  0.00  0.00    +0.264 C 
ATOM     15  C   UNL     1      35.004 -18.877 -23.807  0.00  0.00    +0.348 C 
ATOM     16  H   UNL     1      35.640 -15.928 -22.744  0.00  0.00    +0.196 HD
ENDBRANCH   8  13
ENDBRANCH   2   8
ENDBRANCH   1   5
BRANCH   1  17
ATOM     17  C   UNL     1      36.254 -22.518 -16.263  0.00  0.00    +0.213 C 
BRANCH  17  18
ATOM     18  C   UNL     1      36.303 -23.518 -15.111  0.00  0.00    +0.105 C 
BRANCH  18  21
ATOM     19  O   UNL     1      33.267 -24.447 -13.311  0.00  0.00    -0.449 OA
ATOM     20  N   UNL     1      33.863 -23.798 -15.395  0.00  0.00    -0.373 NA
ATOM     21  C   UNL     1      34.942 -23.861 -14.578  0.00  0.00    +0.134 C 
ATOM     22  C   UNL     1      34.614 -24.247 -13.323  0.00  0.00    +0.216 C 
ATOM     23  C   UNL     1      32.890 -24.158 -14.587  0.00  0.00    +0.277 C 
ATOM     24  C   UNL     1      35.335 -24.481 -12.067  0.00  0.00    +0.055 C 
BRANCH  23  25
ATOM     25  C   UNL     1      31.485 -24.290 -14.855  0.00  0.00    +0.066 C 
ATOM     26  C   UNL     1      30.767 -25.371 -14.335  0.00  0.00    +0.006 C 
ATOM     27  C   UNL     1      30.827 -23.339 -15.640  0.00  0.00    +0.006 C 
ATOM     28  C   UNL     1      29.404 -25.499 -14.597  0.00  0.00    +0.000 C 
ATOM     29  C   UNL     1      29.463 -23.467 -15.902  0.00  0.00    +0.000 C 
ATOM     30  C   UNL     1      28.751 -24.547 -15.381  0.00  0.00    +0.000 C 
ENDBRANCH  23  25
ENDBRANCH  18  21
ENDBRANCH  17  18
ENDBRANCH   1  17
TORSDOF 7
ENDMDL
MODEL 9
REMARK VINA RESULT:     -11.4      4.332      7.631
REMARK  Name = 154000
REMARK  7 active torsions:
REMARK  status: ('A' for Active; 'I' for Inactive)
REMARK    1  A    between atoms: O_1  and  C_5
REMARK    2  A    between atoms: O_1  and  C_17
REMARK    3  A    between atoms: C_2  and  C_8
REMARK    4  A    between atoms: C_8  and  C_13
REMARK    5  A    between atoms: C_17  and  C_18
REMARK    6  A    between atoms: C_18  and  C_21
REMARK    7  A    between atoms: C_23  and  C_25
REMARK                            x       y       z     vdW  Elec       q    Type
REMARK                         _______ _______ _______ _____ _____    ______ ____
ROOT
ATOM      1  O   UNL     1      35.418 -20.418 -20.328  0.00  0.00    -0.475 OA
ENDROOT
BRANCH   1   5
ATOM      2  C   UNL     1      35.240 -17.508 -23.259  0.00  0.00    -0.021 C 
ATOM      3  C   UNL     1      35.687 -17.170 -21.989  0.00  0.00    -0.001 C 
ATOM      4  C   UNL     1      34.852 -18.804 -23.562  0.00  0.00    -0.001 C 
ATOM      5  C   UNL     1      35.360 -19.459 -21.293  0.00  0.00    +0.139 C 
ATOM      6  C   UNL     1      35.747 -18.151 -21.000  0.00  0.00    +0.037 C 
ATOM      7  C   UNL     1      34.912 -19.785 -22.573  0.00  0.00    +0.037 C 
BRANCH   2   8
ATOM      8  C   UNL     1      35.174 -16.446 -24.327  0.00  0.00    +0.047 C 
BRANCH   8  13
ATOM      9  O   UNL     1      33.371 -13.572 -24.903  0.00  0.00    -0.346 OA
ATOM     10  O   UNL     1      33.212 -16.607 -26.626  0.00  0.00    -0.272 OA
ATOM     11  O   UNL     1      34.167 -14.018 -22.795  0.00  0.00    -0.247 OA
ATOM     12  N   UNL     1      33.090 -14.354 -26.044  0.00  0.00    -0.144 N 
ATOM     13  C   UNL     1      33.800 -15.809 -24.410  0.00  0.00    +0.184 C 
ATOM     14  C   UNL     1      33.339 -15.689 -25.831  0.00  0.00    +0.264 C 
ATOM     15  C   UNL     1      33.819 -14.390 -23.904  0.00  0.00    +0.348 C 
ATOM     16  H   UNL     1      32.756 -13.986 -26.893  0.00  0.00    +0.196 HD
ENDBRANCH   8  13
ENDBRANCH   2   8
ENDBRANCH   1   5
BRANCH   1  17
ATOM     17  C   UNL     1      34.232 -21.177 -20.095  0.00  0.00    +0.213 C 
BRANCH  17  18
ATOM     18  C   UNL     1      34.602 -22.602 -19.693  0.00  0.00    +0.105 C 
BRANCH  18  21
ATOM     19  O   UNL     1      34.432 -23.163 -16.091  0.00  0.00    -0.449 OA
ATOM     20  N   UNL     1      33.073 -23.328 -17.891  0.00  0.00    -0.373 NA
ATOM     21  C   UNL     1      34.306 -22.897 -18.251  0.00  0.00    +0.134 C 
ATOM     22  C   UNL     1      35.141 -22.788 -17.192  0.00  0.00    +0.216 C 
ATOM     23  C   UNL     1      33.205 -23.471 -16.591  0.00  0.00    +0.277 C 
ATOM     24  C   UNL     1      36.537 -22.388 -16.984  0.00  0.00    +0.055 C 
BRANCH  23  25
ATOM     25  C   UNL     1      32.240 -23.906 -15.619  0.00  0.00    +0.066 C 
ATOM     26  C   UNL     1      32.659 -24.531 -14.441  0.00  0.00    +0.006 C 
ATOM     27  C   UNL     1      30.875 -23.708 -15.848  0.00  0.00    +0.006 C 
ATOM     28  C   UNL     1      31.720 -24.953 -13.500  0.00  0.00    +0.000 C 
ATOM     29  C   UNL     1      29.937 -24.130 -14.906  0.00  0.00    +0.000 C 
ATOM     30  C   UNL     1      30.359 -24.753 -13.732  0.00  0.00    +0.000 C 
ENDBRANCH  23  25
ENDBRANCH  18  21
ENDBRANCH  17  18
ENDBRANCH   1  17
TORSDOF 7
ENDMDL
