MODEL 1
REMARK VINA RESULT:     -11.5      0.000      0.000
REMARK  Name = 448317
REMARK  6 active torsions:
REMARK  status: ('A' for Active; 'I' for Inactive)
REMARK    1  A    between atoms: C_1  and  C_18
REMARK    2  A    between atoms: C_4  and  N_24
REMARK    3  A    between atoms: C_5  and  S_25
REMARK    4  A    between atoms: S_25  and  C_26
REMARK    5  A    between atoms: C_27  and  O_32
REMARK    6  A    between atoms: O_32  and  C_33
REMARK                            x       y       z     vdW  Elec       q    Type
REMARK                         _______ _______ _______ _____ _____    ______ ____
ROOT
ATOM      1  C   UNL     1      34.158 -21.154 -19.801  0.00  0.00    +0.002 C 
ATOM      2  C   UNL     1      35.467 -20.700 -19.964  0.00  0.00    +0.025 C 
ATOM      3  C   UNL     1      33.174 -20.788 -20.719  0.00  0.00    +0.001 C 
ATOM      4  C   UNL     1      35.792 -19.882 -21.046  0.00  0.00    +0.149 C 
ATOM      5  C   UNL     1      34.808 -19.515 -21.964  0.00  0.00    +0.052 C 
ATOM      6  C   UNL     1      33.498 -19.969 -21.801  0.00  0.00    +0.008 C 
ENDROOT
BRANCH   1  18
ATOM      7  O   UNL     1      38.764 -24.151 -12.358  0.00  0.00    -0.275 OA
ATOM      8  N   UNL     1      35.502 -23.845 -15.963  0.00  0.00    -0.290 N 
ATOM      9  N   UNL     1      37.494 -24.780 -14.196  0.00  0.00    -0.276 N 
ATOM     10  N   UNL     1      33.167 -23.644 -16.513  0.00  0.00    -0.229 NA
ATOM     11  C   UNL     1      35.323 -25.143 -15.297  0.00  0.00    +0.114 C 
ATOM     12  C   UNL     1      36.365 -22.877 -15.267  0.00  0.00    +0.114 C 
ATOM     13  C   UNL     1      36.678 -25.748 -14.932  0.00  0.00    +0.115 C 
ATOM     14  C   UNL     1      37.702 -23.521 -14.906  0.00  0.00    +0.115 C 
ATOM     15  C   UNL     1      34.481 -23.339 -16.776  0.00  0.00    +0.132 C 
ATOM     16  C   UNL     1      38.067 -24.983 -12.943  0.00  0.00    +0.226 C 
ATOM     17  C   UNL     1      34.824 -22.514 -17.864  0.00  0.00    +0.034 C 
ATOM     18  C   UNL     1      33.821 -22.003 -18.680  0.00  0.00    +0.004 C 
ATOM     19  C   UNL     1      37.795 -26.312 -12.286  0.00  0.00    +0.095 C 
ATOM     20  C   UNL     1      32.491 -22.312 -18.414  0.00  0.00    +0.021 C 
ATOM     21  C   UNL     1      32.220 -23.130 -17.329  0.00  0.00    +0.100 C 
ENDBRANCH   1  18
BRANCH   4  24
ATOM     22  O   UNL     1      37.538 -19.025 -22.285  0.00  0.00    -0.126 OA
ATOM     23  O   UNL     1      37.886 -19.485 -20.166  0.00  0.00    -0.126 OA
ATOM     24  N   UNL     1      37.141 -19.442 -21.172  0.00  0.00    +0.058 N 
ENDBRANCH   4  24
BRANCH   5  25
ATOM     25  S   UNL     1      35.157 -18.467 -23.373  0.00  0.00    -0.082 S 
BRANCH  25  26
ATOM     26  C   UNL     1      34.910 -16.848 -22.663  0.00  0.00    +0.063 C 
ATOM     27  C   UNL     1      34.667 -15.731 -23.464  0.00  0.00    +0.144 C 
ATOM     28  C   UNL     1      34.965 -16.709 -21.274  0.00  0.00    +0.010 C 
ATOM     29  C   UNL     1      34.478 -14.479 -22.879  0.00  0.00    +0.037 C 
ATOM     30  C   UNL     1      34.777 -15.456 -20.690  0.00  0.00    +0.001 C 
ATOM     31  C   UNL     1      34.534 -14.341 -21.491  0.00  0.00    +0.003 C 
BRANCH  27  32
ATOM     32  O   UNL     1      34.604 -15.828 -24.823  0.00  0.00    -0.475 OA
BRANCH  32  33
ATOM     33  C   UNL     1      33.310 -15.759 -25.418  0.00  0.00    +0.206 C 
ATOM     34  C   UNL     1      33.127 -14.392 -26.041  0.00  0.00    +0.051 C 
ENDBRANCH  32  33
ENDBRANCH  27  32
ENDBRANCH  25  26
ENDBRANCH   5  25
TORSDOF 6
ENDMDL
MODEL 2
REMARK VINA RESULT:      -9.8      1.526      1.821
REMARK  Name = 448317
REMARK  6 active torsions:
REMARK  status: ('A' for Active; 'I' for Inactive)
REMARK    1  A    between atoms: C_1  and  C_18
REMARK    2  A    between atoms: C_4  and  N_24
REMARK    3  A    between atoms: C_5  and  S_25
REMARK    4  A    between atoms: S_25  and  C_26
REMARK    5  A    between atoms: C_27  and  O_32
REMARK    6  A    between atoms: O_32  and  C_33
REMARK                            x       y       z     vdW  Elec       q    Type
REMARK                         _______ _______ _______ _____ _____    ______ ____
ROOT
ATOM      1  C   UNL     1      34.745 -21.442 -19.420  0.00  0.00    +0.002 C 
ATOM      2  C   UNL     1      33.829 -21.045 -20.395  0.00  0.00    +0.025 C 
ATOM      3  C   UNL     1      36.071 -21.016 -19.495  0.00  0.00    +0.001 C 
ATOM      4  C   UNL     1      34.238 -20.220 -21.443  0.00  0.00    +0.149 C 
ATOM      5  C   UNL     1      35.564 -19.794 -21.518  0.00  0.00    +0.052 C 
ATOM      6  C   UNL     1      36.481 -20.190 -20.543  0.00  0.00    +0.008 C 
ENDROOT
BRANCH   1  18
ATOM      7  O   UNL     1      38.647 -24.243 -11.513  0.00  0.00    -0.275 OA
ATOM      8  N   UNL     1      35.772 -24.067 -15.441  0.00  0.00    -0.290 N 
ATOM      9  N   UNL     1      37.598 -24.923 -13.469  0.00  0.00    -0.276 N 
ATOM     10  N   UNL     1      33.502 -23.951 -16.234  0.00  0.00    -0.229 NA
ATOM     11  C   UNL     1      35.568 -25.368 -14.788  0.00  0.00    +0.114 C 
ATOM     12  C   UNL     1      36.523 -23.066 -14.667  0.00  0.00    +0.114 C 
ATOM     13  C   UNL     1      36.898 -25.923 -14.278  0.00  0.00    +0.115 C 
ATOM     14  C   UNL     1      37.836 -23.661 -14.163  0.00  0.00    +0.115 C 
ATOM     15  C   UNL     1      34.825 -23.601 -16.360  0.00  0.00    +0.132 C 
ATOM     16  C   UNL     1      38.044 -25.101 -12.161  0.00  0.00    +0.226 C 
ATOM     17  C   UNL     1      35.250 -22.769 -17.413  0.00  0.00    +0.034 C 
ATOM     18  C   UNL     1      34.321 -22.297 -18.334  0.00  0.00    +0.004 C 
ATOM     19  C   UNL     1      37.750 -26.436 -11.525  0.00  0.00    +0.095 C 
ATOM     20  C   UNL     1      32.983 -22.651 -18.206  0.00  0.00    +0.021 C 
ATOM     21  C   UNL     1      32.627 -23.473 -17.149  0.00  0.00    +0.100 C 
ENDBRANCH   1  18
BRANCH   4  24
ATOM     22  O   UNL     1      33.662 -19.431 -23.532  0.00  0.00    -0.126 OA
ATOM     23  O   UNL     1      32.054 -19.928 -22.122  0.00  0.00    -0.126 OA
ATOM     24  N   UNL     1      33.269 -19.840 -22.415  0.00  0.00    +0.058 N 
ENDBRANCH   4  24
BRANCH   5  25
ATOM     25  S   UNL     1      36.155 -18.735 -22.836  0.00  0.00    -0.082 S 
BRANCH  25  26
ATOM     26  C   UNL     1      35.459 -17.165 -22.349  0.00  0.00    +0.063 C 
ATOM     27  C   UNL     1      35.031 -16.233 -23.296  0.00  0.00    +0.144 C 
ATOM     28  C   UNL     1      35.347 -16.874 -20.987  0.00  0.00    +0.010 C 
ATOM     29  C   UNL     1      34.492 -15.015 -22.884  0.00  0.00    +0.037 C 
ATOM     30  C   UNL     1      34.807 -15.654 -20.576  0.00  0.00    +0.001 C 
ATOM     31  C   UNL     1      34.380 -14.725 -21.524  0.00  0.00    +0.003 C 
BRANCH  27  32
ATOM     32  O   UNL     1      35.122 -16.483 -24.634  0.00  0.00    -0.475 OA
BRANCH  32  33
ATOM     33  C   UNL     1      33.909 -16.773 -25.323  0.00  0.00    +0.206 C 
ATOM     34  C   UNL     1      33.492 -15.556 -26.120  0.00  0.00    +0.051 C 
ENDBRANCH  32  33
ENDBRANCH  27  32
ENDBRANCH  25  26
ENDBRANCH   5  25
TORSDOF 6
ENDMDL
MODEL 3
REMARK VINA RESULT:      -9.6      6.746     12.973
REMARK  Name = 448317
REMARK  6 active torsions:
REMARK  status: ('A' for Active; 'I' for Inactive)
REMARK    1  A    between atoms: C_1  and  C_18
REMARK    2  A    between atoms: C_4  and  N_24
REMARK    3  A    between atoms: C_5  and  S_25
REMARK    4  A    between atoms: S_25  and  C_26
REMARK    5  A    between atoms: C_27  and  O_32
REMARK    6  A    between atoms: O_32  and  C_33
REMARK                            x       y       z     vdW  Elec       q    Type
REMARK                         _______ _______ _______ _____ _____    ______ ____
ROOT
ATOM      1  C   UNL     1      33.129 -13.219 -22.580  0.00  0.00    +0.002 C 
ATOM      2  C   UNL     1      32.887 -13.484 -23.928  0.00  0.00    +0.025 C 
ATOM      3  C   UNL     1      34.007 -14.027 -21.857  0.00  0.00    +0.001 C 
ATOM      4  C   UNL     1      33.524 -14.557 -24.554  0.00  0.00    +0.149 C 
ATOM      5  C   UNL     1      34.401 -15.365 -23.831  0.00  0.00    +0.052 C 
ATOM      6  C   UNL     1      34.644 -15.100 -22.482  0.00  0.00    +0.008 C 
ENDROOT
BRANCH   1  18
ATOM      7  O   UNL     1      31.301  -4.484 -25.017  0.00  0.00    -0.275 OA
ATOM      8  N   UNL     1      32.111  -8.457 -22.319  0.00  0.00    -0.290 N 
ATOM      9  N   UNL     1      32.245  -5.855 -23.401  0.00  0.00    -0.276 N 
ATOM     10  N   UNL     1      31.195  -9.960 -20.676  0.00  0.00    -0.229 NA
ATOM     11  C   UNL     1      32.057  -7.299 -21.416  0.00  0.00    +0.114 C 
ATOM     12  C   UNL     1      31.655  -8.222 -23.698  0.00  0.00    +0.114 C 
ATOM     13  C   UNL     1      32.756  -6.096 -22.049  0.00  0.00    +0.115 C 
ATOM     14  C   UNL     1      32.363  -7.006 -24.292  0.00  0.00    +0.115 C 
ATOM     15  C   UNL     1      31.962  -9.747 -21.797  0.00  0.00    +0.132 C 
ATOM     16  C   UNL     1      31.706  -4.658 -23.866  0.00  0.00    +0.226 C 
ATOM     17  C   UNL     1      32.609 -10.820 -22.438  0.00  0.00    +0.034 C 
ATOM     18  C   UNL     1      32.470 -12.108 -21.931  0.00  0.00    +0.004 C 
ATOM     19  C   UNL     1      31.622  -3.526 -22.874  0.00  0.00    +0.095 C 
ATOM     20  C   UNL     1      31.694 -12.322 -20.797  0.00  0.00    +0.021 C 
ATOM     21  C   UNL     1      31.084 -11.225 -20.212  0.00  0.00    +0.100 C 
ENDBRANCH   1  18
BRANCH   4  24
ATOM     22  O   UNL     1      32.931 -15.946 -26.295  0.00  0.00    -0.126 OA
ATOM     23  O   UNL     1      33.327 -13.831 -26.733  0.00  0.00    -0.126 OA
ATOM     24  N   UNL     1      33.247 -14.790 -25.931  0.00  0.00    +0.058 N 
ENDBRANCH   4  24
BRANCH   5  25
ATOM     25  S   UNL     1      35.251 -16.757 -24.572  0.00  0.00    -0.082 S 
BRANCH  25  26
ATOM     26  C   UNL     1      35.237 -17.923 -23.220  0.00  0.00    +0.063 C 
ATOM     27  C   UNL     1      34.298 -18.954 -23.158  0.00  0.00    +0.144 C 
ATOM     28  C   UNL     1      36.190 -17.788 -22.208  0.00  0.00    +0.010 C 
ATOM     29  C   UNL     1      34.313 -19.848 -22.088  0.00  0.00    +0.037 C 
ATOM     30  C   UNL     1      36.204 -18.683 -21.138  0.00  0.00    +0.001 C 
ATOM     31  C   UNL     1      35.266 -19.714 -21.078  0.00  0.00    +0.003 C 
BRANCH  27  32
ATOM     32  O   UNL     1      33.354 -19.118 -24.128  0.00  0.00    -0.475 OA
BRANCH  32  33
ATOM     33  C   UNL     1      33.821 -19.328 -25.458  0.00  0.00    +0.206 C 
ATOM     34  C   UNL     1      34.609 -20.620 -25.505  0.00  0.00    +0.051 C 
ENDBRANCH  32  33
ENDBRANCH  27  32
ENDBRANCH  25  26
ENDBRANCH   5  25
TORSDOF 6
ENDMDL
MODEL 4
REMARK VINA RESULT:      -8.7      6.699     11.247
REMARK  Name = 448317
REMARK  6 active torsions:
REMARK  status: ('A' for Active; 'I' for Inactive)
REMARK    1  A    between atoms: C_1  and  C_18
REMARK    2  A    between atoms: C_4  and  N_24
REMARK    3  A    between atoms: C_5  and  S_25
REMARK    4  A    between atoms: S_25  and  C_26
REMARK    5  A    between atoms: C_27  and  O_32
REMARK    6  A    between atoms: O_32  and  C_33
REMARK                            x       y       z     vdW  Elec       q    Type
REMARK                         _______ _______ _______ _____ _____    ______ ____
ROOT
ATOM      1  C   UNL     1      33.742 -11.194 -24.188  0.00  0.00    +0.002 C 
ATOM      2  C   UNL     1      32.701 -10.636 -23.446  0.00  0.00    +0.025 C 
ATOM      3  C   UNL     1      34.870 -10.430 -24.490  0.00  0.00    +0.001 C 
ATOM      4  C   UNL     1      32.787  -9.315 -23.005  0.00  0.00    +0.149 C 
ATOM      5  C   UNL     1      33.915  -8.552 -23.306  0.00  0.00    +0.052 C 
ATOM      6  C   UNL     1      34.957  -9.109 -24.048  0.00  0.00    +0.008 C 
ENDROOT
BRANCH   1  18
ATOM      7  O   UNL     1      34.880 -19.438 -20.147  0.00  0.00    -0.275 OA
ATOM      8  N   UNL     1      34.602 -15.949 -23.535  0.00  0.00    -0.290 N 
ATOM      9  N   UNL     1      35.505 -18.082 -21.923  0.00  0.00    -0.276 N 
ATOM     10  N   UNL     1      33.481 -15.208 -25.532  0.00  0.00    -0.229 NA
ATOM     11  C   UNL     1      35.127 -17.163 -24.175  0.00  0.00    +0.114 C 
ATOM     12  C   UNL     1      34.046 -16.122 -22.183  0.00  0.00    +0.114 C 
ATOM     13  C   UNL     1      36.105 -17.879 -23.244  0.00  0.00    +0.115 C 
ATOM     14  C   UNL     1      35.044 -16.851 -21.287  0.00  0.00    +0.115 C 
ATOM     15  C   UNL     1      34.077 -14.922 -24.327  0.00  0.00    +0.132 C 
ATOM     16  C   UNL     1      35.375 -19.304 -21.268  0.00  0.00    +0.226 C 
ATOM     17  C   UNL     1      34.171 -13.594 -23.870  0.00  0.00    +0.034 C 
ATOM     18  C   UNL     1      33.653 -12.562 -24.646  0.00  0.00    +0.004 C 
ATOM     19  C   UNL     1      35.877 -20.520 -22.004  0.00  0.00    +0.095 C 
ATOM     20  C   UNL     1      33.049 -12.853 -25.864  0.00  0.00    +0.021 C 
ATOM     21  C   UNL     1      32.990 -14.179 -26.259  0.00  0.00    +0.100 C 
ENDBRANCH   1  18
BRANCH   4  24
ATOM     22  O   UNL     1      31.730  -8.879 -21.002  0.00  0.00    -0.126 OA
ATOM     23  O   UNL     1      30.749  -8.247 -22.862  0.00  0.00    -0.126 OA
ATOM     24  N   UNL     1      31.700  -8.787 -22.251  0.00  0.00    +0.058 N 
ENDBRANCH   4  24
BRANCH   5  25
ATOM     25  S   UNL     1      34.090  -6.851 -22.771  0.00  0.00    -0.082 S 
BRANCH  25  26
ATOM     26  C   UNL     1      33.899  -5.986 -24.321  0.00  0.00    +0.063 C 
ATOM     27  C   UNL     1      32.670  -5.452 -24.710  0.00  0.00    +0.144 C 
ATOM     28  C   UNL     1      35.012  -5.848 -25.154  0.00  0.00    +0.010 C 
ATOM     29  C   UNL     1      32.553  -4.781 -25.927  0.00  0.00    +0.037 C 
ATOM     30  C   UNL     1      34.894  -5.177 -26.371  0.00  0.00    +0.001 C 
ATOM     31  C   UNL     1      33.665  -4.644 -26.759  0.00  0.00    +0.003 C 
BRANCH  27  32
ATOM     32  O   UNL     1      31.562  -5.564 -23.923  0.00  0.00    -0.475 OA
BRANCH  32  33
ATOM     33  C   UNL     1      31.215  -4.434 -23.126  0.00  0.00    +0.206 C 
ATOM     34  C   UNL     1      30.452  -4.906 -21.908  0.00  0.00    +0.051 C 
ENDBRANCH  32  33
ENDBRANCH  27  32
ENDBRANCH  25  26
ENDBRANCH   5  25
TORSDOF 6
ENDMDL
MODEL 5
REMARK VINA RESULT:      -8.6      2.772      3.947
REMARK  Name = 448317
REMARK  6 active torsions:
REMARK  status: ('A' for Active; 'I' for Inactive)
REMARK    1  A    between atoms: C_1  and  C_18
REMARK    2  A    between atoms: C_4  and  N_24
REMARK    3  A    between atoms: C_5  and  S_25
REMARK    4  A    between atoms: S_25  and  C_26
REMARK    5  A    between atoms: C_27  and  O_32
REMARK    6  A    between atoms: O_32  and  C_33
REMARK                            x       y       z     vdW  Elec       q    Type
REMARK                         _______ _______ _______ _____ _____    ______ ____
ROOT
ATOM      1  C   UNL     1      35.975 -21.127 -19.316  0.00  0.00    +0.002 C 
ATOM      2  C   UNL     1      34.797 -20.934 -20.037  0.00  0.00    +0.025 C 
ATOM      3  C   UNL     1      37.161 -20.535 -19.749  0.00  0.00    +0.001 C 
ATOM      4  C   UNL     1      34.803 -20.149 -21.190  0.00  0.00    +0.149 C 
ATOM      5  C   UNL     1      35.990 -19.558 -21.624  0.00  0.00    +0.052 C 
ATOM      6  C   UNL     1      37.170 -19.750 -20.903  0.00  0.00    +0.008 C 
ENDROOT
BRANCH   1  18
ATOM      7  O   UNL     1      29.444 -25.817 -14.740  0.00  0.00    -0.275 OA
ATOM      8  N   UNL     1      33.551 -23.399 -15.747  0.00  0.00    -0.290 N 
ATOM      9  N   UNL     1      31.126 -24.227 -14.566  0.00  0.00    -0.276 N 
ATOM     10  N   UNL     1      35.955 -23.512 -15.809  0.00  0.00    -0.229 NA
ATOM     11  C   UNL     1      33.493 -23.609 -14.293  0.00  0.00    +0.114 C 
ATOM     12  C   UNL     1      32.579 -24.159 -16.548  0.00  0.00    +0.114 C 
ATOM     13  C   UNL     1      32.064 -23.420 -13.783  0.00  0.00    +0.115 C 
ATOM     14  C   UNL     1      31.167 -23.957 -16.001  0.00  0.00    +0.115 C 
ATOM     15  C   UNL     1      34.771 -23.069 -16.348  0.00  0.00    +0.132 C 
ATOM     16  C   UNL     1      30.235 -25.166 -14.053  0.00  0.00    +0.226 C 
ATOM     17  C   UNL     1      34.764 -22.276 -17.511  0.00  0.00    +0.034 C 
ATOM     18  C   UNL     1      35.968 -21.940 -18.121  0.00  0.00    +0.004 C 
ATOM     19  C   UNL     1      30.266 -25.379 -12.561  0.00  0.00    +0.095 C 
ATOM     20  C   UNL     1      37.166 -22.390 -17.576  0.00  0.00    +0.021 C 
ATOM     21  C   UNL     1      37.106 -23.165 -16.429  0.00  0.00    +0.100 C 
ENDBRANCH   1  18
BRANCH   4  24
ATOM     22  O   UNL     1      33.615 -19.685 -23.111  0.00  0.00    -0.126 OA
ATOM     23  O   UNL     1      32.499 -20.135 -21.274  0.00  0.00    -0.126 OA
ATOM     24  N   UNL     1      33.577 -19.981 -21.895  0.00  0.00    +0.058 N 
ENDBRANCH   4  24
BRANCH   5  25
ATOM     25  S   UNL     1      36.069 -18.539 -23.095  0.00  0.00    -0.082 S 
BRANCH  25  26
ATOM     26  C   UNL     1      35.391 -17.005 -22.484  0.00  0.00    +0.063 C 
ATOM     27  C   UNL     1      34.943 -16.010 -23.353  0.00  0.00    +0.144 C 
ATOM     28  C   UNL     1      35.313 -16.809 -21.103  0.00  0.00    +0.010 C 
ATOM     29  C   UNL     1      34.419 -14.822 -22.844  0.00  0.00    +0.037 C 
ATOM     30  C   UNL     1      34.789 -15.621 -20.595  0.00  0.00    +0.001 C 
ATOM     31  C   UNL     1      34.341 -14.627 -21.465  0.00  0.00    +0.003 C 
BRANCH  27  32
ATOM     32  O   UNL     1      35.001 -16.166 -24.706  0.00  0.00    -0.475 OA
BRANCH  32  33
ATOM     33  C   UNL     1      33.760 -16.200 -25.408  0.00  0.00    +0.206 C 
ATOM     34  C   UNL     1      33.463 -17.627 -25.815  0.00  0.00    +0.051 C 
ENDBRANCH  32  33
ENDBRANCH  27  32
ENDBRANCH  25  26
ENDBRANCH   5  25
TORSDOF 6
ENDMDL
