MODEL 1
REMARK VINA RESULT:     -11.6      0.000      0.000
REMARK  Name = 45268539
REMARK  6 active torsions:
REMARK  status: ('A' for Active; 'I' for Inactive)
REMARK    1  A    between atoms: N_2  and  C_22
REMARK    2  A    between atoms: N_3  and  C_7
REMARK    3  A    between atoms: N_3  and  O_12
REMARK    4  A    between atoms: C_8  and  C_14
REMARK    5  A    between atoms: C_15  and  C_16
REMARK    6  A    between atoms: C_22  and  C_26
REMARK                            x       y       z     vdW  Elec       q    Type
REMARK                         _______ _______ _______ _____ _____    ______ ____
ROOT
ATOM      1  O   UNL     1      31.915 -23.889 -17.006  0.00  0.00    -0.273 OA
ATOM      2  N   UNL     1      34.120 -23.542 -16.190  0.00  0.00    -0.253 N 
ATOM      3  C   UNL     1      35.256 -22.906 -16.729  0.00  0.00    +0.052 C 
ATOM      4  C   UNL     1      34.974 -22.396 -17.996  0.00  0.00    +0.018 C 
ATOM      5  C   UNL     1      33.054 -23.477 -17.071  0.00  0.00    +0.252 C 
ATOM      6  C   UNL     1      33.589 -22.729 -18.268  0.00  0.00    +0.202 C 
ATOM      7  C   UNL     1      35.905 -21.723 -18.758  0.00  0.00    -0.001 C 
ATOM      8  C   UNL     1      36.512 -22.752 -16.173  0.00  0.00    +0.015 C 
ATOM      9  C   UNL     1      37.176 -21.562 -18.204  0.00  0.00    -0.000 C 
ATOM     10  C   UNL     1      37.477 -22.071 -16.926  0.00  0.00    +0.001 C 
ENDROOT
BRANCH   7  11
ATOM     11  C   UNL     1      35.619 -21.192 -20.078  0.00  0.00    -0.000 C 
ATOM     12  C   UNL     1      35.647 -19.879 -20.417  0.00  0.00    -0.000 C 
BRANCH  12  13
ATOM     13  C   UNL     1      35.373 -19.340 -21.762  0.00  0.00    -0.000 C 
ATOM     14  C   UNL     1      34.792 -20.155 -22.734  0.00  0.00    -0.000 C 
ATOM     15  C   UNL     1      35.694 -18.016 -22.061  0.00  0.00    -0.000 C 
ATOM     16  C   UNL     1      34.533 -19.645 -24.007  0.00  0.00    +0.000 C 
ATOM     17  C   UNL     1      35.434 -17.507 -23.333  0.00  0.00    +0.000 C 
ATOM     18  C   UNL     1      34.855 -18.321 -24.306  0.00  0.00    +0.000 C 
ENDBRANCH  12  13
ENDBRANCH   7  11
BRANCH   6  19
ATOM     19  N   UNL     1      32.890 -22.466 -19.314  0.00  0.00    -0.075 NA
BRANCH  19  20
ATOM     20  O   UNL     1      32.280 -21.220 -19.139  0.00  0.00    -0.294 OA
ATOM     21  H   UNL     1      31.898 -20.998 -18.313  0.00  0.00    +0.238 HD
ENDBRANCH  19  20
ENDBRANCH   6  19
BRANCH   2  22
ATOM     22  C   UNL     1      34.101 -24.167 -14.890  0.00  0.00    +0.128 C 
BRANCH  22  26
ATOM     23  F   UNL     1      37.106 -27.760 -16.195  0.00  0.00    -0.204 F 
ATOM     24  O   UNL     1      35.785 -23.727 -12.701  0.00  0.00    -0.448 OA
ATOM     25  O   UNL     1      37.431 -24.527 -11.147  0.00  0.00    -0.311 OA
ATOM     26  C   UNL     1      35.332 -24.989 -14.643  0.00  0.00    +0.034 C 
ATOM     27  C   UNL     1      36.156 -24.745 -13.543  0.00  0.00    +0.138 C 
ATOM     28  C   UNL     1      37.292 -25.532 -13.318  0.00  0.00    +0.043 C 
ATOM     29  C   UNL     1      35.656 -26.010 -15.537  0.00  0.00    +0.030 C 
ATOM     30  C   UNL     1      38.163 -25.257 -12.130  0.00  0.00    +0.176 C 
ATOM     31  C   UNL     1      37.614 -26.546 -14.226  0.00  0.00    +0.031 C 
ATOM     32  C   UNL     1      36.797 -26.785 -15.331  0.00  0.00    +0.140 C 
ATOM     33  C   UNL     1      36.795 -23.397 -11.742  0.00  0.00    +0.361 C 
ENDBRANCH  22  26
ENDBRANCH   2  22
TORSDOF 6
ENDMDL
MODEL 2
REMARK VINA RESULT:     -11.4      5.327      9.143
REMARK  Name = 45268539
REMARK  6 active torsions:
REMARK  status: ('A' for Active; 'I' for Inactive)
REMARK    1  A    between atoms: N_2  and  C_22
REMARK    2  A    between atoms: N_3  and  C_7
REMARK    3  A    between atoms: N_3  and  O_12
REMARK    4  A    between atoms: C_8  and  C_14
REMARK    5  A    between atoms: C_15  and  C_16
REMARK    6  A    between atoms: C_22  and  C_26
REMARK                            x       y       z     vdW  Elec       q    Type
REMARK                         _______ _______ _______ _____ _____    ______ ____
ROOT
ATOM      1  O   UNL     1      35.639 -16.709 -20.274  0.00  0.00    -0.273 OA
ATOM      2  N   UNL     1      35.261 -17.406 -22.515  0.00  0.00    -0.253 N 
ATOM      3  C   UNL     1      34.729 -16.758 -23.646  0.00  0.00    +0.052 C 
ATOM      4  C   UNL     1      34.366 -15.448 -23.333  0.00  0.00    +0.018 C 
ATOM      5  C   UNL     1      35.272 -16.558 -21.420  0.00  0.00    +0.252 C 
ATOM      6  C   UNL     1      34.688 -15.263 -21.931  0.00  0.00    +0.202 C 
ATOM      7  C   UNL     1      33.816 -14.581 -24.253  0.00  0.00    -0.001 C 
ATOM      8  C   UNL     1      34.546 -17.250 -24.925  0.00  0.00    +0.015 C 
ATOM      9  C   UNL     1      33.628 -15.070 -25.546  0.00  0.00    -0.000 C 
ATOM     10  C   UNL     1      33.989 -16.390 -25.879  0.00  0.00    +0.001 C 
ENDROOT
BRANCH   7  11
ATOM     11  C   UNL     1      33.434 -13.218 -23.932  0.00  0.00    -0.000 C 
ATOM     12  C   UNL     1      34.205 -12.120 -24.136  0.00  0.00    -0.000 C 
BRANCH  12  13
ATOM     13  C   UNL     1      33.812 -10.734 -23.827  0.00  0.00    -0.000 C 
ATOM     14  C   UNL     1      32.562 -10.473 -23.265  0.00  0.00    -0.000 C 
ATOM     15  C   UNL     1      34.690  -9.684 -24.093  0.00  0.00    -0.000 C 
ATOM     16  C   UNL     1      32.190  -9.160 -22.972  0.00  0.00    +0.000 C 
ATOM     17  C   UNL     1      34.318  -8.372 -23.800  0.00  0.00    +0.000 C 
ATOM     18  C   UNL     1      33.068  -8.110 -23.240  0.00  0.00    +0.000 C 
ENDBRANCH  12  13
ENDBRANCH   7  11
BRANCH   6  19
ATOM     19  N   UNL     1      34.528 -14.218 -21.200  0.00  0.00    -0.075 NA
BRANCH  19  20
ATOM     20  O   UNL     1      33.204 -14.187 -20.753  0.00  0.00    -0.294 OA
ATOM     21  H   UNL     1      32.791 -14.974 -20.457  0.00  0.00    +0.238 HD
ENDBRANCH  19  20
ENDBRANCH   6  19
BRANCH   2  22
ATOM     22  C   UNL     1      35.727 -18.771 -22.527  0.00  0.00    +0.128 C 
BRANCH  22  26
ATOM     23  F   UNL     1      31.386 -20.527 -21.213  0.00  0.00    -0.204 F 
ATOM     24  O   UNL     1      36.840 -20.390 -20.537  0.00  0.00    -0.448 OA
ATOM     25  O   UNL     1      36.621 -21.608 -18.480  0.00  0.00    -0.311 OA
ATOM     26  C   UNL     1      34.892 -19.658 -21.650  0.00  0.00    +0.034 C 
ATOM     27  C   UNL     1      35.475 -20.457 -20.666  0.00  0.00    +0.138 C 
ATOM     28  C   UNL     1      34.681 -21.267 -19.845  0.00  0.00    +0.043 C 
ATOM     29  C   UNL     1      33.509 -19.683 -21.832  0.00  0.00    +0.030 C 
ATOM     30  C   UNL     1      35.325 -22.116 -18.792  0.00  0.00    +0.176 C 
ATOM     31  C   UNL     1      33.297 -21.294 -20.042  0.00  0.00    +0.031 C 
ATOM     32  C   UNL     1      32.713 -20.502 -21.032  0.00  0.00    +0.140 C 
ATOM     33  C   UNL     1      37.372 -21.400 -19.674  0.00  0.00    +0.361 C 
ENDBRANCH  22  26
ENDBRANCH   2  22
TORSDOF 6
ENDMDL
MODEL 3
REMARK VINA RESULT:     -11.0      6.459     12.437
REMARK  Name = 45268539
REMARK  6 active torsions:
REMARK  status: ('A' for Active; 'I' for Inactive)
REMARK    1  A    between atoms: N_2  and  C_22
REMARK    2  A    between atoms: N_3  and  C_7
REMARK    3  A    between atoms: N_3  and  O_12
REMARK    4  A    between atoms: C_8  and  C_14
REMARK    5  A    between atoms: C_15  and  C_16
REMARK    6  A    between atoms: C_22  and  C_26
REMARK                            x       y       z     vdW  Elec       q    Type
REMARK                         _______ _______ _______ _____ _____    ______ ____
ROOT
ATOM      1  O   UNL     1      34.953 -13.871 -21.544  0.00  0.00    -0.273 OA
ATOM      2  N   UNL     1      34.303 -14.723 -23.666  0.00  0.00    -0.253 N 
ATOM      3  C   UNL     1      34.212 -16.027 -24.191  0.00  0.00    +0.052 C 
ATOM      4  C   UNL     1      34.592 -16.967 -23.233  0.00  0.00    +0.018 C 
ATOM      5  C   UNL     1      34.741 -14.750 -22.352  0.00  0.00    +0.252 C 
ATOM      6  C   UNL     1      34.938 -16.214 -22.043  0.00  0.00    +0.202 C 
ATOM      7  C   UNL     1      34.599 -18.324 -23.475  0.00  0.00    -0.001 C 
ATOM      8  C   UNL     1      33.819 -16.431 -25.454  0.00  0.00    +0.015 C 
ATOM      9  C   UNL     1      34.203 -18.740 -24.746  0.00  0.00    -0.000 C 
ATOM     10  C   UNL     1      33.817 -17.804 -25.726  0.00  0.00    +0.001 C 
ENDROOT
BRANCH   7  11
ATOM     11  C   UNL     1      34.994 -19.307 -22.482  0.00  0.00    -0.000 C 
ATOM     12  C   UNL     1      34.232 -19.713 -21.436  0.00  0.00    -0.000 C 
BRANCH  12  13
ATOM     13  C   UNL     1      34.626 -20.724 -20.438  0.00  0.00    -0.000 C 
ATOM     14  C   UNL     1      35.974 -20.912 -20.130  0.00  0.00    -0.000 C 
ATOM     15  C   UNL     1      33.651 -21.490 -19.800  0.00  0.00    -0.000 C 
ATOM     16  C   UNL     1      36.347 -21.868 -19.185  0.00  0.00    +0.000 C 
ATOM     17  C   UNL     1      34.024 -22.446 -18.855  0.00  0.00    +0.000 C 
ATOM     18  C   UNL     1      35.372 -22.636 -18.548  0.00  0.00    +0.000 C 
ENDBRANCH  12  13
ENDBRANCH   7  11
BRANCH   6  19
ATOM     19  N   UNL     1      35.347 -16.652 -20.905  0.00  0.00    -0.075 NA
BRANCH  19  20
ATOM     20  O   UNL     1      34.609 -16.024 -19.897  0.00  0.00    -0.294 OA
ATOM     21  H   UNL     1      34.656 -15.094 -19.793  0.00  0.00    +0.238 HD
ENDBRANCH  19  20
ENDBRANCH   6  19
BRANCH   2  22
ATOM     22  C   UNL     1      33.975 -13.538 -24.420  0.00  0.00    +0.128 C 
BRANCH  22  26
ATOM     23  F   UNL     1      30.718 -12.334 -21.016  0.00  0.00    -0.204 F 
ATOM     24  O   UNL     1      34.645 -10.827 -24.555  0.00  0.00    -0.448 OA
ATOM     25  O   UNL     1      34.068  -8.520 -24.222  0.00  0.00    -0.311 OA
ATOM     26  C   UNL     1      33.302 -12.499 -23.572  0.00  0.00    +0.034 C 
ATOM     27  C   UNL     1      33.659 -11.153 -23.658  0.00  0.00    +0.138 C 
ATOM     28  C   UNL     1      33.010 -10.194 -22.872  0.00  0.00    +0.043 C 
ATOM     29  C   UNL     1      32.307 -12.895 -22.678  0.00  0.00    +0.030 C 
ATOM     30  C   UNL     1      33.405  -8.753 -22.980  0.00  0.00    +0.176 C 
ATOM     31  C   UNL     1      32.021 -10.602 -21.971  0.00  0.00    +0.031 C 
ATOM     32  C   UNL     1      31.670 -11.949 -21.876  0.00  0.00    +0.140 C 
ATOM     33  C   UNL     1      35.106  -9.478 -24.415  0.00  0.00    +0.361 C 
ENDBRANCH  22  26
ENDBRANCH   2  22
TORSDOF 6
ENDMDL
MODEL 4
REMARK VINA RESULT:     -10.8      2.495      3.462
REMARK  Name = 45268539
REMARK  6 active torsions:
REMARK  status: ('A' for Active; 'I' for Inactive)
REMARK    1  A    between atoms: N_2  and  C_22
REMARK    2  A    between atoms: N_3  and  C_7
REMARK    3  A    between atoms: N_3  and  O_12
REMARK    4  A    between atoms: C_8  and  C_14
REMARK    5  A    between atoms: C_15  and  C_16
REMARK    6  A    between atoms: C_22  and  C_26
REMARK                            x       y       z     vdW  Elec       q    Type
REMARK                         _______ _______ _______ _____ _____    ______ ____
ROOT
ATOM      1  O   UNL     1      37.549 -23.002 -15.562  0.00  0.00    -0.273 OA
ATOM      2  N   UNL     1      35.245 -23.555 -15.744  0.00  0.00    -0.253 N 
ATOM      3  C   UNL     1      34.253 -23.242 -16.694  0.00  0.00    +0.052 C 
ATOM      4  C   UNL     1      34.784 -22.446 -17.709  0.00  0.00    +0.018 C 
ATOM      5  C   UNL     1      36.458 -22.984 -16.090  0.00  0.00    +0.252 C 
ATOM      6  C   UNL     1      36.182 -22.249 -17.380  0.00  0.00    +0.202 C 
ATOM      7  C   UNL     1      34.036 -21.990 -18.774  0.00  0.00    -0.001 C 
ATOM      8  C   UNL     1      32.921 -23.614 -16.716  0.00  0.00    +0.015 C 
ATOM      9  C   UNL     1      32.691 -22.361 -18.804  0.00  0.00    -0.000 C 
ATOM     10  C   UNL     1      32.139 -23.164 -17.787  0.00  0.00    +0.001 C 
ENDROOT
BRANCH   7  11
ATOM     11  C   UNL     1      34.582 -21.160 -19.832  0.00  0.00    -0.000 C 
ATOM     12  C   UNL     1      33.866 -20.309 -20.608  0.00  0.00    -0.000 C 
BRANCH  12  13
ATOM     13  C   UNL     1      34.423 -19.453 -21.671  0.00  0.00    -0.000 C 
ATOM     14  C   UNL     1      35.326 -18.440 -21.350  0.00  0.00    -0.000 C 
ATOM     15  C   UNL     1      34.049 -19.658 -22.999  0.00  0.00    -0.000 C 
ATOM     16  C   UNL     1      35.853 -17.630 -22.356  0.00  0.00    +0.000 C 
ATOM     17  C   UNL     1      34.576 -18.849 -24.005  0.00  0.00    +0.000 C 
ATOM     18  C   UNL     1      35.477 -17.834 -23.684  0.00  0.00    +0.000 C 
ENDBRANCH  12  13
ENDBRANCH   7  11
BRANCH   6  19
ATOM     19  N   UNL     1      37.073 -21.582 -18.023  0.00  0.00    -0.075 NA
BRANCH  19  20
ATOM     20  O   UNL     1      37.541 -20.556 -17.197  0.00  0.00    -0.294 OA
ATOM     21  H   UNL     1      37.752 -19.719 -17.563  0.00  0.00    +0.238 HD
ENDBRANCH  19  20
ENDBRANCH   6  19
BRANCH   2  22
ATOM     22  C   UNL     1      34.998 -24.365 -14.576  0.00  0.00    +0.128 C 
BRANCH  22  26
ATOM     23  F   UNL     1      37.358 -22.690 -10.668  0.00  0.00    -0.204 F 
ATOM     24  O   UNL     1      37.124 -26.146 -14.937  0.00  0.00    -0.448 OA
ATOM     25  O   UNL     1      39.424 -26.741 -14.588  0.00  0.00    -0.311 OA
ATOM     26  C   UNL     1      36.184 -24.401 -13.656  0.00  0.00    +0.034 C 
ATOM     27  C   UNL     1      37.229 -25.302 -13.859  0.00  0.00    +0.138 C 
ATOM     28  C   UNL     1      38.336 -25.312 -13.001  0.00  0.00    +0.043 C 
ATOM     29  C   UNL     1      36.231 -23.518 -12.577  0.00  0.00    +0.030 C 
ATOM     30  C   UNL     1      39.450 -26.286 -13.236  0.00  0.00    +0.176 C 
ATOM     31  C   UNL     1      38.369 -24.431 -11.916  0.00  0.00    +0.031 C 
ATOM     32  C   UNL     1      37.319 -23.535 -11.706  0.00  0.00    +0.140 C 
ATOM     33  C   UNL     1      38.113 -27.181 -14.937  0.00  0.00    +0.361 C 
ENDBRANCH  22  26
ENDBRANCH   2  22
TORSDOF 6
ENDMDL
MODEL 5
REMARK VINA RESULT:     -10.6      7.020     13.000
REMARK  Name = 45268539
REMARK  6 active torsions:
REMARK  status: ('A' for Active; 'I' for Inactive)
REMARK    1  A    between atoms: N_2  and  C_22
REMARK    2  A    between atoms: N_3  and  C_7
REMARK    3  A    between atoms: N_3  and  O_12
REMARK    4  A    between atoms: C_8  and  C_14
REMARK    5  A    between atoms: C_15  and  C_16
REMARK    6  A    between atoms: C_22  and  C_26
REMARK                            x       y       z     vdW  Elec       q    Type
REMARK                         _______ _______ _______ _____ _____    ______ ____
ROOT
ATOM      1  O   UNL     1      33.280 -13.115 -21.300  0.00  0.00    -0.273 OA
ATOM      2  N   UNL     1      33.187 -13.842 -23.561  0.00  0.00    -0.253 N 
ATOM      3  C   UNL     1      33.626 -15.011 -24.213  0.00  0.00    +0.052 C 
ATOM      4  C   UNL     1      34.229 -15.881 -23.304  0.00  0.00    +0.018 C 
ATOM      5  C   UNL     1      33.479 -13.893 -22.208  0.00  0.00    +0.252 C 
ATOM      6  C   UNL     1      34.165 -15.224 -22.013  0.00  0.00    +0.202 C 
ATOM      7  C   UNL     1      34.751 -17.103 -23.668  0.00  0.00    -0.001 C 
ATOM      8  C   UNL     1      33.527 -15.351 -25.550  0.00  0.00    +0.015 C 
ATOM      9  C   UNL     1      34.655 -17.454 -25.016  0.00  0.00    -0.000 C 
ATOM     10  C   UNL     1      34.050 -16.587 -25.947  0.00  0.00    +0.001 C 
ENDROOT
BRANCH   7  11
ATOM     11  C   UNL     1      35.380 -18.012 -22.727  0.00  0.00    -0.000 C 
ATOM     12  C   UNL     1      34.739 -18.974 -22.020  0.00  0.00    -0.000 C 
BRANCH  12  13
ATOM     13  C   UNL     1      35.380 -19.908 -21.077  0.00  0.00    -0.000 C 
ATOM     14  C   UNL     1      34.622 -20.899 -20.453  0.00  0.00    -0.000 C 
ATOM     15  C   UNL     1      36.745 -19.802 -20.810  0.00  0.00    -0.000 C 
ATOM     16  C   UNL     1      35.230 -21.783 -19.560  0.00  0.00    +0.000 C 
ATOM     17  C   UNL     1      37.352 -20.686 -19.918  0.00  0.00    +0.000 C 
ATOM     18  C   UNL     1      36.594 -21.676 -19.293  0.00  0.00    +0.000 C 
ENDBRANCH  12  13
ENDBRANCH   7  11
BRANCH   6  19
ATOM     19  N   UNL     1      34.595 -15.643 -20.876  0.00  0.00    -0.075 NA
BRANCH  19  20
ATOM     20  O   UNL     1      35.282 -14.599 -20.249  0.00  0.00    -0.294 OA
ATOM     21  H   UNL     1      35.129 -14.415 -19.343  0.00  0.00    +0.238 HD
ENDBRANCH  19  20
ENDBRANCH   6  19
BRANCH   2  22
ATOM     22  C   UNL     1      32.525 -12.755 -24.239  0.00  0.00    +0.128 C 
BRANCH  22  26
ATOM     23  F   UNL     1      36.296 -10.409 -26.218  0.00  0.00    -0.204 F 
ATOM     24  O   UNL     1      32.094 -10.478 -22.674  0.00  0.00    -0.448 OA
ATOM     25  O   UNL     1      32.920  -8.471 -21.648  0.00  0.00    -0.311 OA
ATOM     26  C   UNL     1      33.396 -11.537 -24.334  0.00  0.00    +0.034 C 
ATOM     27  C   UNL     1      33.156 -10.413 -23.542  0.00  0.00    +0.138 C 
ATOM     28  C   UNL     1      33.987  -9.290 -23.630  0.00  0.00    +0.043 C 
ATOM     29  C   UNL     1      34.459 -11.533 -25.236  0.00  0.00    +0.030 C 
ATOM     30  C   UNL     1      33.716  -8.094 -22.771  0.00  0.00    +0.176 C 
ATOM     31  C   UNL     1      35.044  -9.291 -24.547  0.00  0.00    +0.031 C 
ATOM     32  C   UNL     1      35.280 -10.411 -25.346  0.00  0.00    +0.140 C 
ATOM     33  C   UNL     1      31.782  -9.215 -22.076  0.00  0.00    +0.361 C 
ENDBRANCH  22  26
ENDBRANCH   2  22
TORSDOF 6
ENDMDL
MODEL 6
REMARK VINA RESULT:     -10.5      5.821     10.147
REMARK  Name = 45268539
REMARK  6 active torsions:
REMARK  status: ('A' for Active; 'I' for Inactive)
REMARK    1  A    between atoms: N_2  and  C_22
REMARK    2  A    between atoms: N_3  and  C_7
REMARK    3  A    between atoms: N_3  and  O_12
REMARK    4  A    between atoms: C_8  and  C_14
REMARK    5  A    between atoms: C_15  and  C_16
REMARK    6  A    between atoms: C_22  and  C_26
REMARK                            x       y       z     vdW  Elec       q    Type
REMARK                         _______ _______ _______ _____ _____    ______ ____
ROOT
ATOM      1  O   UNL     1      35.043 -16.588 -21.058  0.00  0.00    -0.273 OA
ATOM      2  N   UNL     1      34.457 -16.760 -23.355  0.00  0.00    -0.253 N 
ATOM      3  C   UNL     1      34.014 -15.822 -24.307  0.00  0.00    +0.052 C 
ATOM      4  C   UNL     1      33.915 -14.554 -23.733  0.00  0.00    +0.018 C 
ATOM      5  C   UNL     1      34.668 -16.156 -22.127  0.00  0.00    +0.252 C 
ATOM      6  C   UNL     1      34.319 -14.704 -22.349  0.00  0.00    +0.202 C 
ATOM      7  C   UNL     1      33.504 -13.442 -24.437  0.00  0.00    -0.001 C 
ATOM      8  C   UNL     1      33.694 -16.017 -25.638  0.00  0.00    +0.015 C 
ATOM      9  C   UNL     1      33.179 -13.631 -25.781  0.00  0.00    -0.000 C 
ATOM     10  C   UNL     1      33.273 -14.904 -26.375  0.00  0.00    +0.001 C 
ENDROOT
BRANCH   7  11
ATOM     11  C   UNL     1      33.398 -12.121 -23.845  0.00  0.00    -0.000 C 
ATOM     12  C   UNL     1      33.836 -10.971 -24.414  0.00  0.00    -0.000 C 
BRANCH  12  13
ATOM     13  C   UNL     1      33.713  -9.627 -23.821  0.00  0.00    -0.000 C 
ATOM     14  C   UNL     1      32.517  -9.237 -23.219  0.00  0.00    -0.000 C 
ATOM     15  C   UNL     1      34.794  -8.746 -23.861  0.00  0.00    -0.000 C 
ATOM     16  C   UNL     1      32.401  -7.964 -22.658  0.00  0.00    +0.000 C 
ATOM     17  C   UNL     1      34.678  -7.474 -23.300  0.00  0.00    +0.000 C 
ATOM     18  C   UNL     1      33.481  -7.083 -22.699  0.00  0.00    +0.000 C 
ENDBRANCH  12  13
ENDBRANCH   7  11
BRANCH   6  19
ATOM     19  N   UNL     1      34.386 -13.808 -21.429  0.00  0.00    -0.075 NA
BRANCH  19  20
ATOM     20  O   UNL     1      33.205 -13.848 -20.683  0.00  0.00    -0.294 OA
ATOM     21  H   UNL     1      32.795 -14.671 -20.499  0.00  0.00    +0.238 HD
ENDBRANCH  19  20
ENDBRANCH   6  19
BRANCH   2  22
ATOM     22  C   UNL     1      34.657 -18.158 -23.651  0.00  0.00    +0.128 C 
BRANCH  22  26
ATOM     23  F   UNL     1      38.932 -19.009 -21.495  0.00  0.00    -0.204 F 
ATOM     24  O   UNL     1      33.515 -19.895 -21.780  0.00  0.00    -0.448 OA
ATOM     25  O   UNL     1      33.725 -21.715 -20.230  0.00  0.00    -0.311 OA
ATOM     26  C   UNL     1      35.467 -18.847 -22.592  0.00  0.00    +0.034 C 
ATOM     27  C   UNL     1      34.869 -19.707 -21.670  0.00  0.00    +0.138 C 
ATOM     28  C   UNL     1      35.642 -20.355 -20.698  0.00  0.00    +0.043 C 
ATOM     29  C   UNL     1      36.841 -18.614 -22.531  0.00  0.00    +0.030 C 
ATOM     30  C   UNL     1      34.983 -21.277 -19.718  0.00  0.00    +0.176 C 
ATOM     31  C   UNL     1      37.017 -20.107 -20.638  0.00  0.00    +0.031 C 
ATOM     32  C   UNL     1      37.614 -19.239 -21.553  0.00  0.00    +0.140 C 
ATOM     33  C   UNL     1      32.954 -20.599 -20.668  0.00  0.00    +0.361 C 
ENDBRANCH  22  26
ENDBRANCH   2  22
TORSDOF 6
ENDMDL
MODEL 7
REMARK VINA RESULT:     -10.4      1.860      2.511
REMARK  Name = 45268539
REMARK  6 active torsions:
REMARK  status: ('A' for Active; 'I' for Inactive)
REMARK    1  A    between atoms: N_2  and  C_22
REMARK    2  A    between atoms: N_3  and  C_7
REMARK    3  A    between atoms: N_3  and  O_12
REMARK    4  A    between atoms: C_8  and  C_14
REMARK    5  A    between atoms: C_15  and  C_16
REMARK    6  A    between atoms: C_22  and  C_26
REMARK                            x       y       z     vdW  Elec       q    Type
REMARK                         _______ _______ _______ _____ _____    ______ ____
ROOT
ATOM      1  O   UNL     1      37.499 -23.069 -15.776  0.00  0.00    -0.273 OA
ATOM      2  N   UNL     1      35.183 -23.568 -15.966  0.00  0.00    -0.253 N 
ATOM      3  C   UNL     1      34.192 -23.195 -16.895  0.00  0.00    +0.052 C 
ATOM      4  C   UNL     1      34.733 -22.366 -17.879  0.00  0.00    +0.018 C 
ATOM      5  C   UNL     1      36.405 -23.007 -16.296  0.00  0.00    +0.252 C 
ATOM      6  C   UNL     1      36.137 -22.211 -17.551  0.00  0.00    +0.202 C 
ATOM      7  C   UNL     1      33.988 -21.850 -18.918  0.00  0.00    -0.001 C 
ATOM      8  C   UNL     1      32.854 -23.539 -16.926  0.00  0.00    +0.015 C 
ATOM      9  C   UNL     1      32.636 -22.193 -18.956  0.00  0.00    -0.000 C 
ATOM     10  C   UNL     1      32.074 -23.028 -17.970  0.00  0.00    +0.001 C 
ENDROOT
BRANCH   7  11
ATOM     11  C   UNL     1      34.545 -20.986 -19.943  0.00  0.00    -0.000 C 
ATOM     12  C   UNL     1      33.822 -20.246 -20.820  0.00  0.00    -0.000 C 
BRANCH  12  13
ATOM     13  C   UNL     1      34.387 -19.355 -21.850  0.00  0.00    -0.000 C 
ATOM     14  C   UNL     1      34.053 -19.541 -23.191  0.00  0.00    -0.000 C 
ATOM     15  C   UNL     1      35.253 -18.326 -21.482  0.00  0.00    -0.000 C 
ATOM     16  C   UNL     1      34.588 -18.697 -24.166  0.00  0.00    +0.000 C 
ATOM     17  C   UNL     1      35.787 -17.483 -22.457  0.00  0.00    +0.000 C 
ATOM     18  C   UNL     1      35.455 -17.669 -23.799  0.00  0.00    +0.000 C 
ENDBRANCH  12  13
ENDBRANCH   7  11
BRANCH   6  19
ATOM     19  N   UNL     1      37.037 -21.534 -18.170  0.00  0.00    -0.075 NA
BRANCH  19  20
ATOM     20  O   UNL     1      37.550 -20.572 -17.295  0.00  0.00    -0.294 OA
ATOM     21  H   UNL     1      37.905 -20.834 -16.467  0.00  0.00    +0.238 HD
ENDBRANCH  19  20
ENDBRANCH   6  19
BRANCH   2  22
ATOM     22  C   UNL     1      34.927 -24.423 -14.833  0.00  0.00    +0.128 C 
BRANCH  22  26
ATOM     23  F   UNL     1      38.251 -27.965 -15.066  0.00  0.00    -0.204 F 
ATOM     24  O   UNL     1      36.389 -23.369 -12.695  0.00  0.00    -0.448 OA
ATOM     25  O   UNL     1      37.944 -23.663 -10.890  0.00  0.00    -0.311 OA
ATOM     26  C   UNL     1      36.182 -25.067 -14.320  0.00  0.00    +0.034 C 
ATOM     27  C   UNL     1      36.892 -24.517 -13.253  0.00  0.00    +0.138 C 
ATOM     28  C   UNL     1      38.052 -25.139 -12.775  0.00  0.00    +0.043 C 
ATOM     29  C   UNL     1      36.643 -26.234 -14.930  0.00  0.00    +0.030 C 
ATOM     30  C   UNL     1      38.801 -24.535 -11.626  0.00  0.00    +0.176 C 
ATOM     31  C   UNL     1      38.513 -26.302 -13.400  0.00  0.00    +0.031 C 
ATOM     32  C   UNL     1      37.809 -26.849 -14.474  0.00  0.00    +0.140 C 
ATOM     33  C   UNL     1      37.292 -22.752 -11.771  0.00  0.00    +0.361 C 
ENDBRANCH  22  26
ENDBRANCH   2  22
TORSDOF 6
ENDMDL
MODEL 8
REMARK VINA RESULT:     -10.3      1.729      2.270
REMARK  Name = 45268539
REMARK  6 active torsions:
REMARK  status: ('A' for Active; 'I' for Inactive)
REMARK    1  A    between atoms: N_2  and  C_22
REMARK    2  A    between atoms: N_3  and  C_7
REMARK    3  A    between atoms: N_3  and  O_12
REMARK    4  A    between atoms: C_8  and  C_14
REMARK    5  A    between atoms: C_15  and  C_16
REMARK    6  A    between atoms: C_22  and  C_26
REMARK                            x       y       z     vdW  Elec       q    Type
REMARK                         _______ _______ _______ _____ _____    ______ ____
ROOT
ATOM      1  O   UNL     1      31.781 -23.903 -16.943  0.00  0.00    -0.273 OA
ATOM      2  N   UNL     1      34.009 -23.701 -16.140  0.00  0.00    -0.253 N 
ATOM      3  C   UNL     1      35.168 -23.095 -16.662  0.00  0.00    +0.052 C 
ATOM      4  C   UNL     1      34.898 -22.512 -17.900  0.00  0.00    +0.018 C 
ATOM      5  C   UNL     1      32.938 -23.544 -17.003  0.00  0.00    +0.252 C 
ATOM      6  C   UNL     1      33.496 -22.765 -18.170  0.00  0.00    +0.202 C 
ATOM      7  C   UNL     1      35.852 -21.847 -18.641  0.00  0.00    -0.001 C 
ATOM      8  C   UNL     1      36.436 -23.027 -16.116  0.00  0.00    +0.015 C 
ATOM      9  C   UNL     1      37.135 -21.774 -18.097  0.00  0.00    -0.000 C 
ATOM     10  C   UNL     1      37.424 -22.358 -16.848  0.00  0.00    +0.001 C 
ENDROOT
BRANCH   7  11
ATOM     11  C   UNL     1      35.577 -21.240 -19.931  0.00  0.00    -0.000 C 
ATOM     12  C   UNL     1      35.716 -19.922 -20.221  0.00  0.00    -0.000 C 
BRANCH  12  13
ATOM     13  C   UNL     1      35.453 -19.308 -21.535  0.00  0.00    -0.000 C 
ATOM     14  C   UNL     1      34.950 -20.084 -22.579  0.00  0.00    -0.000 C 
ATOM     15  C   UNL     1      35.708 -17.951 -21.734  0.00  0.00    -0.000 C 
ATOM     16  C   UNL     1      34.701 -19.502 -23.823  0.00  0.00    +0.000 C 
ATOM     17  C   UNL     1      35.459 -17.370 -22.977  0.00  0.00    +0.000 C 
ATOM     18  C   UNL     1      34.957 -18.145 -24.022  0.00  0.00    +0.000 C 
ENDBRANCH  12  13
ENDBRANCH   7  11
BRANCH   6  19
ATOM     19  N   UNL     1      32.798 -22.419 -19.193  0.00  0.00    -0.075 NA
BRANCH  19  20
ATOM     20  O   UNL     1      31.986 -21.340 -18.832  0.00  0.00    -0.294 OA
ATOM     21  H   UNL     1      32.267 -20.744 -18.165  0.00  0.00    +0.238 HD
ENDBRANCH  19  20
ENDBRANCH   6  19
BRANCH   2  22
ATOM     22  C   UNL     1      33.974 -24.386 -14.871  0.00  0.00    +0.128 C 
BRANCH  22  26
ATOM     23  F   UNL     1      37.170 -22.504 -11.726  0.00  0.00    -0.204 F 
ATOM     24  O   UNL     1      35.891 -26.338 -15.452  0.00  0.00    -0.448 OA
ATOM     25  O   UNL     1      38.182 -27.054 -15.509  0.00  0.00    -0.311 OA
ATOM     26  C   UNL     1      35.321 -24.414 -14.209  0.00  0.00    +0.034 C 
ATOM     27  C   UNL     1      36.257 -25.402 -14.518  0.00  0.00    +0.138 C 
ATOM     28  C   UNL     1      37.516 -25.405 -13.904  0.00  0.00    +0.043 C 
ATOM     29  C   UNL     1      35.633 -23.435 -13.266  0.00  0.00    +0.030 C 
ATOM     30  C   UNL     1      38.509 -26.472 -14.248  0.00  0.00    +0.176 C 
ATOM     31  C   UNL     1      37.816 -24.426 -12.951  0.00  0.00    +0.031 C 
ATOM     32  C   UNL     1      36.877 -23.443 -12.635  0.00  0.00    +0.140 C 
ATOM     33  C   UNL     1      36.808 -27.434 -15.537  0.00  0.00    +0.361 C 
ENDBRANCH  22  26
ENDBRANCH   2  22
TORSDOF 6
ENDMDL
MODEL 9
REMARK VINA RESULT:     -10.2     11.674     16.787
REMARK  Name = 45268539
REMARK  6 active torsions:
REMARK  status: ('A' for Active; 'I' for Inactive)
REMARK    1  A    between atoms: N_2  and  C_22
REMARK    2  A    between atoms: N_3  and  C_7
REMARK    3  A    between atoms: N_3  and  O_12
REMARK    4  A    between atoms: C_8  and  C_14
REMARK    5  A    between atoms: C_15  and  C_16
REMARK    6  A    between atoms: C_22  and  C_26
REMARK                            x       y       z     vdW  Elec       q    Type
REMARK                         _______ _______ _______ _____ _____    ______ ____
ROOT
ATOM      1  O   UNL     1      34.952  -8.317 -24.552  0.00  0.00    -0.273 OA
ATOM      2  N   UNL     1      33.501  -8.479 -22.676  0.00  0.00    -0.253 N 
ATOM      3  C   UNL     1      32.780  -9.547 -22.107  0.00  0.00    +0.052 C 
ATOM      4  C   UNL     1      32.996 -10.721 -22.830  0.00  0.00    +0.018 C 
ATOM      5  C   UNL     1      34.216  -8.900 -23.784  0.00  0.00    +0.252 C 
ATOM      6  C   UNL     1      33.901 -10.372 -23.908  0.00  0.00    +0.202 C 
ATOM      7  C   UNL     1      32.413 -11.925 -22.497  0.00  0.00    -0.001 C 
ATOM      8  C   UNL     1      31.950  -9.546 -21.001  0.00  0.00    +0.015 C 
ATOM      9  C   UNL     1      31.575 -11.932 -21.381  0.00  0.00    -0.000 C 
ATOM     10  C   UNL     1      31.345 -10.756 -20.641  0.00  0.00    +0.001 C 
ENDROOT
BRANCH   7  11
ATOM     11  C   UNL     1      32.633 -13.149 -23.245  0.00  0.00    -0.000 C 
ATOM     12  C   UNL     1      33.753 -13.911 -23.188  0.00  0.00    -0.000 C 
BRANCH  12  13
ATOM     13  C   UNL     1      33.970 -15.163 -23.934  0.00  0.00    -0.000 C 
ATOM     14  C   UNL     1      33.339 -15.362 -25.162  0.00  0.00    -0.000 C 
ATOM     15  C   UNL     1      34.808 -16.150 -23.414  0.00  0.00    -0.000 C 
ATOM     16  C   UNL     1      33.544 -16.547 -25.869  0.00  0.00    +0.000 C 
ATOM     17  C   UNL     1      35.013 -17.334 -24.120  0.00  0.00    +0.000 C 
ATOM     18  C   UNL     1      34.381 -17.534 -25.347  0.00  0.00    +0.000 C 
ENDBRANCH  12  13
ENDBRANCH   7  11
BRANCH   6  19
ATOM     19  N   UNL     1      34.381 -11.127 -24.831  0.00  0.00    -0.075 NA
BRANCH  19  20
ATOM     20  O   UNL     1      35.705 -10.748 -25.071  0.00  0.00    -0.294 OA
ATOM     21  H   UNL     1      36.118 -10.115 -24.517  0.00  0.00    +0.238 HD
ENDBRANCH  19  20
ENDBRANCH   6  19
BRANCH   2  22
ATOM     22  C   UNL     1      33.478  -7.136 -22.149  0.00  0.00    +0.128 C 
BRANCH  22  26
ATOM     23  F   UNL     1      34.411  -5.096 -26.464  0.00  0.00    -0.204 F 
ATOM     24  O   UNL     1      31.348  -5.341 -21.906  0.00  0.00    -0.448 OA
ATOM     25  O   UNL     1      30.300  -3.263 -22.492  0.00  0.00    -0.311 OA
ATOM     26  C   UNL     1      33.155  -6.122 -23.207  0.00  0.00    +0.034 C 
ATOM     27  C   UNL     1      32.084  -5.240 -23.060  0.00  0.00    +0.138 C 
ATOM     28  C   UNL     1      31.805  -4.289 -24.049  0.00  0.00    +0.043 C 
ATOM     29  C   UNL     1      33.941  -6.070 -24.358  0.00  0.00    +0.030 C 
ATOM     30  C   UNL     1      30.652  -3.349 -23.872  0.00  0.00    +0.176 C 
ATOM     31  C   UNL     1      32.591  -4.252 -25.205  0.00  0.00    +0.031 C 
ATOM     32  C   UNL     1      33.658  -5.139 -25.358  0.00  0.00    +0.140 C 
ATOM     33  C   UNL     1      30.144  -4.568 -21.940  0.00  0.00    +0.361 C 
ENDBRANCH  22  26
ENDBRANCH   2  22
TORSDOF 6
ENDMDL
