MODEL 1
REMARK VINA RESULT:     -11.5      0.000      0.000
REMARK  Name = 3351
REMARK  5 active torsions:
REMARK  status: ('A' for Active; 'I' for Inactive)
REMARK    1  A    between atoms: N_2  and  C_10
REMARK    2  A    between atoms: C_8  and  C_20
REMARK    3  A    between atoms: C_10  and  C_13
REMARK    4  A    between atoms: C_20  and  O_21
REMARK    5  A    between atoms: O_21  and  C_23
REMARK                            x       y       z     vdW  Elec       q    Type
REMARK                         _______ _______ _______ _____ _____    ______ ____
ROOT
ATOM      1  O   UNL     1      35.281 -17.068 -24.134  0.00  0.00    -0.271 OA
ATOM      2  N   UNL     1      32.906 -13.181 -22.093  0.00  0.00    +0.392 N 
ATOM      3  N   UNL     1      34.630 -15.399 -22.655  0.00  0.00    -0.281 N 
ATOM      4  C   UNL     1      32.889 -13.822 -23.416  0.00  0.00    -0.055 C 
ATOM      5  C   UNL     1      33.214 -14.167 -21.047  0.00  0.00    -0.055 C 
ATOM      6  C   UNL     1      34.238 -14.475 -23.718  0.00  0.00    +0.071 C 
ATOM      7  C   UNL     1      34.568 -14.834 -21.304  0.00  0.00    +0.071 C 
ATOM      8  C   UNL     1      35.134 -16.658 -22.979  0.00  0.00    +0.270 C 
ATOM      9  H   UNL     1      33.637 -12.468 -22.089  0.00  0.00    -0.079 HD
ENDROOT
BRANCH   2  10
ATOM     10  C   UNL     1      31.626 -12.528 -21.822  0.00  0.00    -0.050 C 
BRANCH  10  13
ATOM     11  O   UNL     1      32.183  -7.636 -22.191  0.00  0.00    -0.435 OA
ATOM     12  O   UNL     1      32.314  -7.354 -19.801  0.00  0.00    -0.435 OA
ATOM     13  C   UNL     1      31.811 -11.151 -21.243  0.00  0.00    -0.040 C 
ATOM     14  C   UNL     1      31.902 -10.059 -22.101  0.00  0.00    +0.034 C 
ATOM     15  C   UNL     1      31.886 -10.998 -19.854  0.00  0.00    -0.003 C 
ATOM     16  C   UNL     1      32.071  -8.817 -21.525  0.00  0.00    +0.176 C 
ATOM     17  C   UNL     1      32.146  -8.656 -20.160  0.00  0.00    +0.176 C 
ATOM     18  C   UNL     1      32.057  -9.728 -19.296  0.00  0.00    +0.040 C 
ATOM     19  C   UNL     1      32.336  -6.713 -21.094  0.00  0.00    +0.429 C 
ENDBRANCH  10  13
ENDBRANCH   2  10
BRANCH   8  20
ATOM     20  C   UNL     1      35.510 -17.552 -21.825  0.00  0.00    +0.290 C 
BRANCH  20  21
ATOM     21  O   UNL     1      35.380 -18.875 -22.282  0.00  0.00    -0.466 OA
BRANCH  21  23
ATOM     22 CL   UNL     1      33.586 -22.899 -18.399  0.00  0.00    -0.082 Cl
ATOM     23  C   UNL     1      34.959 -19.820 -21.373  0.00  0.00    +0.139 C 
ATOM     24  C   UNL     1      33.602 -20.049 -21.208  0.00  0.00    +0.038 C 
ATOM     25  C   UNL     1      35.901 -20.525 -20.637  0.00  0.00    +0.038 C 
ATOM     26  C   UNL     1      33.175 -21.005 -20.285  0.00  0.00    +0.015 C 
ATOM     27  C   UNL     1      35.474 -21.480 -19.715  0.00  0.00    +0.015 C 
ATOM     28  C   UNL     1      34.112 -21.721 -19.538  0.00  0.00    +0.058 C 
ENDBRANCH  21  23
ENDBRANCH  20  21
ENDBRANCH   8  20
TORSDOF 5
ENDMDL
MODEL 2
REMARK VINA RESULT:     -10.8      5.755      8.379
REMARK  Name = 3351
REMARK  5 active torsions:
REMARK  status: ('A' for Active; 'I' for Inactive)
REMARK    1  A    between atoms: N_2  and  C_10
REMARK    2  A    between atoms: C_8  and  C_20
REMARK    3  A    between atoms: C_10  and  C_13
REMARK    4  A    between atoms: C_20  and  O_21
REMARK    5  A    between atoms: O_21  and  C_23
REMARK                            x       y       z     vdW  Elec       q    Type
REMARK                         _______ _______ _______ _____ _____    ______ ____
ROOT
ATOM      1  O   UNL     1      32.105 -22.564 -17.929  0.00  0.00    -0.271 OA
ATOM      2  N   UNL     1      35.091 -20.328 -21.246  0.00  0.00    +0.392 N 
ATOM      3  N   UNL     1      33.885 -22.105 -19.351  0.00  0.00    -0.281 N 
ATOM      4  C   UNL     1      33.740 -20.063 -20.730  0.00  0.00    -0.055 C 
ATOM      5  C   UNL     1      35.911 -20.992 -20.222  0.00  0.00    -0.055 C 
ATOM      6  C   UNL     1      33.059 -21.363 -20.303  0.00  0.00    +0.071 C 
ATOM      7  C   UNL     1      35.272 -22.309 -19.778  0.00  0.00    +0.071 C 
ATOM      8  C   UNL     1      33.303 -22.656 -18.209  0.00  0.00    +0.270 C 
ATOM      9  H   UNL     1      35.013 -20.951 -22.051  0.00  0.00    -0.079 HD
ENDROOT
BRANCH   2  10
ATOM     10  C   UNL     1      35.725 -19.086 -21.686  0.00  0.00    -0.050 C 
BRANCH  10  13
ATOM     11  O   UNL     1      34.146 -15.445 -24.623  0.00  0.00    -0.435 OA
ATOM     12  O   UNL     1      33.427 -16.982 -26.335  0.00  0.00    -0.435 OA
ATOM     13  C   UNL     1      35.103 -18.556 -22.950  0.00  0.00    -0.040 C 
ATOM     14  C   UNL     1      34.954 -17.181 -23.109  0.00  0.00    +0.034 C 
ATOM     15  C   UNL     1      34.689 -19.457 -23.938  0.00  0.00    -0.003 C 
ATOM     16  C   UNL     1      34.378 -16.742 -24.284  0.00  0.00    +0.176 C 
ATOM     17  C   UNL     1      33.967 -17.620 -25.261  0.00  0.00    +0.176 C 
ATOM     18  C   UNL     1      34.109 -18.985 -25.118  0.00  0.00    +0.040 C 
ATOM     19  C   UNL     1      33.544 -15.604 -25.924  0.00  0.00    +0.429 C 
ENDBRANCH  10  13
ENDBRANCH   2  10
BRANCH   8  20
ATOM     20  C   UNL     1      34.223 -23.401 -17.276  0.00  0.00    +0.290 C 
BRANCH  20  21
ATOM     21  O   UNL     1      33.648 -23.323 -15.996  0.00  0.00    -0.466 OA
BRANCH  21  23
ATOM     22 CL   UNL     1      37.182 -24.195 -11.388  0.00  0.00    -0.082 Cl
ATOM     23  C   UNL     1      34.477 -23.529 -14.916  0.00  0.00    +0.139 C 
ATOM     24  C   UNL     1      33.994 -24.203 -13.805  0.00  0.00    +0.038 C 
ATOM     25  C   UNL     1      35.780 -23.057 -14.958  0.00  0.00    +0.038 C 
ATOM     26  C   UNL     1      34.833 -24.410 -12.710  0.00  0.00    +0.015 C 
ATOM     27  C   UNL     1      36.620 -23.264 -13.862  0.00  0.00    +0.015 C 
ATOM     28  C   UNL     1      36.147 -23.940 -12.739  0.00  0.00    +0.058 C 
ENDBRANCH  21  23
ENDBRANCH  20  21
ENDBRANCH   8  20
TORSDOF 5
ENDMDL
MODEL 3
REMARK VINA RESULT:     -10.8      1.028      1.622
REMARK  Name = 3351
REMARK  5 active torsions:
REMARK  status: ('A' for Active; 'I' for Inactive)
REMARK    1  A    between atoms: N_2  and  C_10
REMARK    2  A    between atoms: C_8  and  C_20
REMARK    3  A    between atoms: C_10  and  C_13
REMARK    4  A    between atoms: C_20  and  O_21
REMARK    5  A    between atoms: O_21  and  C_23
REMARK                            x       y       z     vdW  Elec       q    Type
REMARK                         _______ _______ _______ _____ _____    ______ ____
ROOT
ATOM      1  O   UNL     1      35.250 -17.836 -23.919  0.00  0.00    -0.271 OA
ATOM      2  N   UNL     1      33.428 -13.386 -22.580  0.00  0.00    +0.392 N 
ATOM      3  N   UNL     1      34.844 -15.871 -22.748  0.00  0.00    -0.281 N 
ATOM      4  C   UNL     1      33.307 -14.233 -23.774  0.00  0.00    -0.055 C 
ATOM      5  C   UNL     1      33.625 -14.212 -21.380  0.00  0.00    -0.055 C 
ATOM      6  C   UNL     1      34.555 -15.096 -23.955  0.00  0.00    +0.071 C 
ATOM      7  C   UNL     1      34.877 -15.082 -21.513  0.00  0.00    +0.071 C 
ATOM      8  C   UNL     1      35.176 -17.220 -22.852  0.00  0.00    +0.270 C 
ATOM      9  H   UNL     1      34.244 -12.783 -22.693  0.00  0.00    -0.079 HD
ENDROOT
BRANCH   2  10
ATOM     10  C   UNL     1      32.248 -12.536 -22.429  0.00  0.00    -0.050 C 
BRANCH  10  13
ATOM     11  O   UNL     1      31.717  -7.743 -21.373  0.00  0.00    -0.435 OA
ATOM     12  O   UNL     1      33.382  -7.084 -22.986  0.00  0.00    -0.435 OA
ATOM     13  C   UNL     1      32.579 -11.078 -22.606  0.00  0.00    -0.040 C 
ATOM     14  C   UNL     1      31.915 -10.132 -21.831  0.00  0.00    +0.034 C 
ATOM     15  C   UNL     1      33.547 -10.707 -23.545  0.00  0.00    -0.003 C 
ATOM     16  C   UNL     1      32.252  -8.808 -22.028  0.00  0.00    +0.176 C 
ATOM     17  C   UNL     1      33.203  -8.433 -22.949  0.00  0.00    +0.176 C 
ATOM     18  C   UNL     1      33.869  -9.359 -23.725  0.00  0.00    +0.040 C 
ATOM     19  C   UNL     1      32.437  -6.653 -21.984  0.00  0.00    +0.429 C 
ENDBRANCH  10  13
ENDBRANCH   2  10
BRANCH   8  20
ATOM     20  C   UNL     1      35.454 -17.948 -21.561  0.00  0.00    +0.290 C 
BRANCH  20  21
ATOM     21  O   UNL     1      35.562 -19.313 -21.883  0.00  0.00    -0.466 OA
BRANCH  21  23
ATOM     22 CL   UNL     1      33.407 -23.169 -18.014  0.00  0.00    -0.082 Cl
ATOM     23  C   UNL     1      35.056 -20.218 -20.977  0.00  0.00    +0.139 C 
ATOM     24  C   UNL     1      33.683 -20.349 -20.839  0.00  0.00    +0.038 C 
ATOM     25  C   UNL     1      35.930 -20.983 -20.218  0.00  0.00    +0.038 C 
ATOM     26  C   UNL     1      33.170 -21.265 -19.919  0.00  0.00    +0.015 C 
ATOM     27  C   UNL     1      35.417 -21.898 -19.298  0.00  0.00    +0.015 C 
ATOM     28  C   UNL     1      34.039 -22.040 -19.149  0.00  0.00    +0.058 C 
ENDBRANCH  21  23
ENDBRANCH  20  21
ENDBRANCH   8  20
TORSDOF 5
ENDMDL
MODEL 4
REMARK VINA RESULT:     -10.7      3.828      6.403
REMARK  Name = 3351
REMARK  5 active torsions:
REMARK  status: ('A' for Active; 'I' for Inactive)
REMARK    1  A    between atoms: N_2  and  C_10
REMARK    2  A    between atoms: C_8  and  C_20
REMARK    3  A    between atoms: C_10  and  C_13
REMARK    4  A    between atoms: C_20  and  O_21
REMARK    5  A    between atoms: O_21  and  C_23
REMARK                            x       y       z     vdW  Elec       q    Type
REMARK                         _______ _______ _______ _____ _____    ______ ____
ROOT
ATOM      1  O   UNL     1      36.866 -21.681 -19.025  0.00  0.00    -0.271 OA
ATOM      2  N   UNL     1      35.190 -18.658 -22.625  0.00  0.00    +0.392 N 
ATOM      3  N   UNL     1      35.465 -20.429 -20.391  0.00  0.00    -0.281 N 
ATOM      4  C   UNL     1      36.522 -19.049 -22.144  0.00  0.00    -0.055 C 
ATOM      5  C   UNL     1      34.227 -19.749 -22.419  0.00  0.00    -0.055 C 
ATOM      6  C   UNL     1      36.477 -19.408 -20.659  0.00  0.00    +0.071 C 
ATOM      7  C   UNL     1      34.139 -20.129 -20.939  0.00  0.00    +0.071 C 
ATOM      8  C   UNL     1      35.771 -21.510 -19.566  0.00  0.00    +0.270 C 
ATOM      9  H   UNL     1      34.878 -17.847 -22.090  0.00  0.00    -0.079 HD
ENDROOT
BRANCH   2  10
ATOM     10  C   UNL     1      35.243 -18.281 -24.037  0.00  0.00    -0.050 C 
BRANCH  10  13
ATOM     11  O   UNL     1      34.338 -13.590 -22.791  0.00  0.00    -0.435 OA
ATOM     12  O   UNL     1      33.086 -13.175 -24.808  0.00  0.00    -0.435 OA
ATOM     13  C   UNL     1      34.649 -16.919 -24.278  0.00  0.00    -0.040 C 
ATOM     14  C   UNL     1      34.834 -15.919 -23.329  0.00  0.00    +0.034 C 
ATOM     15  C   UNL     1      33.923 -16.689 -25.453  0.00  0.00    -0.003 C 
ATOM     16  C   UNL     1      34.270 -14.687 -23.593  0.00  0.00    +0.176 C 
ATOM     17  C   UNL     1      33.555 -14.451 -24.745  0.00  0.00    +0.176 C 
ATOM     18  C   UNL     1      33.363 -15.432 -25.695  0.00  0.00    +0.040 C 
ATOM     19  C   UNL     1      33.587 -12.635 -23.567  0.00  0.00    +0.429 C 
ENDBRANCH  10  13
ENDBRANCH   2  10
BRANCH   8  20
ATOM     20  C   UNL     1      34.674 -22.521 -19.344  0.00  0.00    +0.290 C 
BRANCH  20  21
ATOM     21  O   UNL     1      34.960 -23.165 -18.127  0.00  0.00    -0.466 OA
BRANCH  21  23
ATOM     22 CL   UNL     1      30.626 -23.525 -14.181  0.00  0.00    -0.082 Cl
ATOM     23  C   UNL     1      33.944 -23.248 -17.201  0.00  0.00    +0.139 C 
ATOM     24  C   UNL     1      34.246 -23.559 -15.885  0.00  0.00    +0.038 C 
ATOM     25  C   UNL     1      32.636 -23.019 -17.603  0.00  0.00    +0.038 C 
ATOM     26  C   UNL     1      33.217 -23.646 -14.947  0.00  0.00    +0.015 C 
ATOM     27  C   UNL     1      31.607 -23.105 -16.665  0.00  0.00    +0.015 C 
ATOM     28  C   UNL     1      31.896 -23.418 -15.338  0.00  0.00    +0.058 C 
ENDBRANCH  21  23
ENDBRANCH  20  21
ENDBRANCH   8  20
TORSDOF 5
ENDMDL
MODEL 5
REMARK VINA RESULT:     -10.6      4.177     10.314
REMARK  Name = 3351
REMARK  5 active torsions:
REMARK  status: ('A' for Active; 'I' for Inactive)
REMARK    1  A    between atoms: N_2  and  C_10
REMARK    2  A    between atoms: C_8  and  C_20
REMARK    3  A    between atoms: C_10  and  C_13
REMARK    4  A    between atoms: C_20  and  O_21
REMARK    5  A    between atoms: O_21  and  C_23
REMARK                            x       y       z     vdW  Elec       q    Type
REMARK                         _______ _______ _______ _____ _____    ______ ____
ROOT
ATOM      1  O   UNL     1      33.401 -13.462 -25.616  0.00  0.00    -0.271 OA
ATOM      2  N   UNL     1      35.074 -17.331 -22.944  0.00  0.00    +0.392 N 
ATOM      3  N   UNL     1      33.901 -14.877 -23.843  0.00  0.00    -0.281 N 
ATOM      4  C   UNL     1      34.973 -17.036 -24.380  0.00  0.00    -0.055 C 
ATOM      5  C   UNL     1      35.261 -16.091 -22.176  0.00  0.00    -0.055 C 
ATOM      6  C   UNL     1      33.805 -16.089 -24.657  0.00  0.00    +0.071 C 
ATOM      7  C   UNL     1      34.103 -15.120 -22.412  0.00  0.00    +0.071 C 
ATOM      8  C   UNL     1      33.681 -13.630 -24.426  0.00  0.00    +0.270 C 
ATOM      9  H   UNL     1      34.203 -17.769 -22.642  0.00  0.00    -0.079 HD
ENDROOT
BRANCH   2  10
ATOM     10  C   UNL     1      36.170 -18.264 -22.687  0.00  0.00    -0.050 C 
BRANCH  10  13
ATOM     11  O   UNL     1      32.906 -21.082 -20.282  0.00  0.00    -0.435 OA
ATOM     12  O   UNL     1      34.620 -22.140 -18.958  0.00  0.00    -0.435 OA
ATOM     13  C   UNL     1      35.790 -19.311 -21.674  0.00  0.00    -0.040 C 
ATOM     14  C   UNL     1      34.450 -19.653 -21.520  0.00  0.00    +0.034 C 
ATOM     15  C   UNL     1      36.793 -19.919 -20.911  0.00  0.00    -0.003 C 
ATOM     16  C   UNL     1      34.150 -20.617 -20.579  0.00  0.00    +0.176 C 
ATOM     17  C   UNL     1      35.129 -21.221 -19.824  0.00  0.00    +0.176 C 
ATOM     18  C   UNL     1      36.461 -20.893 -19.965  0.00  0.00    +0.040 C 
ATOM     19  C   UNL     1      33.211 -22.047 -19.255  0.00  0.00    +0.429 C 
ENDBRANCH  10  13
ENDBRANCH   2  10
BRANCH   8  20
ATOM     20  C   UNL     1      33.803 -12.431 -23.521  0.00  0.00    +0.290 C 
BRANCH  20  21
ATOM     21  O   UNL     1      33.986 -11.314 -24.355  0.00  0.00    -0.466 OA
BRANCH  21  23
ATOM     22 CL   UNL     1      32.700  -6.042 -22.111  0.00  0.00    -0.082 Cl
ATOM     23  C   UNL     1      33.684 -10.077 -23.831  0.00  0.00    +0.139 C 
ATOM     24  C   UNL     1      34.624  -9.060 -23.899  0.00  0.00    +0.038 C 
ATOM     25  C   UNL     1      32.446  -9.870 -23.241  0.00  0.00    +0.038 C 
ATOM     26  C   UNL     1      34.319  -7.807 -23.366  0.00  0.00    +0.015 C 
ATOM     27  C   UNL     1      32.141  -8.618 -22.708  0.00  0.00    +0.015 C 
ATOM     28  C   UNL     1      33.076  -7.587 -22.770  0.00  0.00    +0.058 C 
ENDBRANCH  21  23
ENDBRANCH  20  21
ENDBRANCH   8  20
TORSDOF 5
ENDMDL
MODEL 6
REMARK VINA RESULT:     -10.3      8.928     11.953
REMARK  Name = 3351
REMARK  5 active torsions:
REMARK  status: ('A' for Active; 'I' for Inactive)
REMARK    1  A    between atoms: N_2  and  C_10
REMARK    2  A    between atoms: C_8  and  C_20
REMARK    3  A    between atoms: C_10  and  C_13
REMARK    4  A    between atoms: C_20  and  O_21
REMARK    5  A    between atoms: O_21  and  C_23
REMARK                            x       y       z     vdW  Elec       q    Type
REMARK                         _______ _______ _______ _____ _____    ______ ____
ROOT
ATOM      1  O   UNL     1      37.778 -23.093 -14.612  0.00  0.00    -0.271 OA
ATOM      2  N   UNL     1      32.971 -24.412 -14.352  0.00  0.00    +0.392 N 
ATOM      3  N   UNL     1      35.603 -23.662 -15.198  0.00  0.00    -0.281 N 
ATOM      4  C   UNL     1      34.061 -24.288 -13.374  0.00  0.00    -0.055 C 
ATOM      5  C   UNL     1      33.153 -23.452 -15.451  0.00  0.00    -0.055 C 
ATOM      6  C   UNL     1      35.415 -24.534 -14.039  0.00  0.00    +0.071 C 
ATOM      7  C   UNL     1      34.494 -23.675 -16.155  0.00  0.00    +0.071 C 
ATOM      8  C   UNL     1      36.816 -22.998 -15.379  0.00  0.00    +0.270 C 
ATOM      9  H   UNL     1      32.991 -25.355 -14.741  0.00  0.00    -0.079 HD
ENDROOT
BRANCH   2  10
ATOM     10  C   UNL     1      31.675 -24.210 -13.705  0.00  0.00    -0.050 C 
BRANCH  10  13
ATOM     11  O   UNL     1      28.180 -22.028 -16.426  0.00  0.00    -0.435 OA
ATOM     12  O   UNL     1      27.458 -24.118 -17.384  0.00  0.00    -0.435 OA
ATOM     13  C   UNL     1      30.544 -24.223 -14.698  0.00  0.00    -0.040 C 
ATOM     14  C   UNL     1      29.932 -23.023 -15.048  0.00  0.00    +0.034 C 
ATOM     15  C   UNL     1      30.132 -25.443 -15.248  0.00  0.00    -0.003 C 
ATOM     16  C   UNL     1      28.900 -23.085 -15.962  0.00  0.00    +0.176 C 
ATOM     17  C   UNL     1      28.487 -24.279 -16.508  0.00  0.00    +0.176 C 
ATOM     18  C   UNL     1      29.083 -25.477 -16.171  0.00  0.00    +0.040 C 
ATOM     19  C   UNL     1      27.269 -22.689 -17.327  0.00  0.00    +0.429 C 
ENDBRANCH  10  13
ENDBRANCH   2  10
BRANCH   8  20
ATOM     20  C   UNL     1      36.926 -22.114 -16.595  0.00  0.00    +0.290 C 
BRANCH  20  21
ATOM     21  O   UNL     1      36.230 -22.764 -17.629  0.00  0.00    -0.466 OA
BRANCH  21  23
ATOM     22 CL   UNL     1      34.615 -19.511 -22.244  0.00  0.00    -0.082 Cl
ATOM     23  C   UNL     1      35.852 -22.002 -18.713  0.00  0.00    +0.139 C 
ATOM     24  C   UNL     1      36.812 -21.285 -19.410  0.00  0.00    +0.038 C 
ATOM     25  C   UNL     1      34.516 -21.965 -19.087  0.00  0.00    +0.038 C 
ATOM     26  C   UNL     1      36.429 -20.512 -20.506  0.00  0.00    +0.015 C 
ATOM     27  C   UNL     1      34.133 -21.192 -20.183  0.00  0.00    +0.015 C 
ATOM     28  C   UNL     1      35.088 -20.466 -20.892  0.00  0.00    +0.058 C 
ENDBRANCH  21  23
ENDBRANCH  20  21
ENDBRANCH   8  20
TORSDOF 5
ENDMDL
MODEL 7
REMARK VINA RESULT:     -10.3      3.315      5.391
REMARK  Name = 3351
REMARK  5 active torsions:
REMARK  status: ('A' for Active; 'I' for Inactive)
REMARK    1  A    between atoms: N_2  and  C_10
REMARK    2  A    between atoms: C_8  and  C_20
REMARK    3  A    between atoms: C_10  and  C_13
REMARK    4  A    between atoms: C_20  and  O_21
REMARK    5  A    between atoms: O_21  and  C_23
REMARK                            x       y       z     vdW  Elec       q    Type
REMARK                         _______ _______ _______ _____ _____    ______ ____
ROOT
ATOM      1  O   UNL     1      31.945 -13.199 -21.582  0.00  0.00    -0.271 OA
ATOM      2  N   UNL     1      33.218  -8.622 -23.114  0.00  0.00    +0.392 N 
ATOM      3  N   UNL     1      32.609 -11.414 -22.913  0.00  0.00    -0.281 N 
ATOM      4  C   UNL     1      32.684  -9.181 -21.864  0.00  0.00    -0.055 C 
ATOM      5  C   UNL     1      34.049  -9.617 -23.808  0.00  0.00    -0.055 C 
ATOM      6  C   UNL     1      31.850 -10.431 -22.141  0.00  0.00    +0.071 C 
ATOM      7  C   UNL     1      33.245 -10.881 -24.120  0.00  0.00    +0.071 C 
ATOM      8  C   UNL     1      32.582 -12.758 -22.542  0.00  0.00    +0.270 C 
ATOM      9  H   UNL     1      32.433  -8.379 -23.720  0.00  0.00    -0.079 HD
ENDROOT
BRANCH   2  10
ATOM     10  C   UNL     1      33.986  -7.407 -22.848  0.00  0.00    -0.050 C 
BRANCH  10  13
ATOM     11  O   UNL     1      30.811  -3.694 -23.561  0.00  0.00    -0.435 OA
ATOM     12  O   UNL     1      31.898  -3.003 -25.598  0.00  0.00    -0.435 OA
ATOM     13  C   UNL     1      33.452  -6.226 -23.614  0.00  0.00    -0.040 C 
ATOM     14  C   UNL     1      32.336  -5.551 -23.130  0.00  0.00    +0.034 C 
ATOM     15  C   UNL     1      34.091  -5.834 -24.796  0.00  0.00    -0.003 C 
ATOM     16  C   UNL     1      31.882  -4.475 -23.866  0.00  0.00    +0.176 C 
ATOM     17  C   UNL     1      32.503  -4.081 -25.029  0.00  0.00    +0.176 C 
ATOM     18  C   UNL     1      33.610  -4.740 -25.522  0.00  0.00    +0.040 C 
ATOM     19  C   UNL     1      30.827  -2.763 -24.661  0.00  0.00    +0.429 C 
ENDBRANCH  10  13
ENDBRANCH   2  10
BRANCH   8  20
ATOM     20  C   UNL     1      33.395 -13.707 -23.385  0.00  0.00    +0.290 C 
BRANCH  20  21
ATOM     21  O   UNL     1      34.570 -13.982 -22.663  0.00  0.00    -0.466 OA
BRANCH  21  23
ATOM     22 CL   UNL     1      35.717 -19.608 -21.431  0.00  0.00    -0.082 Cl
ATOM     23  C   UNL     1      34.841 -15.301 -22.375  0.00  0.00    +0.139 C 
ATOM     24  C   UNL     1      35.019 -16.203 -23.412  0.00  0.00    +0.038 C 
ATOM     25  C   UNL     1      34.929 -15.705 -21.050  0.00  0.00    +0.038 C 
ATOM     26  C   UNL     1      35.291 -17.540 -23.120  0.00  0.00    +0.015 C 
ATOM     27  C   UNL     1      35.201 -17.042 -20.758  0.00  0.00    +0.015 C 
ATOM     28  C   UNL     1      35.382 -17.959 -21.792  0.00  0.00    +0.058 C 
ENDBRANCH  21  23
ENDBRANCH  20  21
ENDBRANCH   8  20
TORSDOF 5
ENDMDL
MODEL 8
REMARK VINA RESULT:     -10.2      3.794     10.049
REMARK  Name = 3351
REMARK  5 active torsions:
REMARK  status: ('A' for Active; 'I' for Inactive)
REMARK    1  A    between atoms: N_2  and  C_10
REMARK    2  A    between atoms: C_8  and  C_20
REMARK    3  A    between atoms: C_10  and  C_13
REMARK    4  A    between atoms: C_20  and  O_21
REMARK    5  A    between atoms: O_21  and  C_23
REMARK                            x       y       z     vdW  Elec       q    Type
REMARK                         _______ _______ _______ _____ _____    ______ ____
ROOT
ATOM      1  O   UNL     1      32.625 -13.731 -20.127  0.00  0.00    -0.271 OA
ATOM      2  N   UNL     1      35.648 -16.915 -22.501  0.00  0.00    +0.392 N 
ATOM      3  N   UNL     1      34.071 -14.667 -21.686  0.00  0.00    -0.281 N 
ATOM      4  C   UNL     1      34.969 -16.914 -21.197  0.00  0.00    -0.055 C 
ATOM      5  C   UNL     1      34.866 -16.158 -23.489  0.00  0.00    -0.055 C 
ATOM      6  C   UNL     1      34.767 -15.485 -20.693  0.00  0.00    +0.071 C 
ATOM      7  C   UNL     1      34.654 -14.714 -23.029  0.00  0.00    +0.071 C 
ATOM      8  C   UNL     1      33.025 -13.835 -21.289  0.00  0.00    +0.270 C 
ATOM      9  H   UNL     1      36.556 -16.462 -22.393  0.00  0.00    -0.079 HD
ENDROOT
BRANCH   2  10
ATOM     10  C   UNL     1      35.871 -18.284 -22.963  0.00  0.00    -0.050 C 
BRANCH  10  13
ATOM     11  O   UNL     1      32.953 -21.238 -20.291  0.00  0.00    -0.435 OA
ATOM     12  O   UNL     1      34.790 -22.030 -18.948  0.00  0.00    -0.435 OA
ATOM     13  C   UNL     1      35.617 -19.293 -21.874  0.00  0.00    -0.040 C 
ATOM     14  C   UNL     1      34.321 -19.751 -21.661  0.00  0.00    +0.034 C 
ATOM     15  C   UNL     1      36.691 -19.746 -21.100  0.00  0.00    -0.003 C 
ATOM     16  C   UNL     1      34.138 -20.675 -20.651  0.00  0.00    +0.176 C 
ATOM     17  C   UNL     1      35.187 -21.127 -19.885  0.00  0.00    +0.176 C 
ATOM     18  C   UNL     1      36.477 -20.681 -20.084  0.00  0.00    +0.040 C 
ATOM     19  C   UNL     1      33.373 -22.096 -19.211  0.00  0.00    +0.429 C 
ENDBRANCH  10  13
ENDBRANCH   2  10
BRANCH   8  20
ATOM     20  C   UNL     1      32.356 -13.029 -22.374  0.00  0.00    +0.290 C 
BRANCH  20  21
ATOM     21  O   UNL     1      31.338 -12.284 -21.752  0.00  0.00    -0.466 OA
BRANCH  21  23
ATOM     22 CL   UNL     1      32.545  -6.717 -20.326  0.00  0.00    -0.082 Cl
ATOM     23  C   UNL     1      31.623 -10.980 -21.417  0.00  0.00    +0.139 C 
ATOM     24  C   UNL     1      31.535 -10.582 -20.092  0.00  0.00    +0.038 C 
ATOM     25  C   UNL     1      31.990 -10.085 -22.412  0.00  0.00    +0.038 C 
ATOM     26  C   UNL     1      31.821  -9.259 -19.753  0.00  0.00    +0.015 C 
ATOM     27  C   UNL     1      32.276  -8.763 -22.073  0.00  0.00    +0.015 C 
ATOM     28  C   UNL     1      32.192  -8.349 -20.744  0.00  0.00    +0.058 C 
ENDBRANCH  21  23
ENDBRANCH  20  21
ENDBRANCH   8  20
TORSDOF 5
ENDMDL
MODEL 9
REMARK VINA RESULT:     -10.2      8.274     13.576
REMARK  Name = 3351
REMARK  5 active torsions:
REMARK  status: ('A' for Active; 'I' for Inactive)
REMARK    1  A    between atoms: N_2  and  C_10
REMARK    2  A    between atoms: C_8  and  C_20
REMARK    3  A    between atoms: C_10  and  C_13
REMARK    4  A    between atoms: C_20  and  O_21
REMARK    5  A    between atoms: O_21  and  C_23
REMARK                            x       y       z     vdW  Elec       q    Type
REMARK                         _______ _______ _______ _____ _____    ______ ____
ROOT
ATOM      1  O   UNL     1      31.189 -23.506 -16.824  0.00  0.00    -0.271 OA
ATOM      2  N   UNL     1      34.637 -23.959 -13.245  0.00  0.00    +0.392 N 
ATOM      3  N   UNL     1      33.161 -23.310 -15.612  0.00  0.00    -0.281 N 
ATOM      4  C   UNL     1      33.225 -24.346 -13.372  0.00  0.00    -0.055 C 
ATOM      5  C   UNL     1      35.295 -23.974 -14.559  0.00  0.00    -0.055 C 
ATOM      6  C   UNL     1      32.487 -23.398 -14.316  0.00  0.00    +0.071 C 
ATOM      7  C   UNL     1      34.595 -23.023 -15.533  0.00  0.00    +0.071 C 
ATOM      8  C   UNL     1      32.415 -23.375 -16.788  0.00  0.00    +0.270 C 
ATOM      9  H   UNL     1      34.680 -23.009 -12.873  0.00  0.00    -0.079 HD
ENDROOT
BRANCH   2  10
ATOM     10  C   UNL     1      35.332 -24.847 -12.313  0.00  0.00    -0.050 C 
BRANCH  10  13
ATOM     11  O   UNL     1      39.111 -26.981 -14.668  0.00  0.00    -0.435 OA
ATOM     12  O   UNL     1      40.723 -25.490 -13.674  0.00  0.00    -0.435 OA
ATOM     13  C   UNL     1      36.791 -24.990 -12.657  0.00  0.00    -0.040 C 
ATOM     14  C   UNL     1      37.185 -25.985 -13.546  0.00  0.00    +0.034 C 
ATOM     15  C   UNL     1      37.718 -24.120 -12.073  0.00  0.00    -0.003 C 
ATOM     16  C   UNL     1      38.533 -26.078 -13.830  0.00  0.00    +0.176 C 
ATOM     17  C   UNL     1      39.452 -25.227 -13.262  0.00  0.00    +0.176 C 
ATOM     18  C   UNL     1      39.077 -24.237 -12.378  0.00  0.00    +0.040 C 
ATOM     19  C   UNL     1      40.498 -26.602 -14.565  0.00  0.00    +0.429 C 
ENDBRANCH  10  13
ENDBRANCH   2  10
BRANCH   8  20
ATOM     20  C   UNL     1      33.185 -23.282 -18.081  0.00  0.00    +0.290 C 
BRANCH  20  21
ATOM     21  O   UNL     1      32.580 -22.262 -18.837  0.00  0.00    -0.466 OA
BRANCH  21  23
ATOM     22 CL   UNL     1      36.066 -19.022 -22.277  0.00  0.00    -0.082 Cl
ATOM     23  C   UNL     1      33.398 -21.504 -19.644  0.00  0.00    +0.139 C 
ATOM     24  C   UNL     1      34.774 -21.648 -19.549  0.00  0.00    +0.038 C 
ATOM     25  C   UNL     1      32.831 -20.608 -20.539  0.00  0.00    +0.038 C 
ATOM     26  C   UNL     1      35.602 -20.878 -20.366  0.00  0.00    +0.015 C 
ATOM     27  C   UNL     1      33.659 -19.837 -21.355  0.00  0.00    +0.015 C 
ATOM     28  C   UNL     1      35.044 -19.972 -21.270  0.00  0.00    +0.058 C 
ENDBRANCH  21  23
ENDBRANCH  20  21
ENDBRANCH   8  20
TORSDOF 5
ENDMDL
