MODEL 1
REMARK VINA RESULT:     -11.7      0.000      0.000
REMARK  Name = 6323454
REMARK  1 active torsions:
REMARK  status: ('A' for Active; 'I' for Inactive)
REMARK    1  A    between atoms: C_18  and  O_22
REMARK                            x       y       z     vdW  Elec       q    Type
REMARK                         _______ _______ _______ _____ _____    ______ ____
ROOT
ATOM      1  O   UNL     1      34.366 -24.734 -13.309  0.00  0.00    -0.350 OA
ATOM      2  O   UNL     1      37.485 -23.107 -13.573  0.00  0.00    -0.445 OA
ATOM      3  O   UNL     1      37.847 -22.706 -16.310  0.00  0.00    -0.287 OA
ATOM      4  O   UNL     1      38.409 -23.015 -11.462  0.00  0.00    -0.250 OA
ATOM      5  O   UNL     1      32.660 -23.666 -17.076  0.00  0.00    -0.287 OA
ATOM      6  C   UNL     1      35.390 -23.810 -13.006  0.00  0.00    +0.171 C 
ATOM      7  C   UNL     1      36.417 -23.880 -14.108  0.00  0.00    +0.221 C 
ATOM      8  C   UNL     1      35.787 -23.423 -15.388  0.00  0.00    +0.060 C 
ATOM      9  C   UNL     1      33.609 -24.308 -14.474  0.00  0.00    +0.141 C 
ATOM     10  C   UNL     1      34.470 -23.651 -15.561  0.00  0.00    +0.046 C 
ATOM     11  C   UNL     1      36.262 -24.110 -11.813  0.00  0.00    +0.143 C 
ATOM     12  C   UNL     1      37.509 -23.355 -12.214  0.00  0.00    +0.320 C 
ATOM     13  C   UNL     1      36.636 -22.821 -16.444  0.00  0.00    +0.195 C 
ATOM     14  C   UNL     1      33.816 -23.324 -16.860  0.00  0.00    +0.197 C 
ATOM     15  C   UNL     1      32.476 -23.402 -13.980  0.00  0.00    +0.037 C 
ATOM     16  C   UNL     1      35.967 -22.363 -17.675  0.00  0.00    +0.045 C 
ATOM     17  C   UNL     1      34.609 -22.606 -17.874  0.00  0.00    +0.075 C 
ATOM     18  C   UNL     1      33.990 -22.174 -19.054  0.00  0.00    +0.137 C 
ATOM     19  C   UNL     1      36.710 -21.691 -18.654  0.00  0.00    +0.003 C 
ATOM     20  C   UNL     1      34.731 -21.501 -20.027  0.00  0.00    +0.037 C 
ATOM     21  C   UNL     1      36.089 -21.261 -19.827  0.00  0.00    +0.003 C 
ENDROOT
BRANCH  18  22
ATOM     22  O   UNL     1      32.666 -22.371 -19.309  0.00  0.00    -0.505 OA
ATOM     23  H   UNL     1      32.183 -21.735 -19.800  0.00  0.00    +0.292 HD
ENDBRANCH  18  22
TORSDOF 1
ENDMDL
MODEL 2
REMARK VINA RESULT:     -10.3      1.905      6.121
REMARK  Name = 6323454
REMARK  1 active torsions:
REMARK  status: ('A' for Active; 'I' for Inactive)
REMARK    1  A    between atoms: C_18  and  O_22
REMARK                            x       y       z     vdW  Elec       q    Type
REMARK                         _______ _______ _______ _____ _____    ______ ____
ROOT
ATOM      1  O   UNL     1      37.081 -22.576 -17.981  0.00  0.00    -0.350 OA
ATOM      2  O   UNL     1      34.151 -21.451 -19.590  0.00  0.00    -0.445 OA
ATOM      3  O   UNL     1      32.079 -22.854 -18.355  0.00  0.00    -0.287 OA
ATOM      4  O   UNL     1      34.787 -20.047 -21.306  0.00  0.00    -0.250 OA
ATOM      5  O   UNL     1      35.391 -24.122 -14.375  0.00  0.00    -0.287 OA
ATOM      6  C   UNL     1      36.167 -21.659 -18.543  0.00  0.00    +0.171 C 
ATOM      7  C   UNL     1      34.881 -22.397 -18.818  0.00  0.00    +0.221 C 
ATOM      8  C   UNL     1      34.294 -22.849 -17.517  0.00  0.00    +0.060 C 
ATOM      9  C   UNL     1      36.659 -22.981 -16.650  0.00  0.00    +0.141 C 
ATOM     10  C   UNL     1      35.139 -23.145 -16.510  0.00  0.00    +0.046 C 
ATOM     11  C   UNL     1      36.472 -21.136 -19.924  0.00  0.00    +0.143 C 
ATOM     12  C   UNL     1      35.072 -20.791 -20.380  0.00  0.00    +0.320 C 
ATOM     13  C   UNL     1      32.827 -23.037 -17.404  0.00  0.00    +0.195 C 
ATOM     14  C   UNL     1      34.619 -23.711 -15.233  0.00  0.00    +0.197 C 
ATOM     15  C   UNL     1      37.246 -21.975 -15.655  0.00  0.00    +0.037 C 
ATOM     16  C   UNL     1      32.293 -23.458 -16.096  0.00  0.00    +0.045 C 
ATOM     17  C   UNL     1      33.157 -23.783 -15.051  0.00  0.00    +0.075 C 
ATOM     18  C   UNL     1      32.635 -24.192 -13.818  0.00  0.00    +0.137 C 
ATOM     19  C   UNL     1      30.908 -23.544 -15.912  0.00  0.00    +0.003 C 
ATOM     20  C   UNL     1      31.254 -24.273 -13.635  0.00  0.00    +0.037 C 
ATOM     21  C   UNL     1      30.392 -23.950 -14.681  0.00  0.00    +0.003 C 
ENDROOT
BRANCH  18  22
ATOM     22  O   UNL     1      33.422 -24.516 -12.753  0.00  0.00    -0.505 OA
ATOM     23  H   UNL     1      33.324 -25.349 -12.335  0.00  0.00    +0.292 HD
ENDBRANCH  18  22
TORSDOF 1
ENDMDL
MODEL 3
REMARK VINA RESULT:     -10.3      1.997      5.731
REMARK  Name = 6323454
REMARK  1 active torsions:
REMARK  status: ('A' for Active; 'I' for Inactive)
REMARK    1  A    between atoms: C_18  and  O_22
REMARK                            x       y       z     vdW  Elec       q    Type
REMARK                         _______ _______ _______ _____ _____    ______ ____
ROOT
ATOM      1  O   UNL     1      32.067 -23.178 -14.946  0.00  0.00    -0.350 OA
ATOM      2  O   UNL     1      34.328 -23.103 -17.652  0.00  0.00    -0.445 OA
ATOM      3  O   UNL     1      36.849 -23.335 -16.478  0.00  0.00    -0.287 OA
ATOM      4  O   UNL     1      33.115 -22.694 -19.570  0.00  0.00    -0.250 OA
ATOM      5  O   UNL     1      34.532 -25.014 -11.980  0.00  0.00    -0.287 OA
ATOM      6  C   UNL     1      32.597 -23.487 -16.218  0.00  0.00    +0.171 C 
ATOM      7  C   UNL     1      34.005 -22.952 -16.275  0.00  0.00    +0.221 C 
ATOM      8  C   UNL     1      34.842 -23.683 -15.270  0.00  0.00    +0.060 C 
ATOM      9  C   UNL     1      32.736 -23.941 -13.906  0.00  0.00    +0.141 C 
ATOM     10  C   UNL     1      34.241 -24.123 -14.147  0.00  0.00    +0.046 C 
ATOM     11  C   UNL     1      31.998 -22.779 -17.407  0.00  0.00    +0.143 C 
ATOM     12  C   UNL     1      33.170 -22.846 -18.360  0.00  0.00    +0.320 C 
ATOM     13  C   UNL     1      36.300 -23.822 -15.498  0.00  0.00    +0.195 C 
ATOM     14  C   UNL     1      35.045 -24.752 -13.061  0.00  0.00    +0.197 C 
ATOM     15  C   UNL     1      31.989 -25.270 -13.757  0.00  0.00    +0.037 C 
ATOM     16  C   UNL     1      37.077 -24.572 -14.494  0.00  0.00    +0.045 C 
ATOM     17  C   UNL     1      36.472 -25.018 -13.321  0.00  0.00    +0.075 C 
ATOM     18  C   UNL     1      37.226 -25.720 -12.371  0.00  0.00    +0.137 C 
ATOM     19  C   UNL     1      38.436 -24.821 -14.720  0.00  0.00    +0.003 C 
ATOM     20  C   UNL     1      38.579 -25.971 -12.601  0.00  0.00    +0.037 C 
ATOM     21  C   UNL     1      39.183 -25.522 -13.773  0.00  0.00    +0.003 C 
ENDROOT
BRANCH  18  22
ATOM     22  O   UNL     1      36.695 -26.191 -11.207  0.00  0.00    -0.505 OA
ATOM     23  H   UNL     1      37.154 -26.842 -10.713  0.00  0.00    +0.292 HD
ENDBRANCH  18  22
TORSDOF 1
ENDMDL
MODEL 4
REMARK VINA RESULT:     -10.2      1.994      4.478
REMARK  Name = 6323454
REMARK  1 active torsions:
REMARK  status: ('A' for Active; 'I' for Inactive)
REMARK    1  A    between atoms: C_18  and  O_22
REMARK                            x       y       z     vdW  Elec       q    Type
REMARK                         _______ _______ _______ _____ _____    ______ ____
ROOT
ATOM      1  O   UNL     1      33.473 -24.482 -13.502  0.00  0.00    -0.350 OA
ATOM      2  O   UNL     1      30.629 -24.417 -15.587  0.00  0.00    -0.445 OA
ATOM      3  O   UNL     1      31.253 -22.569 -17.583  0.00  0.00    -0.287 OA
ATOM      4  O   UNL     1      29.016 -25.750 -14.618  0.00  0.00    -0.250 OA
ATOM      5  O   UNL     1      36.388 -22.886 -16.186  0.00  0.00    -0.287 OA
ATOM      6  C   UNL     1      32.397 -24.987 -14.263  0.00  0.00    +0.171 C 
ATOM      7  C   UNL     1      31.826 -23.849 -15.071  0.00  0.00    +0.221 C 
ATOM      8  C   UNL     1      32.862 -23.380 -16.046  0.00  0.00    +0.060 C 
ATOM      9  C   UNL     1      34.588 -24.113 -14.358  0.00  0.00    +0.141 C 
ATOM     10  C   UNL     1      34.158 -23.486 -15.692  0.00  0.00    +0.046 C 
ATOM     11  C   UNL     1      31.163 -25.422 -13.514  0.00  0.00    +0.143 C 
ATOM     12  C   UNL     1      30.128 -25.246 -14.602  0.00  0.00    +0.320 C 
ATOM     13  C   UNL     1      32.435 -22.744 -17.315  0.00  0.00    +0.195 C 
ATOM     14  C   UNL     1      35.225 -22.929 -16.571  0.00  0.00    +0.197 C 
ATOM     15  C   UNL     1      35.461 -25.359 -14.539  0.00  0.00    +0.037 C 
ATOM     16  C   UNL     1      33.489 -22.322 -18.255  0.00  0.00    +0.045 C 
ATOM     17  C   UNL     1      34.833 -22.411 -17.895  0.00  0.00    +0.075 C 
ATOM     18  C   UNL     1      35.824 -21.996 -18.794  0.00  0.00    +0.137 C 
ATOM     19  C   UNL     1      33.133 -21.816 -19.510  0.00  0.00    +0.003 C 
ATOM     20  C   UNL     1      35.466 -21.496 -20.046  0.00  0.00    +0.037 C 
ATOM     21  C   UNL     1      34.123 -21.406 -20.404  0.00  0.00    +0.003 C 
ENDROOT
BRANCH  18  22
ATOM     22  O   UNL     1      37.155 -22.064 -18.509  0.00  0.00    -0.505 OA
ATOM     23  H   UNL     1      37.441 -22.398 -17.681  0.00  0.00    +0.292 HD
ENDBRANCH  18  22
TORSDOF 1
ENDMDL
MODEL 5
REMARK VINA RESULT:      -9.8      2.131      5.356
REMARK  Name = 6323454
REMARK  1 active torsions:
REMARK  status: ('A' for Active; 'I' for Inactive)
REMARK    1  A    between atoms: C_18  and  O_22
REMARK                            x       y       z     vdW  Elec       q    Type
REMARK                         _______ _______ _______ _____ _____    ______ ____
ROOT
ATOM      1  O   UNL     1      36.580 -24.015 -15.520  0.00  0.00    -0.350 OA
ATOM      2  O   UNL     1      35.087 -22.114 -18.089  0.00  0.00    -0.445 OA
ATOM      3  O   UNL     1      32.409 -22.900 -18.089  0.00  0.00    -0.287 OA
ATOM      4  O   UNL     1      36.757 -20.927 -19.146  0.00  0.00    -0.250 OA
ATOM      5  O   UNL     1      33.106 -25.061 -13.266  0.00  0.00    -0.287 OA
ATOM      6  C   UNL     1      36.278 -22.877 -16.299  0.00  0.00    +0.171 C 
ATOM      7  C   UNL     1      35.127 -23.229 -17.207  0.00  0.00    +0.221 C 
ATOM      8  C   UNL     1      33.918 -23.512 -16.370  0.00  0.00    +0.060 C 
ATOM      9  C   UNL     1      35.511 -24.297 -14.577  0.00  0.00    +0.141 C 
ATOM     10  C   UNL     1      34.107 -24.037 -15.143  0.00  0.00    +0.046 C 
ATOM     11  C   UNL     1      37.300 -22.448 -17.323  0.00  0.00    +0.143 C 
ATOM     12  C   UNL     1      36.396 -21.727 -18.297  0.00  0.00    +0.320 C 
ATOM     13  C   UNL     1      32.568 -23.289 -16.939  0.00  0.00    +0.195 C 
ATOM     14  C   UNL     1      32.939 -24.447 -14.313  0.00  0.00    +0.197 C 
ATOM     15  C   UNL     1      35.798 -23.499 -13.301  0.00  0.00    +0.037 C 
ATOM     16  C   UNL     1      31.409 -23.556 -16.068  0.00  0.00    +0.045 C 
ATOM     17  C   UNL     1      31.589 -24.114 -14.803  0.00  0.00    +0.075 C 
ATOM     18  C   UNL     1      30.477 -24.372 -13.992  0.00  0.00    +0.137 C 
ATOM     19  C   UNL     1      30.120 -23.258 -16.525  0.00  0.00    +0.003 C 
ATOM     20  C   UNL     1      29.193 -24.071 -14.448  0.00  0.00    +0.037 C 
ATOM     21  C   UNL     1      29.015 -23.516 -15.712  0.00  0.00    +0.003 C 
ENDROOT
BRANCH  18  22
ATOM     22  O   UNL     1      30.583 -24.909 -12.743  0.00  0.00    -0.505 OA
ATOM     23  H   UNL     1      30.223 -25.756 -12.565  0.00  0.00    +0.292 HD
ENDBRANCH  18  22
TORSDOF 1
ENDMDL
MODEL 6
REMARK VINA RESULT:      -9.5      2.424      5.472
REMARK  Name = 6323454
REMARK  1 active torsions:
REMARK  status: ('A' for Active; 'I' for Inactive)
REMARK    1  A    between atoms: C_18  and  O_22
REMARK                            x       y       z     vdW  Elec       q    Type
REMARK                         _______ _______ _______ _____ _____    ______ ____
ROOT
ATOM      1  O   UNL     1      30.641 -24.029 -13.977  0.00  0.00    -0.350 OA
ATOM      2  O   UNL     1      29.740 -23.607 -17.361  0.00  0.00    -0.445 OA
ATOM      3  O   UNL     1      31.872 -22.208 -18.495  0.00  0.00    -0.287 OA
ATOM      4  O   UNL     1      27.598 -24.420 -17.625  0.00  0.00    -0.250 OA
ATOM      5  O   UNL     1      34.865 -23.464 -14.266  0.00  0.00    -0.287 OA
ATOM      6  C   UNL     1      30.151 -24.378 -15.254  0.00  0.00    +0.171 C 
ATOM      7  C   UNL     1      30.485 -23.254 -16.202  0.00  0.00    +0.221 C 
ATOM      8  C   UNL     1      31.974 -23.151 -16.324  0.00  0.00    +0.060 C 
ATOM      9  C   UNL     1      32.094 -24.025 -13.961  0.00  0.00    +0.141 C 
ATOM     10  C   UNL     1      32.722 -23.493 -15.257  0.00  0.00    +0.046 C 
ATOM     11  C   UNL     1      28.654 -24.434 -15.429  0.00  0.00    +0.143 C 
ATOM     12  C   UNL     1      28.562 -24.175 -16.916  0.00  0.00    +0.320 C 
ATOM     13  C   UNL     1      32.567 -22.602 -17.568  0.00  0.00    +0.195 C 
ATOM     14  C   UNL     1      34.200 -23.299 -15.282  0.00  0.00    +0.197 C 
ATOM     15  C   UNL     1      32.555 -25.445 -13.614  0.00  0.00    +0.037 C 
ATOM     16  C   UNL     1      34.038 -22.544 -17.653  0.00  0.00    +0.045 C 
ATOM     17  C   UNL     1      34.823 -22.880 -16.550  0.00  0.00    +0.075 C 
ATOM     18  C   UNL     1      36.219 -22.809 -16.643  0.00  0.00    +0.137 C 
ATOM     19  C   UNL     1      34.644 -22.136 -18.846  0.00  0.00    +0.003 C 
ATOM     20  C   UNL     1      36.821 -22.405 -17.835  0.00  0.00    +0.037 C 
ATOM     21  C   UNL     1      36.035 -22.068 -18.934  0.00  0.00    +0.003 C 
ENDROOT
BRANCH  18  22
ATOM     22  O   UNL     1      37.045 -23.130 -15.607  0.00  0.00    -0.505 OA
ATOM     23  H   UNL     1      36.917 -23.930 -15.136  0.00  0.00    +0.292 HD
ENDBRANCH  18  22
TORSDOF 1
ENDMDL
MODEL 7
REMARK VINA RESULT:      -9.3      2.161      4.806
REMARK  Name = 6323454
REMARK  1 active torsions:
REMARK  status: ('A' for Active; 'I' for Inactive)
REMARK    1  A    between atoms: C_18  and  O_22
REMARK                            x       y       z     vdW  Elec       q    Type
REMARK                         _______ _______ _______ _____ _____    ______ ____
ROOT
ATOM      1  O   UNL     1      35.818 -22.618 -16.721  0.00  0.00    -0.350 OA
ATOM      2  O   UNL     1      35.737 -24.822 -13.968  0.00  0.00    -0.445 OA
ATOM      3  O   UNL     1      33.084 -24.782 -13.103  0.00  0.00    -0.287 OA
ATOM      4  O   UNL     1      37.900 -25.507 -13.553  0.00  0.00    -0.250 OA
ATOM      5  O   UNL     1      31.670 -22.565 -17.740  0.00  0.00    -0.287 OA
ATOM      6  C   UNL     1      36.076 -23.787 -15.972  0.00  0.00    +0.171 C 
ATOM      7  C   UNL     1      35.214 -23.746 -14.737  0.00  0.00    +0.221 C 
ATOM      8  C   UNL     1      33.775 -23.806 -15.148  0.00  0.00    +0.060 C 
ATOM      9  C   UNL     1      34.474 -22.642 -17.274  0.00  0.00    +0.141 C 
ATOM     10  C   UNL     1      33.432 -23.263 -16.333  0.00  0.00    +0.046 C 
ATOM     11  C   UNL     1      37.439 -23.915 -15.339  0.00  0.00    +0.143 C 
ATOM     12  C   UNL     1      37.100 -24.842 -14.193  0.00  0.00    +0.320 C 
ATOM     13  C   UNL     1      32.773 -24.377 -14.216  0.00  0.00    +0.195 C 
ATOM     14  C   UNL     1      32.000 -23.190 -16.740  0.00  0.00    +0.197 C 
ATOM     15  C   UNL     1      34.547 -23.348 -18.632  0.00  0.00    +0.037 C 
ATOM     16  C   UNL     1      31.373 -24.439 -14.675  0.00  0.00    +0.045 C 
ATOM     17  C   UNL     1      31.003 -23.867 -15.891  0.00  0.00    +0.075 C 
ATOM     18  C   UNL     1      29.667 -23.924 -16.309  0.00  0.00    +0.137 C 
ATOM     19  C   UNL     1      30.412 -25.067 -13.874  0.00  0.00    +0.003 C 
ATOM     20  C   UNL     1      28.711 -24.554 -15.511  0.00  0.00    +0.037 C 
ATOM     21  C   UNL     1      29.083 -25.123 -14.296  0.00  0.00    +0.003 C 
ENDROOT
BRANCH  18  22
ATOM     22  O   UNL     1      29.238 -23.393 -17.489  0.00  0.00    -0.505 OA
ATOM     23  H   UNL     1      29.531 -23.758 -18.301  0.00  0.00    +0.292 HD
ENDBRANCH  18  22
TORSDOF 1
ENDMDL
MODEL 8
REMARK VINA RESULT:      -9.1      3.157      4.767
REMARK  Name = 6323454
REMARK  1 active torsions:
REMARK  status: ('A' for Active; 'I' for Inactive)
REMARK    1  A    between atoms: C_18  and  O_22
REMARK                            x       y       z     vdW  Elec       q    Type
REMARK                         _______ _______ _______ _____ _____    ______ ____
ROOT
ATOM      1  O   UNL     1      38.327 -25.537 -11.817  0.00  0.00    -0.350 OA
ATOM      2  O   UNL     1      38.459 -25.845 -15.328  0.00  0.00    -0.445 OA
ATOM      3  O   UNL     1      35.793 -25.771 -16.149  0.00  0.00    -0.287 OA
ATOM      4  O   UNL     1      40.658 -26.209 -15.919  0.00  0.00    -0.250 OA
ATOM      5  O   UNL     1      34.442 -23.817 -11.376  0.00  0.00    -0.287 OA
ATOM      6  C   UNL     1      38.772 -25.299 -13.135  0.00  0.00    +0.171 C 
ATOM      7  C   UNL     1      37.785 -25.938 -14.079  0.00  0.00    +0.221 C 
ATOM      8  C   UNL     1      36.463 -25.247 -13.938  0.00  0.00    +0.060 C 
ATOM      9  C   UNL     1      37.105 -24.801 -11.540  0.00  0.00    +0.141 C 
ATOM     10  C   UNL     1      36.141 -24.737 -12.733  0.00  0.00    +0.046 C 
ATOM     11  C   UNL     1      40.039 -25.989 -13.573  0.00  0.00    +0.143 C 
ATOM     12  C   UNL     1      39.802 -26.032 -15.066  0.00  0.00    +0.320 C 
ATOM     13  C   UNL     1      35.527 -25.221 -15.087  0.00  0.00    +0.195 C 
ATOM     14  C   UNL     1      34.794 -24.143 -12.504  0.00  0.00    +0.197 C 
ATOM     15  C   UNL     1      37.508 -23.417 -11.022  0.00  0.00    +0.037 C 
ATOM     16  C   UNL     1      34.249 -24.508 -14.909  0.00  0.00    +0.045 C 
ATOM     17  C   UNL     1      33.897 -23.989 -13.664  0.00  0.00    +0.075 C 
ATOM     18  C   UNL     1      32.675 -23.323 -13.507  0.00  0.00    +0.137 C 
ATOM     19  C   UNL     1      33.381 -24.364 -15.998  0.00  0.00    +0.003 C 
ATOM     20  C   UNL     1      31.813 -23.178 -14.595  0.00  0.00    +0.037 C 
ATOM     21  C   UNL     1      32.166 -23.698 -15.838  0.00  0.00    +0.003 C 
ENDROOT
BRANCH  18  22
ATOM     22  O   UNL     1      32.273 -22.785 -12.321  0.00  0.00    -0.505 OA
ATOM     23  H   UNL     1      31.957 -21.903 -12.289  0.00  0.00    +0.292 HD
ENDBRANCH  18  22
TORSDOF 1
ENDMDL
MODEL 9
REMARK VINA RESULT:      -9.0      7.238     10.700
REMARK  Name = 6323454
REMARK  1 active torsions:
REMARK  status: ('A' for Active; 'I' for Inactive)
REMARK    1  A    between atoms: C_18  and  O_22
REMARK                            x       y       z     vdW  Elec       q    Type
REMARK                         _______ _______ _______ _____ _____    ______ ____
ROOT
ATOM      1  O   UNL     1      34.893 -19.700 -24.651  0.00  0.00    -0.350 OA
ATOM      2  O   UNL     1      35.333 -18.399 -21.402  0.00  0.00    -0.445 OA
ATOM      3  O   UNL     1      35.451 -15.633 -21.754  0.00  0.00    -0.287 OA
ATOM      4  O   UNL     1      35.589 -20.181 -19.961  0.00  0.00    -0.250 OA
ATOM      5  O   UNL     1      33.391 -16.228 -26.635  0.00  0.00    -0.287 OA
ATOM      6  C   UNL     1      34.682 -19.546 -23.264  0.00  0.00    +0.171 C 
ATOM      7  C   UNL     1      35.416 -18.306 -22.819  0.00  0.00    +0.221 C 
ATOM      8  C   UNL     1      34.800 -17.113 -23.485  0.00  0.00    +0.060 C 
ATOM      9  C   UNL     1      34.221 -18.651 -25.399  0.00  0.00    +0.141 C 
ATOM     10  C   UNL     1      34.262 -17.281 -24.709  0.00  0.00    +0.046 C 
ATOM     11  C   UNL     1      35.313 -20.566 -22.350  0.00  0.00    +0.143 C 
ATOM     12  C   UNL     1      35.430 -19.741 -21.089  0.00  0.00    +0.320 C 
ATOM     13  C   UNL     1      34.876 -15.788 -22.824  0.00  0.00    +0.195 C 
ATOM     14  C   UNL     1      33.741 -16.108 -25.467  0.00  0.00    +0.197 C 
ATOM     15  C   UNL     1      32.795 -19.133 -25.687  0.00  0.00    +0.037 C 
ATOM     16  C   UNL     1      34.233 -14.650 -23.505  0.00  0.00    +0.045 C 
ATOM     17  C   UNL     1      33.687 -14.805 -24.778  0.00  0.00    +0.075 C 
ATOM     18  C   UNL     1      33.089 -13.712 -25.417  0.00  0.00    +0.137 C 
ATOM     19  C   UNL     1      34.186 -13.404 -22.870  0.00  0.00    +0.003 C 
ATOM     20  C   UNL     1      33.039 -12.471 -24.780  0.00  0.00    +0.037 C 
ATOM     21  C   UNL     1      33.587 -12.317 -23.509  0.00  0.00    +0.003 C 
ENDROOT
BRANCH  18  22
ATOM     22  O   UNL     1      32.529 -13.796 -26.658  0.00  0.00    -0.505 OA
ATOM     23  H   UNL     1      32.272 -13.016 -27.109  0.00  0.00    +0.292 HD
ENDBRANCH  18  22
TORSDOF 1
ENDMDL
