MODEL 1
REMARK VINA RESULT:     -11.9      0.000      0.000
REMARK  Name = 23635314
REMARK  9 active torsions:
REMARK  status: ('A' for Active; 'I' for Inactive)
REMARK    1  A    between atoms: C_2  and  C_8
REMARK    2  A    between atoms: C_3  and  C_23
REMARK    3  A    between atoms: C_7  and  O_13
REMARK    4  A    between atoms: O_13  and  C_14
REMARK    5  A    between atoms: C_14  and  C_15
REMARK    6  A    between atoms: C_15  and  N_17
REMARK    7  A    between atoms: C_23  and  C_26
REMARK    8  A    between atoms: N_25  and  C_28
REMARK    9  A    between atoms: C_28  and  C_29
REMARK                            x       y       z     vdW  Elec       q    Type
REMARK                         _______ _______ _______ _____ _____    ______ ____
ROOT
ATOM      1  N   UNL     1      35.439 -17.034 -22.317  0.00  0.00    -0.248 NA
ATOM      2  C   UNL     1      34.874 -19.313 -21.751  0.00  0.00    +0.019 C 
ATOM      3  C   UNL     1      35.028 -17.296 -23.577  0.00  0.00    +0.068 C 
ATOM      4  C   UNL     1      34.461 -19.545 -23.057  0.00  0.00    +0.003 C 
ATOM      5  C   UNL     1      35.351 -18.052 -21.432  0.00  0.00    +0.098 C 
ATOM      6  C   UNL     1      34.537 -18.522 -23.994  0.00  0.00    +0.015 C 
ENDROOT
BRANCH   2   8
ATOM      7  C   UNL     1      34.683 -22.365 -18.832  0.00  0.00    +0.138 C 
ATOM      8  C   UNL     1      34.809 -20.357 -20.752  0.00  0.00    +0.002 C 
ATOM      9  C   UNL     1      33.508 -21.852 -19.370  0.00  0.00    +0.037 C 
ATOM     10  C   UNL     1      35.921 -21.882 -19.244  0.00  0.00    +0.037 C 
ATOM     11  C   UNL     1      33.571 -20.846 -20.333  0.00  0.00    +0.003 C 
ATOM     12  C   UNL     1      35.983 -20.876 -20.207  0.00  0.00    +0.003 C 
BRANCH   7  13
ATOM     13  O   UNL     1      34.621 -23.353 -17.885  0.00  0.00    -0.478 OA
BRANCH  13  14
ATOM     14  C   UNL     1      33.383 -23.512 -17.204  0.00  0.00    +0.183 C 
BRANCH  14  15
ATOM     15  C   UNL     1      33.644 -23.516 -15.707  0.00  0.00    -0.029 C 
BRANCH  15  17
ATOM     16  O   UNL     1      29.913 -24.867 -14.341  0.00  0.00    -0.358 OA
ATOM     17  N   UNL     1      32.390 -23.611 -14.964  0.00  0.00    +0.393 N 
ATOM     18  C   UNL     1      31.237 -23.530 -15.872  0.00  0.00    -0.044 C 
ATOM     19  C   UNL     1      32.334 -24.859 -14.190  0.00  0.00    -0.044 C 
ATOM     20  C   UNL     1      29.941 -23.642 -15.074  0.00  0.00    +0.119 C 
ATOM     21  C   UNL     1      31.012 -24.940 -13.432  0.00  0.00    +0.119 C 
ATOM     22  H   UNL     1      32.350 -22.824 -14.317  0.00  0.00    -0.079 HD
ENDBRANCH  15  17
ENDBRANCH  14  15
ENDBRANCH  13  14
ENDBRANCH   7  13
ENDBRANCH   2   8
BRANCH   3  23
ATOM     23  C   UNL     1      35.124 -16.174 -24.558  0.00  0.00    +0.131 C 
BRANCH  23  26
ATOM     24  O   UNL     1      33.016 -15.350 -25.422  0.00  0.00    -0.275 OA
ATOM     25  N   UNL     1      33.920 -14.352 -23.531  0.00  0.00    -0.300 N 
ATOM     26  C   UNL     1      33.901 -15.268 -24.574  0.00  0.00    +0.229 C 
ATOM     27  H   UNL     1      34.678 -14.368 -22.902  0.00  0.00    +0.150 HD
BRANCH  25  28
ATOM     28  C   UNL     1      32.872 -13.378 -23.331  0.00  0.00    +0.116 C 
BRANCH  28  29
ATOM     29  C   UNL     1      33.352 -11.978 -23.583  0.00  0.00    -0.003 C 
ATOM     30  C   UNL     1      32.778 -10.920 -22.889  0.00  0.00    -0.003 C 
ATOM     31  C   UNL     1      34.366 -11.755 -24.508  0.00  0.00    -0.003 C 
ATOM     32  C   UNL     1      33.223  -9.619 -23.123  0.00  0.00    -0.000 C 
ATOM     33  C   UNL     1      34.811 -10.454 -24.742  0.00  0.00    -0.000 C 
ATOM     34  C   UNL     1      34.239  -9.385 -24.050  0.00  0.00    -0.000 C 
ENDBRANCH  28  29
ENDBRANCH  25  28
ENDBRANCH  23  26
ENDBRANCH   3  23
TORSDOF 9
ENDMDL
MODEL 2
REMARK VINA RESULT:     -11.8      1.629      2.623
REMARK  Name = 23635314
REMARK  9 active torsions:
REMARK  status: ('A' for Active; 'I' for Inactive)
REMARK    1  A    between atoms: C_2  and  C_8
REMARK    2  A    between atoms: C_3  and  C_23
REMARK    3  A    between atoms: C_7  and  O_13
REMARK    4  A    between atoms: O_13  and  C_14
REMARK    5  A    between atoms: C_14  and  C_15
REMARK    6  A    between atoms: C_15  and  N_17
REMARK    7  A    between atoms: C_23  and  C_26
REMARK    8  A    between atoms: N_25  and  C_28
REMARK    9  A    between atoms: C_28  and  C_29
REMARK                            x       y       z     vdW  Elec       q    Type
REMARK                         _______ _______ _______ _____ _____    ______ ____
ROOT
ATOM      1  N   UNL     1      35.357 -16.999 -22.264  0.00  0.00    -0.248 NA
ATOM      2  C   UNL     1      34.795 -19.295 -21.765  0.00  0.00    +0.019 C 
ATOM      3  C   UNL     1      35.008 -17.244 -23.547  0.00  0.00    +0.068 C 
ATOM      4  C   UNL     1      34.446 -19.509 -23.093  0.00  0.00    +0.003 C 
ATOM      5  C   UNL     1      35.241 -18.035 -21.403  0.00  0.00    +0.098 C 
ATOM      6  C   UNL     1      34.552 -18.468 -24.008  0.00  0.00    +0.015 C 
ENDROOT
BRANCH   2   8
ATOM      7  C   UNL     1      34.506 -22.401 -18.912  0.00  0.00    +0.138 C 
ATOM      8  C   UNL     1      34.697 -20.358 -20.789  0.00  0.00    +0.002 C 
ATOM      9  C   UNL     1      35.758 -21.963 -19.328  0.00  0.00    +0.037 C 
ATOM     10  C   UNL     1      33.348 -21.828 -19.426  0.00  0.00    +0.037 C 
ATOM     11  C   UNL     1      35.854 -20.938 -20.269  0.00  0.00    +0.003 C 
ATOM     12  C   UNL     1      33.444 -20.803 -20.367  0.00  0.00    +0.003 C 
BRANCH   7  13
ATOM     13  O   UNL     1      34.412 -23.409 -17.988  0.00  0.00    -0.478 OA
BRANCH  13  14
ATOM     14  C   UNL     1      33.289 -23.377 -17.117  0.00  0.00    +0.183 C 
BRANCH  14  15
ATOM     15  C   UNL     1      33.743 -23.761 -15.719  0.00  0.00    -0.029 C 
BRANCH  15  17
ATOM     16  O   UNL     1      37.650 -24.403 -14.327  0.00  0.00    -0.358 OA
ATOM     17  N   UNL     1      35.185 -23.996 -15.690  0.00  0.00    +0.393 N 
ATOM     18  C   UNL     1      35.881 -22.892 -15.015  0.00  0.00    -0.044 C 
ATOM     19  C   UNL     1      35.494 -25.269 -15.024  0.00  0.00    -0.044 C 
ATOM     20  C   UNL     1      37.381 -23.165 -14.988  0.00  0.00    +0.119 C 
ATOM     21  C   UNL     1      37.003 -25.486 -14.996  0.00  0.00    +0.119 C 
ATOM     22  H   UNL     1      35.512 -24.045 -16.655  0.00  0.00    -0.079 HD
ENDBRANCH  15  17
ENDBRANCH  14  15
ENDBRANCH  13  14
ENDBRANCH   7  13
ENDBRANCH   2   8
BRANCH   3  23
ATOM     23  C   UNL     1      35.134 -16.104 -24.503  0.00  0.00    +0.131 C 
BRANCH  23  26
ATOM     24  O   UNL     1      33.068 -15.219 -25.406  0.00  0.00    -0.275 OA
ATOM     25  N   UNL     1      33.912 -14.314 -23.442  0.00  0.00    -0.300 N 
ATOM     26  C   UNL     1      33.922 -15.183 -24.524  0.00  0.00    +0.229 C 
ATOM     27  H   UNL     1      34.646 -14.365 -22.787  0.00  0.00    +0.150 HD
BRANCH  25  28
ATOM     28  C   UNL     1      32.867 -13.338 -23.238  0.00  0.00    +0.116 C 
BRANCH  28  29
ATOM     29  C   UNL     1      33.335 -11.943 -23.538  0.00  0.00    -0.003 C 
ATOM     30  C   UNL     1      32.752 -10.866 -22.882  0.00  0.00    -0.003 C 
ATOM     31  C   UNL     1      34.348 -11.744 -24.470  0.00  0.00    -0.003 C 
ATOM     32  C   UNL     1      33.187  -9.570 -23.161  0.00  0.00    -0.000 C 
ATOM     33  C   UNL     1      34.783 -10.448 -24.749  0.00  0.00    -0.000 C 
ATOM     34  C   UNL     1      34.201  -9.361 -24.095  0.00  0.00    -0.000 C 
ENDBRANCH  28  29
ENDBRANCH  25  28
ENDBRANCH  23  26
ENDBRANCH   3  23
TORSDOF 9
ENDMDL
MODEL 3
REMARK VINA RESULT:     -11.5      3.205      6.276
REMARK  Name = 23635314
REMARK  9 active torsions:
REMARK  status: ('A' for Active; 'I' for Inactive)
REMARK    1  A    between atoms: C_2  and  C_8
REMARK    2  A    between atoms: C_3  and  C_23
REMARK    3  A    between atoms: C_7  and  O_13
REMARK    4  A    between atoms: O_13  and  C_14
REMARK    5  A    between atoms: C_14  and  C_15
REMARK    6  A    between atoms: C_15  and  N_17
REMARK    7  A    between atoms: C_23  and  C_26
REMARK    8  A    between atoms: N_25  and  C_28
REMARK    9  A    between atoms: C_28  and  C_29
REMARK                            x       y       z     vdW  Elec       q    Type
REMARK                         _______ _______ _______ _____ _____    ______ ____
ROOT
ATOM      1  N   UNL     1      32.871 -11.609 -23.171  0.00  0.00    -0.248 NA
ATOM      2  C   UNL     1      33.439 -13.721 -22.145  0.00  0.00    +0.019 C 
ATOM      3  C   UNL     1      32.044 -11.379 -22.127  0.00  0.00    +0.068 C 
ATOM      4  C   UNL     1      32.578 -13.450 -21.088  0.00  0.00    +0.003 C 
ATOM      5  C   UNL     1      33.550 -12.778 -23.153  0.00  0.00    +0.098 C 
ATOM      6  C   UNL     1      31.863 -12.258 -21.072  0.00  0.00    +0.015 C 
ENDROOT
BRANCH   2   8
ATOM      7  C   UNL     1      35.653 -17.319 -22.278  0.00  0.00    +0.138 C 
ATOM      8  C   UNL     1      34.197 -14.952 -22.190  0.00  0.00    +0.002 C 
ATOM      9  C   UNL     1      35.269 -16.703 -23.463  0.00  0.00    +0.037 C 
ATOM     10  C   UNL     1      35.315 -16.764 -21.048  0.00  0.00    +0.037 C 
ATOM     11  C   UNL     1      34.539 -15.516 -23.420  0.00  0.00    +0.003 C 
ATOM     12  C   UNL     1      34.585 -15.577 -21.005  0.00  0.00    +0.003 C 
BRANCH   7  13
ATOM     13  O   UNL     1      36.371 -18.486 -22.321  0.00  0.00    -0.478 OA
BRANCH  13  14
ATOM     14  C   UNL     1      36.325 -19.309 -21.162  0.00  0.00    +0.183 C 
BRANCH  14  15
ATOM     15  C   UNL     1      35.062 -20.152 -21.210  0.00  0.00    -0.029 C 
BRANCH  15  17
ATOM     16  O   UNL     1      34.554 -23.116 -18.283  0.00  0.00    -0.358 OA
ATOM     17  N   UNL     1      34.829 -20.808 -19.926  0.00  0.00    +0.393 N 
ATOM     18  C   UNL     1      33.627 -21.651 -19.979  0.00  0.00    -0.044 C 
ATOM     19  C   UNL     1      35.993 -21.616 -19.533  0.00  0.00    -0.044 C 
ATOM     20  C   UNL     1      33.411 -22.333 -18.632  0.00  0.00    +0.119 C 
ATOM     21  C   UNL     1      35.722 -22.299 -18.196  0.00  0.00    +0.119 C 
ATOM     22  H   UNL     1      34.686 -20.081 -19.225  0.00  0.00    -0.079 HD
ENDBRANCH  15  17
ENDBRANCH  14  15
ENDBRANCH  13  14
ENDBRANCH   7  13
ENDBRANCH   2   8
BRANCH   3  23
ATOM     23  C   UNL     1      31.291 -10.090 -22.143  0.00  0.00    +0.131 C 
BRANCH  23  26
ATOM     24  O   UNL     1      31.998  -8.263 -20.719  0.00  0.00    -0.275 OA
ATOM     25  N   UNL     1      33.064  -8.573 -22.758  0.00  0.00    -0.300 N 
ATOM     26  C   UNL     1      32.137  -8.881 -21.771  0.00  0.00    +0.229 C 
ATOM     27  H   UNL     1      33.096  -9.132 -23.567  0.00  0.00    +0.150 HD
BRANCH  25  28
ATOM     28  C   UNL     1      33.982  -7.464 -22.643  0.00  0.00    +0.116 C 
BRANCH  28  29
ATOM     29  C   UNL     1      33.727  -6.414 -23.686  0.00  0.00    -0.003 C 
ATOM     30  C   UNL     1      32.591  -5.619 -23.596  0.00  0.00    -0.003 C 
ATOM     31  C   UNL     1      34.631  -6.247 -24.729  0.00  0.00    -0.003 C 
ATOM     32  C   UNL     1      32.354  -4.643 -24.564  0.00  0.00    -0.000 C 
ATOM     33  C   UNL     1      34.394  -5.271 -25.697  0.00  0.00    -0.000 C 
ATOM     34  C   UNL     1      33.254  -4.470 -25.615  0.00  0.00    -0.000 C 
ENDBRANCH  28  29
ENDBRANCH  25  28
ENDBRANCH  23  26
ENDBRANCH   3  23
TORSDOF 9
ENDMDL
MODEL 4
REMARK VINA RESULT:     -11.4      2.458     11.856
REMARK  Name = 23635314
REMARK  9 active torsions:
REMARK  status: ('A' for Active; 'I' for Inactive)
REMARK    1  A    between atoms: C_2  and  C_8
REMARK    2  A    between atoms: C_3  and  C_23
REMARK    3  A    between atoms: C_7  and  O_13
REMARK    4  A    between atoms: O_13  and  C_14
REMARK    5  A    between atoms: C_14  and  C_15
REMARK    6  A    between atoms: C_15  and  N_17
REMARK    7  A    between atoms: C_23  and  C_26
REMARK    8  A    between atoms: N_25  and  C_28
REMARK    9  A    between atoms: C_28  and  C_29
REMARK                            x       y       z     vdW  Elec       q    Type
REMARK                         _______ _______ _______ _____ _____    ______ ____
ROOT
ATOM      1  N   UNL     1      34.199 -24.026 -16.420  0.00  0.00    -0.248 NA
ATOM      2  C   UNL     1      35.031 -22.396 -17.997  0.00  0.00    +0.019 C 
ATOM      3  C   UNL     1      35.371 -23.910 -15.756  0.00  0.00    +0.068 C 
ATOM      4  C   UNL     1      36.223 -22.304 -17.289  0.00  0.00    +0.003 C 
ATOM      5  C   UNL     1      34.059 -23.263 -17.527  0.00  0.00    +0.098 C 
ATOM      6  C   UNL     1      36.404 -23.073 -16.145  0.00  0.00    +0.015 C 
ENDROOT
BRANCH   2   8
ATOM      7  C   UNL     1      34.391 -20.096 -21.486  0.00  0.00    +0.138 C 
ATOM      8  C   UNL     1      34.813 -21.609 -19.191  0.00  0.00    +0.002 C 
ATOM      9  C   UNL     1      35.687 -20.309 -21.030  0.00  0.00    +0.037 C 
ATOM     10  C   UNL     1      33.303 -20.631 -20.804  0.00  0.00    +0.037 C 
ATOM     11  C   UNL     1      35.898 -21.068 -19.879  0.00  0.00    +0.003 C 
ATOM     12  C   UNL     1      33.515 -21.390 -19.654  0.00  0.00    +0.003 C 
BRANCH   7  13
ATOM     13  O   UNL     1      34.183 -19.349 -22.616  0.00  0.00    -0.478 OA
BRANCH  13  14
ATOM     14  C   UNL     1      35.338 -18.955 -23.345  0.00  0.00    +0.183 C 
BRANCH  14  15
ATOM     15  C   UNL     1      35.549 -17.462 -23.157  0.00  0.00    -0.029 C 
BRANCH  15  17
ATOM     16  O   UNL     1      33.505 -14.687 -25.552  0.00  0.00    -0.358 OA
ATOM     17  N   UNL     1      34.474 -16.704 -23.793  0.00  0.00    +0.393 N 
ATOM     18  C   UNL     1      34.568 -15.278 -23.453  0.00  0.00    -0.044 C 
ATOM     19  C   UNL     1      34.505 -16.877 -25.252  0.00  0.00    -0.044 C 
ATOM     20  C   UNL     1      33.443 -14.507 -24.137  0.00  0.00    +0.119 C 
ATOM     21  C   UNL     1      33.382 -16.069 -25.894  0.00  0.00    +0.119 C 
ATOM     22  H   UNL     1      33.587 -17.065 -23.441  0.00  0.00    -0.079 HD
ENDBRANCH  15  17
ENDBRANCH  14  15
ENDBRANCH  13  14
ENDBRANCH   7  13
ENDBRANCH   2   8
BRANCH   3  23
ATOM     23  C   UNL     1      35.532 -24.751 -14.533  0.00  0.00    +0.131 C 
BRANCH  23  26
ATOM     24  O   UNL     1      34.463 -24.201 -12.430  0.00  0.00    -0.275 OA
ATOM     25  N   UNL     1      33.187 -25.149 -14.123  0.00  0.00    -0.300 N 
ATOM     26  C   UNL     1      34.360 -24.657 -13.566  0.00  0.00    +0.229 C 
ATOM     27  H   UNL     1      33.210 -25.494 -15.045  0.00  0.00    +0.150 HD
BRANCH  25  28
ATOM     28  C   UNL     1      31.935 -25.174 -13.403  0.00  0.00    +0.116 C 
BRANCH  28  29
ATOM     29  C   UNL     1      30.803 -24.635 -14.229  0.00  0.00    -0.003 C 
ATOM     30  C   UNL     1      30.709 -23.267 -14.456  0.00  0.00    -0.003 C 
ATOM     31  C   UNL     1      29.861 -25.509 -14.758  0.00  0.00    -0.003 C 
ATOM     32  C   UNL     1      29.657 -22.765 -15.223  0.00  0.00    -0.000 C 
ATOM     33  C   UNL     1      28.809 -25.008 -15.525  0.00  0.00    -0.000 C 
ATOM     34  C   UNL     1      28.707 -23.635 -15.756  0.00  0.00    -0.000 C 
ENDBRANCH  28  29
ENDBRANCH  25  28
ENDBRANCH  23  26
ENDBRANCH   3  23
TORSDOF 9
ENDMDL
MODEL 5
REMARK VINA RESULT:     -11.3      3.299      6.709
REMARK  Name = 23635314
REMARK  9 active torsions:
REMARK  status: ('A' for Active; 'I' for Inactive)
REMARK    1  A    between atoms: C_2  and  C_8
REMARK    2  A    between atoms: C_3  and  C_23
REMARK    3  A    between atoms: C_7  and  O_13
REMARK    4  A    between atoms: O_13  and  C_14
REMARK    5  A    between atoms: C_14  and  C_15
REMARK    6  A    between atoms: C_15  and  N_17
REMARK    7  A    between atoms: C_23  and  C_26
REMARK    8  A    between atoms: N_25  and  C_28
REMARK    9  A    between atoms: C_28  and  C_29
REMARK                            x       y       z     vdW  Elec       q    Type
REMARK                         _______ _______ _______ _____ _____    ______ ____
ROOT
ATOM      1  N   UNL     1      33.116 -11.062 -23.331  0.00  0.00    -0.248 NA
ATOM      2  C   UNL     1      33.372 -13.308 -22.481  0.00  0.00    +0.019 C 
ATOM      3  C   UNL     1      32.122 -10.886 -22.433  0.00  0.00    +0.068 C 
ATOM      4  C   UNL     1      32.344 -13.092 -21.572  0.00  0.00    +0.003 C 
ATOM      5  C   UNL     1      33.718 -12.272 -23.332  0.00  0.00    +0.098 C 
ATOM      6  C   UNL     1      31.702 -11.859 -21.541  0.00  0.00    +0.015 C 
ENDROOT
BRANCH   2   8
ATOM      7  C   UNL     1      35.383 -17.023 -22.649  0.00  0.00    +0.138 C 
ATOM      8  C   UNL     1      34.060 -14.579 -22.539  0.00  0.00    +0.002 C 
ATOM      9  C   UNL     1      35.243 -16.370 -21.430  0.00  0.00    +0.037 C 
ATOM     10  C   UNL     1      34.867 -16.465 -23.815  0.00  0.00    +0.037 C 
ATOM     11  C   UNL     1      34.580 -15.145 -21.374  0.00  0.00    +0.003 C 
ATOM     12  C   UNL     1      34.204 -15.240 -23.759  0.00  0.00    +0.003 C 
BRANCH   7  13
ATOM     13  O   UNL     1      36.035 -18.226 -22.704  0.00  0.00    -0.478 OA
BRANCH  13  14
ATOM     14  C   UNL     1      36.074 -18.990 -21.505  0.00  0.00    +0.183 C 
BRANCH  14  15
ATOM     15  C   UNL     1      34.817 -19.839 -21.426  0.00  0.00    -0.029 C 
BRANCH  15  17
ATOM     16  O   UNL     1      34.761 -22.969 -18.629  0.00  0.00    -0.358 OA
ATOM     17  N   UNL     1      34.766 -20.570 -20.161  0.00  0.00    +0.393 N 
ATOM     18  C   UNL     1      33.589 -21.447 -20.111  0.00  0.00    -0.044 C 
ATOM     19  C   UNL     1      35.991 -21.358 -19.963  0.00  0.00    -0.044 C 
ATOM     20  C   UNL     1      33.564 -22.206 -18.788  0.00  0.00    +0.119 C 
ATOM     21  C   UNL     1      35.910 -22.119 -18.644  0.00  0.00    +0.119 C 
ATOM     22  H   UNL     1      34.694 -19.885 -19.408  0.00  0.00    -0.079 HD
ENDBRANCH  15  17
ENDBRANCH  14  15
ENDBRANCH  13  14
ENDBRANCH   7  13
ENDBRANCH   2   8
BRANCH   3  23
ATOM     23  C   UNL     1      31.454  -9.552 -22.428  0.00  0.00    +0.131 C 
BRANCH  23  26
ATOM     24  O   UNL     1      32.425  -7.767 -21.109  0.00  0.00    -0.275 OA
ATOM     25  N   UNL     1      33.219  -8.132 -23.260  0.00  0.00    -0.300 N 
ATOM     26  C   UNL     1      32.403  -8.391 -22.167  0.00  0.00    +0.229 C 
ATOM     27  H   UNL     1      33.122  -8.692 -24.065  0.00  0.00    +0.150 HD
BRANCH  25  28
ATOM     28  C   UNL     1      34.204  -7.076 -23.264  0.00  0.00    +0.116 C 
BRANCH  28  29
ATOM     29  C   UNL     1      33.900  -6.029 -24.296  0.00  0.00    -0.003 C 
ATOM     30  C   UNL     1      34.786  -5.824 -25.348  0.00  0.00    -0.003 C 
ATOM     31  C   UNL     1      32.736  -5.276 -24.191  0.00  0.00    -0.003 C 
ATOM     32  C   UNL     1      34.504  -4.851 -26.307  0.00  0.00    -0.000 C 
ATOM     33  C   UNL     1      32.455  -4.304 -25.150  0.00  0.00    -0.000 C 
ATOM     34  C   UNL     1      33.339  -4.091 -26.209  0.00  0.00    -0.000 C 
ENDBRANCH  28  29
ENDBRANCH  25  28
ENDBRANCH  23  26
ENDBRANCH   3  23
TORSDOF 9
ENDMDL
MODEL 6
REMARK VINA RESULT:     -11.3      2.429     11.733
REMARK  Name = 23635314
REMARK  9 active torsions:
REMARK  status: ('A' for Active; 'I' for Inactive)
REMARK    1  A    between atoms: C_2  and  C_8
REMARK    2  A    between atoms: C_3  and  C_23
REMARK    3  A    between atoms: C_7  and  O_13
REMARK    4  A    between atoms: O_13  and  C_14
REMARK    5  A    between atoms: C_14  and  C_15
REMARK    6  A    between atoms: C_15  and  N_17
REMARK    7  A    between atoms: C_23  and  C_26
REMARK    8  A    between atoms: N_25  and  C_28
REMARK    9  A    between atoms: C_28  and  C_29
REMARK                            x       y       z     vdW  Elec       q    Type
REMARK                         _______ _______ _______ _____ _____    ______ ____
ROOT
ATOM      1  N   UNL     1      34.609 -23.867 -16.548  0.00  0.00    -0.248 NA
ATOM      2  C   UNL     1      35.400 -22.226 -18.134  0.00  0.00    +0.019 C 
ATOM      3  C   UNL     1      35.773 -23.710 -15.878  0.00  0.00    +0.068 C 
ATOM      4  C   UNL     1      36.585 -22.092 -17.421  0.00  0.00    +0.003 C 
ATOM      5  C   UNL     1      34.452 -23.118 -17.662  0.00  0.00    +0.098 C 
ATOM      6  C   UNL     1      36.783 -22.845 -16.270  0.00  0.00    +0.015 C 
ENDROOT
BRANCH   2   8
ATOM      7  C   UNL     1      34.711 -19.977 -21.647  0.00  0.00    +0.138 C 
ATOM      8  C   UNL     1      35.164 -21.456 -19.336  0.00  0.00    +0.002 C 
ATOM      9  C   UNL     1      33.634 -20.517 -20.952  0.00  0.00    +0.037 C 
ATOM     10  C   UNL     1      36.013 -20.171 -21.197  0.00  0.00    +0.037 C 
ATOM     11  C   UNL     1      33.861 -21.258 -19.793  0.00  0.00    +0.003 C 
ATOM     12  C   UNL     1      36.239 -20.913 -20.039  0.00  0.00    +0.003 C 
BRANCH   7  13
ATOM     13  O   UNL     1      34.488 -19.249 -22.786  0.00  0.00    -0.478 OA
BRANCH  13  14
ATOM     14  C   UNL     1      35.204 -18.027 -22.916  0.00  0.00    +0.183 C 
BRANCH  14  15
ATOM     15  C   UNL     1      34.980 -17.476 -24.314  0.00  0.00    -0.029 C 
BRANCH  15  17
ATOM     16  O   UNL     1      33.141 -13.780 -23.559  0.00  0.00    -0.358 OA
ATOM     17  N   UNL     1      34.721 -16.039 -24.267  0.00  0.00    +0.393 N 
ATOM     18  C   UNL     1      33.486 -15.706 -24.992  0.00  0.00    -0.044 C 
ATOM     19  C   UNL     1      34.631 -15.569 -22.878  0.00  0.00    -0.044 C 
ATOM     20  C   UNL     1      33.232 -14.204 -24.920  0.00  0.00    +0.119 C 
ATOM     21  C   UNL     1      34.349 -14.070 -22.855  0.00  0.00    +0.119 C 
ATOM     22  H   UNL     1      35.502 -15.566 -24.722  0.00  0.00    -0.079 HD
ENDBRANCH  15  17
ENDBRANCH  14  15
ENDBRANCH  13  14
ENDBRANCH   7  13
ENDBRANCH   2   8
BRANCH   3  23
ATOM     23  C   UNL     1      35.953 -24.535 -14.647  0.00  0.00    +0.131 C 
BRANCH  23  26
ATOM     24  O   UNL     1      34.845 -24.081 -12.542  0.00  0.00    -0.275 OA
ATOM     25  N   UNL     1      33.603 -24.958 -14.297  0.00  0.00    -0.300 N 
ATOM     26  C   UNL     1      34.764 -24.487 -13.698  0.00  0.00    +0.229 C 
ATOM     27  H   UNL     1      33.643 -25.261 -15.233  0.00  0.00    +0.150 HD
BRANCH  25  28
ATOM     28  C   UNL     1      32.339 -25.018 -13.601  0.00  0.00    +0.116 C 
BRANCH  28  29
ATOM     29  C   UNL     1      31.191 -24.634 -14.490  0.00  0.00    -0.003 C 
ATOM     30  C   UNL     1      30.010 -25.365 -14.442  0.00  0.00    -0.003 C 
ATOM     31  C   UNL     1      31.321 -23.551 -15.352  0.00  0.00    -0.003 C 
ATOM     32  C   UNL     1      28.944 -25.009 -15.268  0.00  0.00    -0.000 C 
ATOM     33  C   UNL     1      30.254 -23.194 -16.177  0.00  0.00    -0.000 C 
ATOM     34  C   UNL     1      29.066 -23.925 -16.136  0.00  0.00    -0.000 C 
ENDBRANCH  28  29
ENDBRANCH  25  28
ENDBRANCH  23  26
ENDBRANCH   3  23
TORSDOF 9
ENDMDL
MODEL 7
REMARK VINA RESULT:     -11.2      2.380      3.615
REMARK  Name = 23635314
REMARK  9 active torsions:
REMARK  status: ('A' for Active; 'I' for Inactive)
REMARK    1  A    between atoms: C_2  and  C_8
REMARK    2  A    between atoms: C_3  and  C_23
REMARK    3  A    between atoms: C_7  and  O_13
REMARK    4  A    between atoms: O_13  and  C_14
REMARK    5  A    between atoms: C_14  and  C_15
REMARK    6  A    between atoms: C_15  and  N_17
REMARK    7  A    between atoms: C_23  and  C_26
REMARK    8  A    between atoms: N_25  and  C_28
REMARK    9  A    between atoms: C_28  and  C_29
REMARK                            x       y       z     vdW  Elec       q    Type
REMARK                         _______ _______ _______ _____ _____    ______ ____
ROOT
ATOM      1  N   UNL     1      34.245 -18.912 -24.010  0.00  0.00    -0.248 NA
ATOM      2  C   UNL     1      34.816 -19.561 -21.755  0.00  0.00    +0.019 C 
ATOM      3  C   UNL     1      34.985 -17.797 -23.825  0.00  0.00    +0.068 C 
ATOM      4  C   UNL     1      35.568 -18.403 -21.601  0.00  0.00    +0.003 C 
ATOM      5  C   UNL     1      34.180 -19.769 -22.967  0.00  0.00    +0.098 C 
ATOM      6  C   UNL     1      35.659 -17.498 -22.652  0.00  0.00    +0.015 C 
ENDROOT
BRANCH   2   8
ATOM      7  C   UNL     1      34.482 -22.372 -18.615  0.00  0.00    +0.138 C 
ATOM      8  C   UNL     1      34.702 -20.523 -20.680  0.00  0.00    +0.002 C 
ATOM      9  C   UNL     1      35.740 -21.944 -19.025  0.00  0.00    +0.037 C 
ATOM     10  C   UNL     1      33.332 -21.884 -19.228  0.00  0.00    +0.037 C 
ATOM     11  C   UNL     1      35.850 -21.017 -20.061  0.00  0.00    +0.003 C 
ATOM     12  C   UNL     1      33.444 -20.957 -20.264  0.00  0.00    +0.003 C 
BRANCH   7  13
ATOM     13  O   UNL     1      34.373 -23.283 -17.597  0.00  0.00    -0.478 OA
BRANCH  13  14
ATOM     14  C   UNL     1      35.335 -23.196 -16.554  0.00  0.00    +0.183 C 
BRANCH  14  15
ATOM     15  C   UNL     1      34.907 -24.111 -15.418  0.00  0.00    -0.029 C 
BRANCH  15  17
ATOM     16  O   UNL     1      38.500 -26.253 -15.074  0.00  0.00    -0.358 OA
ATOM     17  N   UNL     1      36.062 -24.802 -14.848  0.00  0.00    +0.393 N 
ATOM     18  C   UNL     1      36.081 -26.212 -15.258  0.00  0.00    -0.044 C 
ATOM     19  C   UNL     1      37.314 -24.144 -15.247  0.00  0.00    -0.044 C 
ATOM     20  C   UNL     1      37.300 -26.909 -14.661  0.00  0.00    +0.119 C 
ATOM     21  C   UNL     1      38.504 -24.889 -14.651  0.00  0.00    +0.119 C 
ATOM     22  H   UNL     1      35.981 -24.759 -13.832  0.00  0.00    -0.079 HD
ENDBRANCH  15  17
ENDBRANCH  14  15
ENDBRANCH  13  14
ENDBRANCH   7  13
ENDBRANCH   2   8
BRANCH   3  23
ATOM     23  C   UNL     1      35.060 -16.846 -24.974  0.00  0.00    +0.131 C 
BRANCH  23  26
ATOM     24  O   UNL     1      32.859 -16.224 -25.771  0.00  0.00    -0.275 OA
ATOM     25  N   UNL     1      34.000 -14.764 -24.372  0.00  0.00    -0.300 N 
ATOM     26  C   UNL     1      33.846 -15.937 -25.098  0.00  0.00    +0.229 C 
ATOM     27  H   UNL     1      34.832 -14.628 -23.863  0.00  0.00    +0.150 HD
BRANCH  25  28
ATOM     28  C   UNL     1      32.986 -13.736 -24.332  0.00  0.00    +0.116 C 
BRANCH  28  29
ATOM     29  C   UNL     1      32.681 -13.304 -22.926  0.00  0.00    -0.003 C 
ATOM     30  C   UNL     1      32.036 -12.093 -22.704  0.00  0.00    -0.003 C 
ATOM     31  C   UNL     1      33.046 -14.119 -21.862  0.00  0.00    -0.003 C 
ATOM     32  C   UNL     1      31.752 -11.691 -21.399  0.00  0.00    -0.000 C 
ATOM     33  C   UNL     1      32.762 -13.718 -20.556  0.00  0.00    -0.000 C 
ATOM     34  C   UNL     1      32.116 -12.503 -20.325  0.00  0.00    -0.000 C 
ENDBRANCH  28  29
ENDBRANCH  25  28
ENDBRANCH  23  26
ENDBRANCH   3  23
TORSDOF 9
ENDMDL
MODEL 8
REMARK VINA RESULT:     -11.1      2.818     12.173
REMARK  Name = 23635314
REMARK  9 active torsions:
REMARK  status: ('A' for Active; 'I' for Inactive)
REMARK    1  A    between atoms: C_2  and  C_8
REMARK    2  A    between atoms: C_3  and  C_23
REMARK    3  A    between atoms: C_7  and  O_13
REMARK    4  A    between atoms: O_13  and  C_14
REMARK    5  A    between atoms: C_14  and  C_15
REMARK    6  A    between atoms: C_15  and  N_17
REMARK    7  A    between atoms: C_23  and  C_26
REMARK    8  A    between atoms: N_25  and  C_28
REMARK    9  A    between atoms: C_28  and  C_29
REMARK                            x       y       z     vdW  Elec       q    Type
REMARK                         _______ _______ _______ _____ _____    ______ ____
ROOT
ATOM      1  N   UNL     1      35.471 -22.327 -19.049  0.00  0.00    -0.248 NA
ATOM      2  C   UNL     1      34.511 -20.665 -20.517  0.00  0.00    +0.019 C 
ATOM      3  C   UNL     1      34.218 -22.612 -18.631  0.00  0.00    +0.068 C 
ATOM      4  C   UNL     1      33.238 -20.985 -20.062  0.00  0.00    +0.003 C 
ATOM      5  C   UNL     1      35.586 -21.358 -19.985  0.00  0.00    +0.098 C 
ATOM      6  C   UNL     1      33.080 -21.976 -19.101  0.00  0.00    +0.015 C 
ENDROOT
BRANCH   2   8
ATOM      7  C   UNL     1      35.090 -17.666 -23.438  0.00  0.00    +0.138 C 
ATOM      8  C   UNL     1      34.709 -19.639 -21.517  0.00  0.00    +0.002 C 
ATOM      9  C   UNL     1      34.460 -18.854 -23.788  0.00  0.00    +0.037 C 
ATOM     10  C   UNL     1      35.533 -17.454 -22.137  0.00  0.00    +0.037 C 
ATOM     11  C   UNL     1      34.268 -19.844 -22.824  0.00  0.00    +0.003 C 
ATOM     12  C   UNL     1      35.341 -18.444 -21.174  0.00  0.00    +0.003 C 
BRANCH   7  13
ATOM     13  O   UNL     1      35.278 -16.693 -24.386  0.00  0.00    -0.478 OA
BRANCH  13  14
ATOM     14  C   UNL     1      34.467 -16.768 -25.551  0.00  0.00    +0.183 C 
BRANCH  14  15
ATOM     15  C   UNL     1      33.286 -15.827 -25.386  0.00  0.00    -0.029 C 
BRANCH  15  17
ATOM     16  O   UNL     1      33.287 -11.703 -24.605  0.00  0.00    -0.358 OA
ATOM     17  N   UNL     1      33.743 -14.462 -25.138  0.00  0.00    +0.393 N 
ATOM     18  C   UNL     1      33.252 -13.549 -26.179  0.00  0.00    -0.044 C 
ATOM     19  C   UNL     1      33.308 -13.996 -23.814  0.00  0.00    -0.044 C 
ATOM     20  C   UNL     1      33.733 -12.130 -25.893  0.00  0.00    +0.119 C 
ATOM     21  C   UNL     1      33.787 -12.566 -23.583  0.00  0.00    +0.119 C 
ATOM     22  H   UNL     1      34.763 -14.465 -25.163  0.00  0.00    -0.079 HD
ENDBRANCH  15  17
ENDBRANCH  14  15
ENDBRANCH  13  14
ENDBRANCH   7  13
ENDBRANCH   2   8
BRANCH   3  23
ATOM     23  C   UNL     1      34.085 -23.680 -17.597  0.00  0.00    +0.131 C 
BRANCH  23  26
ATOM     24  O   UNL     1      33.820 -23.095 -15.262  0.00  0.00    -0.275 OA
ATOM     25  N   UNL     1      35.951 -23.097 -16.183  0.00  0.00    -0.300 N 
ATOM     26  C   UNL     1      34.573 -23.263 -16.218  0.00  0.00    +0.229 C 
ATOM     27  H   UNL     1      36.467 -23.258 -17.006  0.00  0.00    +0.150 HD
BRANCH  25  28
ATOM     28  C   UNL     1      36.657 -22.699 -14.987  0.00  0.00    +0.116 C 
BRANCH  28  29
ATOM     29  C   UNL     1      37.203 -23.881 -14.239  0.00  0.00    -0.003 C 
ATOM     30  C   UNL     1      37.452 -23.775 -12.876  0.00  0.00    -0.003 C 
ATOM     31  C   UNL     1      37.453 -25.068 -14.917  0.00  0.00    -0.003 C 
ATOM     32  C   UNL     1      37.959 -24.873 -12.180  0.00  0.00    -0.000 C 
ATOM     33  C   UNL     1      37.960 -26.166 -14.221  0.00  0.00    -0.000 C 
ATOM     34  C   UNL     1      38.214 -26.068 -12.853  0.00  0.00    -0.000 C 
ENDBRANCH  28  29
ENDBRANCH  25  28
ENDBRANCH  23  26
ENDBRANCH   3  23
TORSDOF 9
ENDMDL
MODEL 9
REMARK VINA RESULT:     -10.8      3.549     12.809
REMARK  Name = 23635314
REMARK  9 active torsions:
REMARK  status: ('A' for Active; 'I' for Inactive)
REMARK    1  A    between atoms: C_2  and  C_8
REMARK    2  A    between atoms: C_3  and  C_23
REMARK    3  A    between atoms: C_7  and  O_13
REMARK    4  A    between atoms: O_13  and  C_14
REMARK    5  A    between atoms: C_14  and  C_15
REMARK    6  A    between atoms: C_15  and  N_17
REMARK    7  A    between atoms: C_23  and  C_26
REMARK    8  A    between atoms: N_25  and  C_28
REMARK    9  A    between atoms: C_28  and  C_29
REMARK                            x       y       z     vdW  Elec       q    Type
REMARK                         _______ _______ _______ _____ _____    ______ ____
ROOT
ATOM      1  N   UNL     1      35.090 -16.054 -21.457  0.00  0.00    -0.248 NA
ATOM      2  C   UNL     1      33.933 -14.274 -22.611  0.00  0.00    +0.019 C 
ATOM      3  C   UNL     1      35.254 -16.659 -22.655  0.00  0.00    +0.068 C 
ATOM      4  C   UNL     1      34.121 -14.926 -23.824  0.00  0.00    +0.003 C 
ATOM      5  C   UNL     1      34.432 -14.873 -21.466  0.00  0.00    +0.098 C 
ATOM      6  C   UNL     1      34.793 -16.142 -23.854  0.00  0.00    +0.015 C 
ENDROOT
BRANCH   2   8
ATOM      7  C   UNL     1      31.902 -10.572 -22.422  0.00  0.00    +0.138 C 
ATOM      8  C   UNL     1      33.238 -13.008 -22.546  0.00  0.00    +0.002 C 
ATOM      9  C   UNL     1      31.580 -11.581 -21.521  0.00  0.00    +0.037 C 
ATOM     10  C   UNL     1      32.885 -10.770 -23.386  0.00  0.00    +0.037 C 
ATOM     11  C   UNL     1      32.251 -12.802 -21.583  0.00  0.00    +0.003 C 
ATOM     12  C   UNL     1      33.555 -11.991 -23.447  0.00  0.00    +0.003 C 
BRANCH   7  13
ATOM     13  O   UNL     1      31.243  -9.372 -22.362  0.00  0.00    -0.478 OA
BRANCH  13  14
ATOM     14  C   UNL     1      31.905  -8.311 -21.685  0.00  0.00    +0.183 C 
BRANCH  14  15
ATOM     15  C   UNL     1      31.478  -6.992 -22.309  0.00  0.00    -0.029 C 
BRANCH  15  17
ATOM     16  O   UNL     1      34.139  -5.182 -25.003  0.00  0.00    -0.358 OA
ATOM     17  N   UNL     1      32.259  -6.713 -23.512  0.00  0.00    +0.393 N 
ATOM     18  C   UNL     1      31.911  -5.399 -24.068  0.00  0.00    -0.044 C 
ATOM     19  C   UNL     1      33.700  -6.773 -23.225  0.00  0.00    -0.044 C 
ATOM     20  C   UNL     1      32.746  -5.126 -25.315  0.00  0.00    +0.119 C 
ATOM     21  C   UNL     1      34.493  -6.467 -24.491  0.00  0.00    +0.119 C 
ATOM     22  H   UNL     1      32.035  -7.429 -24.203  0.00  0.00    -0.079 HD
ENDBRANCH  15  17
ENDBRANCH  14  15
ENDBRANCH  13  14
ENDBRANCH   7  13
ENDBRANCH   2   8
BRANCH   3  23
ATOM     23  C   UNL     1      35.979 -17.963 -22.650  0.00  0.00    +0.131 C 
BRANCH  23  26
ATOM     24  O   UNL     1      34.767 -19.834 -23.597  0.00  0.00    -0.275 OA
ATOM     25  N   UNL     1      34.604 -19.430 -21.317  0.00  0.00    -0.300 N 
ATOM     26  C   UNL     1      35.061 -19.176 -22.603  0.00  0.00    +0.229 C 
ATOM     27  H   UNL     1      34.899 -18.841 -20.585  0.00  0.00    +0.150 HD
BRANCH  25  28
ATOM     28  C   UNL     1      33.714 -20.526 -21.010  0.00  0.00    +0.116 C 
BRANCH  28  29
ATOM     29  C   UNL     1      34.205 -21.338 -19.846  0.00  0.00    -0.003 C 
ATOM     30  C   UNL     1      35.563 -21.368 -19.554  0.00  0.00    -0.003 C 
ATOM     31  C   UNL     1      33.296 -22.051 -19.073  0.00  0.00    -0.003 C 
ATOM     32  C   UNL     1      36.019 -22.123 -18.473  0.00  0.00    -0.000 C 
ATOM     33  C   UNL     1      33.752 -22.806 -17.992  0.00  0.00    -0.000 C 
ATOM     34  C   UNL     1      35.115 -22.842 -17.693  0.00  0.00    -0.000 C 
ENDBRANCH  28  29
ENDBRANCH  25  28
ENDBRANCH  23  26
ENDBRANCH   3  23
TORSDOF 9
ENDMDL
