MODEL 1
REMARK VINA RESULT:     -11.6      0.000      0.000
REMARK  Name = 17748441
REMARK  5 active torsions:
REMARK  status: ('A' for Active; 'I' for Inactive)
REMARK    1  A    between atoms: C_2  and  N_10
REMARK    2  A    between atoms: C_3  and  O_24
REMARK    3  A    between atoms: C_12  and  C_16
REMARK    4  A    between atoms: C_16  and  C_18
REMARK    5  A    between atoms: O_24  and  C_27
REMARK                            x       y       z     vdW  Elec       q    Type
REMARK                         _______ _______ _______ _____ _____    ______ ____
ROOT
ATOM      1  F   UNL     1      34.945 -18.686 -24.688  0.00  0.00    -0.201 F 
ATOM      2  C   UNL     1      34.711 -15.508 -22.936  0.00  0.00    +0.054 C 
ATOM      3  C   UNL     1      35.355 -18.170 -22.408  0.00  0.00    +0.173 C 
ATOM      4  C   UNL     1      34.666 -16.453 -23.961  0.00  0.00    +0.047 C 
ATOM      5  C   UNL     1      35.077 -15.895 -21.647  0.00  0.00    +0.018 C 
ATOM      6  C   UNL     1      34.989 -17.784 -23.697  0.00  0.00    +0.176 C 
ATOM      7  C   UNL     1      35.399 -17.226 -21.383  0.00  0.00    +0.041 C 
ENDROOT
BRANCH   2  10
ATOM      8  O   UNL     1      31.578 -11.159 -22.007  0.00  0.00    -0.274 OA
ATOM      9  O   UNL     1      32.552 -13.767 -21.783  0.00  0.00    -0.252 OA
ATOM     10  N   UNL     1      34.383 -14.157 -23.202  0.00  0.00    -0.268 N 
ATOM     11  N   UNL     1      33.371 -12.092 -23.170  0.00  0.00    -0.239 N 
ATOM     12  C   UNL     1      32.486 -11.066 -22.827  0.00  0.00    +0.234 C 
ATOM     13  C   UNL     1      33.360 -13.394 -22.631  0.00  0.00    +0.310 C 
ATOM     14  H   UNL     1      34.943 -13.701 -23.872  0.00  0.00    +0.156 HD
ATOM     15  H   UNL     1      34.058 -11.889 -23.845  0.00  0.00    +0.159 HD
BRANCH  12  16
ATOM     16  C   UNL     1      32.788  -9.798 -23.604  0.00  0.00    +0.112 C 
BRANCH  16  18
ATOM     17  F   UNL     1      30.894  -5.129 -21.082  0.00  0.00    -0.204 F 
ATOM     18  C   UNL     1      32.282  -8.551 -22.930  0.00  0.00    -0.013 C 
ATOM     19  C   UNL     1      31.312  -7.766 -23.553  0.00  0.00    -0.001 C 
ATOM     20  C   UNL     1      32.782  -8.179 -21.682  0.00  0.00    -0.001 C 
ATOM     21  C   UNL     1      30.843  -6.610 -22.929  0.00  0.00    +0.029 C 
ATOM     22  C   UNL     1      32.315  -7.023 -21.058  0.00  0.00    +0.029 C 
ATOM     23  C   UNL     1      31.344  -6.238 -21.681  0.00  0.00    +0.140 C 
ENDBRANCH  16  18
ENDBRANCH  12  16
ENDBRANCH   2  10
BRANCH   3  24
ATOM     24  O   UNL     1      35.668 -19.470 -22.151  0.00  0.00    -0.451 OA
BRANCH  24  27
ATOM     25  N   UNL     1      33.222 -21.562 -19.485  0.00  0.00    -0.229 NA
ATOM     26  N   UNL     1      35.161 -22.483 -18.451  0.00  0.00    -0.343 N 
ATOM     27  C   UNL     1      34.858 -20.163 -21.268  0.00  0.00    +0.150 C 
ATOM     28  C   UNL     1      35.424 -20.981 -20.296  0.00  0.00    +0.071 C 
ATOM     29  C   UNL     1      33.475 -20.045 -21.349  0.00  0.00    +0.058 C 
ATOM     30  C   UNL     1      34.569 -21.653 -19.436  0.00  0.00    +0.128 C 
ATOM     31  C   UNL     1      32.708 -20.758 -20.442  0.00  0.00    +0.103 C 
ATOM     32  H   UNL     1      34.593 -22.979 -17.819  0.00  0.00    +0.144 HD
ATOM     33  H   UNL     1      36.141 -22.562 -18.399  0.00  0.00    +0.144 HD
ENDBRANCH  24  27
ENDBRANCH   3  24
TORSDOF 5
ENDMDL
MODEL 2
REMARK VINA RESULT:     -11.5      5.546      8.804
REMARK  Name = 17748441
REMARK  5 active torsions:
REMARK  status: ('A' for Active; 'I' for Inactive)
REMARK    1  A    between atoms: C_2  and  N_10
REMARK    2  A    between atoms: C_3  and  O_24
REMARK    3  A    between atoms: C_12  and  C_16
REMARK    4  A    between atoms: C_16  and  C_18
REMARK    5  A    between atoms: O_24  and  C_27
REMARK                            x       y       z     vdW  Elec       q    Type
REMARK                         _______ _______ _______ _____ _____    ______ ____
ROOT
ATOM      1  F   UNL     1      33.876 -24.006 -16.032  0.00  0.00    -0.201 F 
ATOM      2  C   UNL     1      35.551 -21.983 -18.548  0.00  0.00    +0.054 C 
ATOM      3  C   UNL     1      36.071 -23.106 -16.048  0.00  0.00    +0.173 C 
ATOM      4  C   UNL     1      34.566 -22.728 -17.899  0.00  0.00    +0.047 C 
ATOM      5  C   UNL     1      36.796 -21.799 -17.945  0.00  0.00    +0.018 C 
ATOM      6  C   UNL     1      34.827 -23.290 -16.649  0.00  0.00    +0.176 C 
ATOM      7  C   UNL     1      37.056 -22.360 -16.695  0.00  0.00    +0.041 C 
ENDROOT
BRANCH   2  10
ATOM      8  O   UNL     1      36.728 -18.315 -22.388  0.00  0.00    -0.274 OA
ATOM      9  O   UNL     1      36.906 -19.718 -19.980  0.00  0.00    -0.252 OA
ATOM     10  N   UNL     1      35.288 -21.413 -19.815  0.00  0.00    -0.268 N 
ATOM     11  N   UNL     1      35.383 -20.090 -21.694  0.00  0.00    -0.239 N 
ATOM     12  C   UNL     1      35.801 -19.096 -22.584  0.00  0.00    +0.234 C 
ATOM     13  C   UNL     1      35.957 -20.352 -20.434  0.00  0.00    +0.310 C 
ATOM     14  H   UNL     1      34.542 -21.811 -20.322  0.00  0.00    +0.156 HD
ATOM     15  H   UNL     1      34.624 -20.653 -21.971  0.00  0.00    +0.159 HD
BRANCH  12  16
ATOM     16  C   UNL     1      34.957 -19.097 -23.845  0.00  0.00    +0.112 C 
BRANCH  16  18
ATOM     17  F   UNL     1      33.264 -13.953 -25.401  0.00  0.00    -0.204 F 
ATOM     18  C   UNL     1      34.505 -17.722 -24.261  0.00  0.00    -0.013 C 
ATOM     19  C   UNL     1      34.745 -16.629 -23.431  0.00  0.00    -0.001 C 
ATOM     20  C   UNL     1      33.846 -17.543 -25.477  0.00  0.00    -0.001 C 
ATOM     21  C   UNL     1      34.326 -15.355 -23.815  0.00  0.00    +0.029 C 
ATOM     22  C   UNL     1      33.426 -16.270 -25.862  0.00  0.00    +0.029 C 
ATOM     23  C   UNL     1      33.667 -15.175 -25.032  0.00  0.00    +0.140 C 
ENDBRANCH  16  18
ENDBRANCH  12  16
ENDBRANCH   2  10
BRANCH   3  24
ATOM     24  O   UNL     1      36.325 -23.652 -14.827  0.00  0.00    -0.451 OA
BRANCH  24  27
ATOM     25  N   UNL     1      38.461 -27.243 -14.710  0.00  0.00    -0.229 NA
ATOM     26  N   UNL     1      40.448 -26.027 -14.208  0.00  0.00    -0.343 N 
ATOM     27  C   UNL     1      37.033 -24.842 -14.788  0.00  0.00    +0.150 C 
ATOM     28  C   UNL     1      38.396 -24.834 -14.515  0.00  0.00    +0.071 C 
ATOM     29  C   UNL     1      36.383 -26.048 -15.022  0.00  0.00    +0.058 C 
ATOM     30  C   UNL     1      39.058 -26.051 -14.488  0.00  0.00    +0.128 C 
ATOM     31  C   UNL     1      37.135 -27.211 -14.972  0.00  0.00    +0.103 C 
ATOM     32  H   UNL     1      40.958 -26.868 -14.178  0.00  0.00    +0.144 HD
ATOM     33  H   UNL     1      40.902 -25.169 -14.043  0.00  0.00    +0.144 HD
ENDBRANCH  24  27
ENDBRANCH   3  24
TORSDOF 5
ENDMDL
MODEL 3
REMARK VINA RESULT:     -11.5      2.884     10.969
REMARK  Name = 17748441
REMARK  5 active torsions:
REMARK  status: ('A' for Active; 'I' for Inactive)
REMARK    1  A    between atoms: C_2  and  N_10
REMARK    2  A    between atoms: C_3  and  O_24
REMARK    3  A    between atoms: C_12  and  C_16
REMARK    4  A    between atoms: C_16  and  C_18
REMARK    5  A    between atoms: O_24  and  C_27
REMARK                            x       y       z     vdW  Elec       q    Type
REMARK                         _______ _______ _______ _____ _____    ______ ____
ROOT
ATOM      1  F   UNL     1      31.166 -12.024 -20.761  0.00  0.00    -0.201 F 
ATOM      2  C   UNL     1      33.845 -14.134 -22.025  0.00  0.00    +0.054 C 
ATOM      3  C   UNL     1      32.524 -11.769 -22.689  0.00  0.00    +0.173 C 
ATOM      4  C   UNL     1      32.815 -13.659 -21.213  0.00  0.00    +0.047 C 
ATOM      5  C   UNL     1      34.214 -13.426 -23.168  0.00  0.00    +0.018 C 
ATOM      6  C   UNL     1      32.154 -12.476 -21.546  0.00  0.00    +0.176 C 
ATOM      7  C   UNL     1      33.554 -12.244 -23.501  0.00  0.00    +0.041 C 
ENDROOT
BRANCH   2  10
ATOM      8  O   UNL     1      36.009 -18.892 -23.534  0.00  0.00    -0.274 OA
ATOM      9  O   UNL     1      34.716 -16.426 -23.759  0.00  0.00    -0.252 OA
ATOM     10  N   UNL     1      34.515 -15.334 -21.689  0.00  0.00    -0.268 N 
ATOM     11  N   UNL     1      35.541 -17.389 -21.813  0.00  0.00    -0.239 N 
ATOM     12  C   UNL     1      36.052 -18.575 -22.348  0.00  0.00    +0.234 C 
ATOM     13  C   UNL     1      34.897 -16.372 -22.545  0.00  0.00    +0.310 C 
ATOM     14  H   UNL     1      34.738 -15.453 -20.736  0.00  0.00    +0.156 HD
ATOM     15  H   UNL     1      35.639 -17.253 -20.842  0.00  0.00    +0.159 HD
BRANCH  12  16
ATOM     16  C   UNL     1      36.677 -19.440 -21.271  0.00  0.00    +0.112 C 
BRANCH  16  18
ATOM     17  F   UNL     1      32.977 -22.822 -18.698  0.00  0.00    -0.204 F 
ATOM     18  C   UNL     1      35.688 -20.344 -20.583  0.00  0.00    -0.013 C 
ATOM     19  C   UNL     1      36.137 -21.317 -19.691  0.00  0.00    -0.001 C 
ATOM     20  C   UNL     1      34.324 -20.208 -20.838  0.00  0.00    -0.001 C 
ATOM     21  C   UNL     1      35.221 -22.155 -19.054  0.00  0.00    +0.029 C 
ATOM     22  C   UNL     1      33.408 -21.046 -20.202  0.00  0.00    +0.029 C 
ATOM     23  C   UNL     1      33.856 -22.019 -19.309  0.00  0.00    +0.140 C 
ENDBRANCH  16  18
ENDBRANCH  12  16
ENDBRANCH   2  10
BRANCH   3  24
ATOM     24  O   UNL     1      31.878 -10.616 -23.015  0.00  0.00    -0.451 OA
BRANCH  24  27
ATOM     25  N   UNL     1      33.689  -7.006 -21.936  0.00  0.00    -0.229 NA
ATOM     26  N   UNL     1      32.802  -7.236 -19.736  0.00  0.00    -0.343 N 
ATOM     27  C   UNL     1      32.478  -9.420 -22.657  0.00  0.00    +0.150 C 
ATOM     28  C   UNL     1      32.336  -8.926 -21.365  0.00  0.00    +0.071 C 
ATOM     29  C   UNL     1      33.224  -8.708 -23.588  0.00  0.00    +0.058 C 
ATOM     30  C   UNL     1      32.956  -7.726 -21.057  0.00  0.00    +0.128 C 
ATOM     31  C   UNL     1      33.805  -7.517 -23.182  0.00  0.00    +0.103 C 
ATOM     32  H   UNL     1      33.225  -6.388 -19.473  0.00  0.00    +0.144 HD
ATOM     33  H   UNL     1      32.272  -7.746 -19.081  0.00  0.00    +0.144 HD
ENDBRANCH  24  27
ENDBRANCH   3  24
TORSDOF 5
ENDMDL
MODEL 4
REMARK VINA RESULT:     -11.4      2.807     11.113
REMARK  Name = 17748441
REMARK  5 active torsions:
REMARK  status: ('A' for Active; 'I' for Inactive)
REMARK    1  A    between atoms: C_2  and  N_10
REMARK    2  A    between atoms: C_3  and  O_24
REMARK    3  A    between atoms: C_12  and  C_16
REMARK    4  A    between atoms: C_16  and  C_18
REMARK    5  A    between atoms: O_24  and  C_27
REMARK                            x       y       z     vdW  Elec       q    Type
REMARK                         _______ _______ _______ _____ _____    ______ ____
ROOT
ATOM      1  F   UNL     1      30.715 -11.199 -21.407  0.00  0.00    -0.201 F 
ATOM      2  C   UNL     1      33.635 -12.989 -22.632  0.00  0.00    +0.054 C 
ATOM      3  C   UNL     1      32.301 -10.576 -23.058  0.00  0.00    +0.173 C 
ATOM      4  C   UNL     1      32.485 -12.689 -21.901  0.00  0.00    +0.047 C 
ATOM      5  C   UNL     1      34.117 -12.082 -23.576  0.00  0.00    +0.018 C 
ATOM      6  C   UNL     1      31.819 -11.482 -22.114  0.00  0.00    +0.176 C 
ATOM      7  C   UNL     1      33.450 -10.876 -23.789  0.00  0.00    +0.041 C 
ENDROOT
BRANCH   2  10
ATOM      8  O   UNL     1      34.919 -18.006 -24.296  0.00  0.00    -0.274 OA
ATOM      9  O   UNL     1      33.761 -15.465 -24.326  0.00  0.00    -0.252 OA
ATOM     10  N   UNL     1      34.312 -14.212 -22.417  0.00  0.00    -0.268 N 
ATOM     11  N   UNL     1      35.127 -16.349 -22.668  0.00  0.00    -0.239 N 
ATOM     12  C   UNL     1      35.367 -17.608 -23.224  0.00  0.00    +0.234 C 
ATOM     13  C   UNL     1      34.334 -15.337 -23.247  0.00  0.00    +0.310 C 
ATOM     14  H   UNL     1      34.829 -14.279 -21.581  0.00  0.00    +0.156 HD
ATOM     15  H   UNL     1      35.546 -16.151 -21.799  0.00  0.00    +0.159 HD
BRANCH  12  16
ATOM     16  C   UNL     1      36.264 -18.442 -22.329  0.00  0.00    +0.112 C 
BRANCH  16  18
ATOM     17  F   UNL     1      33.445 -22.223 -19.244  0.00  0.00    -0.204 F 
ATOM     18  C   UNL     1      35.510 -19.452 -21.504  0.00  0.00    -0.013 C 
ATOM     19  C   UNL     1      36.205 -20.339 -20.683  0.00  0.00    -0.001 C 
ATOM     20  C   UNL     1      34.117 -19.501 -21.562  0.00  0.00    -0.001 C 
ATOM     21  C   UNL     1      35.507 -21.275 -19.919  0.00  0.00    +0.029 C 
ATOM     22  C   UNL     1      33.420 -20.437 -20.799  0.00  0.00    +0.029 C 
ATOM     23  C   UNL     1      34.114 -21.324 -19.977  0.00  0.00    +0.140 C 
ENDBRANCH  16  18
ENDBRANCH  12  16
ENDBRANCH   2  10
BRANCH   3  24
ATOM     24  O   UNL     1      31.649  -9.399 -23.267  0.00  0.00    -0.451 OA
BRANCH  24  27
ATOM     25  N   UNL     1      32.292  -6.310 -20.526  0.00  0.00    -0.229 NA
ATOM     26  N   UNL     1      30.889  -4.887 -21.824  0.00  0.00    -0.343 N 
ATOM     27  C   UNL     1      31.862  -8.375 -22.359  0.00  0.00    +0.150 C 
ATOM     28  C   UNL     1      31.263  -7.136 -22.551  0.00  0.00    +0.071 C 
ATOM     29  C   UNL     1      32.676  -8.583 -21.252  0.00  0.00    +0.058 C 
ATOM     30  C   UNL     1      31.507  -6.145 -21.614  0.00  0.00    +0.128 C 
ATOM     31  C   UNL     1      32.858  -7.528 -20.372  0.00  0.00    +0.103 C 
ATOM     32  H   UNL     1      31.035  -4.154 -21.184  0.00  0.00    +0.144 HD
ATOM     33  H   UNL     1      30.314  -4.747 -22.611  0.00  0.00    +0.144 HD
ENDBRANCH  24  27
ENDBRANCH   3  24
TORSDOF 5
ENDMDL
MODEL 5
REMARK VINA RESULT:     -11.4      6.370     11.732
REMARK  Name = 17748441
REMARK  5 active torsions:
REMARK  status: ('A' for Active; 'I' for Inactive)
REMARK    1  A    between atoms: C_2  and  N_10
REMARK    2  A    between atoms: C_3  and  O_24
REMARK    3  A    between atoms: C_12  and  C_16
REMARK    4  A    between atoms: C_16  and  C_18
REMARK    5  A    between atoms: O_24  and  C_27
REMARK                            x       y       z     vdW  Elec       q    Type
REMARK                         _______ _______ _______ _____ _____    ______ ____
ROOT
ATOM      1  F   UNL     1      37.125 -21.522 -20.092  0.00  0.00    -0.201 F 
ATOM      2  C   UNL     1      33.633 -21.903 -19.147  0.00  0.00    +0.054 C 
ATOM      3  C   UNL     1      35.180 -20.525 -21.015  0.00  0.00    +0.173 C 
ATOM      4  C   UNL     1      35.020 -22.057 -19.154  0.00  0.00    +0.047 C 
ATOM      5  C   UNL     1      33.021 -21.059 -20.074  0.00  0.00    +0.018 C 
ATOM      6  C   UNL     1      35.793 -21.368 -20.089  0.00  0.00    +0.176 C 
ATOM      7  C   UNL     1      33.794 -20.370 -21.008  0.00  0.00    +0.041 C 
ENDROOT
BRANCH   2  10
ATOM      8  O   UNL     1      33.249 -24.630 -14.455  0.00  0.00    -0.274 OA
ATOM      9  O   UNL     1      34.414 -23.201 -16.554  0.00  0.00    -0.252 OA
ATOM     10  N   UNL     1      32.848 -22.601 -18.199  0.00  0.00    -0.268 N 
ATOM     11  N   UNL     1      32.176 -23.785 -16.346  0.00  0.00    -0.239 N 
ATOM     12  C   UNL     1      32.233 -24.463 -15.125  0.00  0.00    +0.234 C 
ATOM     13  C   UNL     1      33.270 -23.187 -17.002  0.00  0.00    +0.310 C 
ATOM     14  H   UNL     1      31.889 -22.683 -18.409  0.00  0.00    +0.156 HD
ATOM     15  H   UNL     1      31.296 -23.722 -16.786  0.00  0.00    +0.159 HD
BRANCH  12  16
ATOM     16  C   UNL     1      30.867 -24.980 -14.718  0.00  0.00    +0.112 C 
BRANCH  16  18
ATOM     17  F   UNL     1      26.613 -22.217 -17.172  0.00  0.00    -0.204 F 
ATOM     18  C   UNL     1      29.730 -24.241 -15.374  0.00  0.00    -0.013 C 
ATOM     19  C   UNL     1      29.377 -22.968 -14.930  0.00  0.00    -0.001 C 
ATOM     20  C   UNL     1      29.029 -24.832 -16.426  0.00  0.00    -0.001 C 
ATOM     21  C   UNL     1      28.324 -22.284 -15.537  0.00  0.00    +0.029 C 
ATOM     22  C   UNL     1      27.976 -24.148 -17.033  0.00  0.00    +0.029 C 
ATOM     23  C   UNL     1      27.623 -22.874 -16.589  0.00  0.00    +0.140 C 
ENDBRANCH  16  18
ENDBRANCH  12  16
ENDBRANCH   2  10
BRANCH   3  24
ATOM     24  O   UNL     1      35.935 -19.851 -21.926  0.00  0.00    -0.451 OA
BRANCH  24  27
ATOM     25  N   UNL     1      34.799 -15.942 -22.876  0.00  0.00    -0.229 NA
ATOM     26  N   UNL     1      34.501 -16.597 -25.148  0.00  0.00    -0.343 N 
ATOM     27  C   UNL     1      35.559 -18.556 -22.241  0.00  0.00    +0.150 C 
ATOM     28  C   UNL     1      35.217 -18.226 -23.548  0.00  0.00    +0.071 C 
ATOM     29  C   UNL     1      35.521 -17.580 -21.252  0.00  0.00    +0.058 C 
ATOM     30  C   UNL     1      34.847 -16.917 -23.811  0.00  0.00    +0.128 C 
ATOM     31  C   UNL     1      35.138 -16.300 -21.617  0.00  0.00    +0.103 C 
ATOM     32  H   UNL     1      34.233 -15.679 -25.380  0.00  0.00    +0.144 HD
ATOM     33  H   UNL     1      34.530 -17.293 -25.844  0.00  0.00    +0.144 HD
ENDBRANCH  24  27
ENDBRANCH   3  24
TORSDOF 5
ENDMDL
MODEL 6
REMARK VINA RESULT:     -11.2      2.837     11.201
REMARK  Name = 17748441
REMARK  5 active torsions:
REMARK  status: ('A' for Active; 'I' for Inactive)
REMARK    1  A    between atoms: C_2  and  N_10
REMARK    2  A    between atoms: C_3  and  O_24
REMARK    3  A    between atoms: C_12  and  C_16
REMARK    4  A    between atoms: C_16  and  C_18
REMARK    5  A    between atoms: O_24  and  C_27
REMARK                            x       y       z     vdW  Elec       q    Type
REMARK                         _______ _______ _______ _____ _____    ______ ____
ROOT
ATOM      1  F   UNL     1      30.880 -10.820 -21.998  0.00  0.00    -0.201 F 
ATOM      2  C   UNL     1      33.539 -12.940 -23.288  0.00  0.00    +0.054 C 
ATOM      3  C   UNL     1      32.625 -10.315 -23.524  0.00  0.00    +0.173 C 
ATOM      4  C   UNL     1      32.416 -12.525 -22.572  0.00  0.00    +0.047 C 
ATOM      5  C   UNL     1      34.204 -12.041 -24.123  0.00  0.00    +0.018 C 
ATOM      6  C   UNL     1      31.959 -11.213 -22.690  0.00  0.00    +0.176 C 
ATOM      7  C   UNL     1      33.747 -10.729 -24.241  0.00  0.00    +0.041 C 
ENDROOT
BRANCH   2  10
ATOM      8  O   UNL     1      35.620 -16.940 -20.245  0.00  0.00    -0.274 OA
ATOM      9  O   UNL     1      34.625 -14.416 -20.910  0.00  0.00    -0.252 OA
ATOM     10  N   UNL     1      34.003 -14.271 -23.170  0.00  0.00    -0.268 N 
ATOM     11  N   UNL     1      34.856 -16.236 -22.333  0.00  0.00    -0.239 N 
ATOM     12  C   UNL     1      35.389 -17.161 -21.431  0.00  0.00    +0.234 C 
ATOM     13  C   UNL     1      34.501 -14.907 -22.029  0.00  0.00    +0.310 C 
ATOM     14  H   UNL     1      33.972 -14.814 -23.991  0.00  0.00    +0.156 HD
ATOM     15  H   UNL     1      34.719 -16.539 -23.261  0.00  0.00    +0.159 HD
BRANCH  12  16
ATOM     16  C   UNL     1      35.655 -18.495 -22.102  0.00  0.00    +0.112 C 
BRANCH  16  18
ATOM     17  F   UNL     1      34.654 -22.914 -18.752  0.00  0.00    -0.204 F 
ATOM     18  C   UNL     1      35.387 -19.676 -21.207  0.00  0.00    -0.013 C 
ATOM     19  C   UNL     1      34.077 -20.098 -20.982  0.00  0.00    -0.001 C 
ATOM     20  C   UNL     1      36.450 -20.349 -20.603  0.00  0.00    -0.001 C 
ATOM     21  C   UNL     1      33.829 -21.192 -20.153  0.00  0.00    +0.029 C 
ATOM     22  C   UNL     1      36.202 -21.442 -19.773  0.00  0.00    +0.029 C 
ATOM     23  C   UNL     1      34.892 -21.864 -19.548  0.00  0.00    +0.140 C 
ENDBRANCH  16  18
ENDBRANCH  12  16
ENDBRANCH   2  10
BRANCH   3  24
ATOM     24  O   UNL     1      32.177  -9.035 -23.641  0.00  0.00    -0.451 OA
BRANCH  24  27
ATOM     25  N   UNL     1      32.336  -6.607 -20.242  0.00  0.00    -0.229 NA
ATOM     26  N   UNL     1      30.764  -5.124 -21.247  0.00  0.00    -0.343 N 
ATOM     27  C   UNL     1      32.230  -8.230 -22.515  0.00  0.00    +0.150 C 
ATOM     28  C   UNL     1      31.463  -7.072 -22.448  0.00  0.00    +0.071 C 
ATOM     29  C   UNL     1      33.049  -8.577 -21.447  0.00  0.00    +0.058 C 
ATOM     30  C   UNL     1      31.551  -6.301 -21.300  0.00  0.00    +0.128 C 
ATOM     31  C   UNL     1      33.066  -7.740 -20.343  0.00  0.00    +0.103 C 
ATOM     32  H   UNL     1      30.795  -4.547 -20.450  0.00  0.00    +0.144 HD
ATOM     33  H   UNL     1      30.186  -4.884 -22.007  0.00  0.00    +0.144 HD
ENDBRANCH  24  27
ENDBRANCH   3  24
TORSDOF 5
ENDMDL
MODEL 7
REMARK VINA RESULT:     -10.8      4.834     11.507
REMARK  Name = 17748441
REMARK  5 active torsions:
REMARK  status: ('A' for Active; 'I' for Inactive)
REMARK    1  A    between atoms: C_2  and  N_10
REMARK    2  A    between atoms: C_3  and  O_24
REMARK    3  A    between atoms: C_12  and  C_16
REMARK    4  A    between atoms: C_16  and  C_18
REMARK    5  A    between atoms: O_24  and  C_27
REMARK                            x       y       z     vdW  Elec       q    Type
REMARK                         _______ _______ _______ _____ _____    ______ ____
ROOT
ATOM      1  F   UNL     1      33.427 -19.062 -24.641  0.00  0.00    -0.201 F 
ATOM      2  C   UNL     1      35.004 -19.743 -21.435  0.00  0.00    +0.054 C 
ATOM      3  C   UNL     1      35.247 -17.972 -23.577  0.00  0.00    +0.173 C 
ATOM      4  C   UNL     1      34.140 -19.845 -22.525  0.00  0.00    +0.047 C 
ATOM      5  C   UNL     1      35.989 -18.755 -21.416  0.00  0.00    +0.018 C 
ATOM      6  C   UNL     1      34.262 -18.959 -23.596  0.00  0.00    +0.176 C 
ATOM      7  C   UNL     1      36.111 -17.871 -22.487  0.00  0.00    +0.041 C 
ENDROOT
BRANCH   2  10
ATOM      8  O   UNL     1      31.879 -22.739 -18.140  0.00  0.00    -0.274 OA
ATOM      9  O   UNL     1      32.563 -20.989 -20.207  0.00  0.00    -0.252 OA
ATOM     10  N   UNL     1      34.882 -20.640 -20.348  0.00  0.00    -0.268 N 
ATOM     11  N   UNL     1      34.023 -22.039 -18.737  0.00  0.00    -0.239 N 
ATOM     12  C   UNL     1      33.096 -22.753 -17.973  0.00  0.00    +0.234 C 
ATOM     13  C   UNL     1      33.711 -21.190 -19.818  0.00  0.00    +0.310 C 
ATOM     14  H   UNL     1      35.724 -20.909 -19.913  0.00  0.00    +0.156 HD
ATOM     15  H   UNL     1      34.974 -22.137 -18.500  0.00  0.00    +0.159 HD
BRANCH  12  16
ATOM     16  C   UNL     1      33.783 -23.564 -16.891  0.00  0.00    +0.112 C 
BRANCH  16  18
ATOM     17  F   UNL     1      30.478 -24.613 -12.450  0.00  0.00    -0.204 F 
ATOM     18  C   UNL     1      32.900 -23.845 -15.704  0.00  0.00    -0.013 C 
ATOM     19  C   UNL     1      31.539 -23.548 -15.763  0.00  0.00    -0.001 C 
ATOM     20  C   UNL     1      33.443 -24.401 -14.546  0.00  0.00    -0.001 C 
ATOM     21  C   UNL     1      30.720 -23.808 -14.663  0.00  0.00    +0.029 C 
ATOM     22  C   UNL     1      32.625 -24.660 -13.446  0.00  0.00    +0.029 C 
ATOM     23  C   UNL     1      31.263 -24.364 -13.505  0.00  0.00    +0.140 C 
ENDBRANCH  16  18
ENDBRANCH  12  16
ENDBRANCH   2  10
BRANCH   3  24
ATOM     24  O   UNL     1      35.367 -17.110 -24.623  0.00  0.00    -0.451 OA
BRANCH  24  27
ATOM     25  N   UNL     1      32.841 -13.780 -24.696  0.00  0.00    -0.229 NA
ATOM     26  N   UNL     1      33.400 -13.325 -22.425  0.00  0.00    -0.343 N 
ATOM     27  C   UNL     1      34.530 -16.007 -24.647  0.00  0.00    +0.150 C 
ATOM     28  C   UNL     1      34.385 -15.215 -23.513  0.00  0.00    +0.071 C 
ATOM     29  C   UNL     1      33.831 -15.686 -25.805  0.00  0.00    +0.058 C 
ATOM     30  C   UNL     1      33.536 -14.123 -23.589  0.00  0.00    +0.128 C 
ATOM     31  C   UNL     1      33.006 -14.573 -25.778  0.00  0.00    +0.103 C 
ATOM     32  H   UNL     1      32.807 -12.540 -22.433  0.00  0.00    +0.144 HD
ATOM     33  H   UNL     1      33.898 -13.558 -21.608  0.00  0.00    +0.144 HD
ENDBRANCH  24  27
ENDBRANCH   3  24
TORSDOF 5
ENDMDL
MODEL 8
REMARK VINA RESULT:     -10.8      5.218     11.493
REMARK  Name = 17748441
REMARK  5 active torsions:
REMARK  status: ('A' for Active; 'I' for Inactive)
REMARK    1  A    between atoms: C_2  and  N_10
REMARK    2  A    between atoms: C_3  and  O_24
REMARK    3  A    between atoms: C_12  and  C_16
REMARK    4  A    between atoms: C_16  and  C_18
REMARK    5  A    between atoms: O_24  and  C_27
REMARK                            x       y       z     vdW  Elec       q    Type
REMARK                         _______ _______ _______ _____ _____    ______ ____
ROOT
ATOM      1  F   UNL     1      33.594 -19.373 -23.143  0.00  0.00    -0.201 F 
ATOM      2  C   UNL     1      35.380 -20.709 -20.271  0.00  0.00    +0.054 C 
ATOM      3  C   UNL     1      35.780 -18.896 -22.352  0.00  0.00    +0.173 C 
ATOM      4  C   UNL     1      34.370 -20.488 -21.207  0.00  0.00    +0.047 C 
ATOM      5  C   UNL     1      36.590 -20.024 -20.376  0.00  0.00    +0.018 C 
ATOM      6  C   UNL     1      34.570 -19.581 -22.248  0.00  0.00    +0.176 C 
ATOM      7  C   UNL     1      36.790 -19.117 -21.417  0.00  0.00    +0.041 C 
ENDROOT
BRANCH   2  10
ATOM      8  O   UNL     1      37.026 -22.917 -15.579  0.00  0.00    -0.274 OA
ATOM      9  O   UNL     1      37.038 -21.262 -17.829  0.00  0.00    -0.252 OA
ATOM     10  N   UNL     1      35.178 -21.629 -19.215  0.00  0.00    -0.268 N 
ATOM     11  N   UNL     1      35.434 -22.850 -17.283  0.00  0.00    -0.239 N 
ATOM     12  C   UNL     1      35.982 -23.320 -16.086  0.00  0.00    +0.234 C 
ATOM     13  C   UNL     1      35.990 -21.843 -18.097  0.00  0.00    +0.310 C 
ATOM     14  H   UNL     1      34.367 -22.187 -19.276  0.00  0.00    +0.156 HD
ATOM     15  H   UNL     1      34.589 -23.258 -17.583  0.00  0.00    +0.159 HD
BRANCH  12  16
ATOM     16  C   UNL     1      35.119 -24.408 -15.475  0.00  0.00    +0.112 C 
BRANCH  16  18
ATOM     17  F   UNL     1      29.804 -22.780 -14.554  0.00  0.00    -0.204 F 
ATOM     18  C   UNL     1      33.698 -23.973 -15.229  0.00  0.00    -0.013 C 
ATOM     19  C   UNL     1      32.857 -23.697 -16.306  0.00  0.00    -0.001 C 
ATOM     20  C   UNL     1      33.223 -23.846 -13.923  0.00  0.00    -0.001 C 
ATOM     21  C   UNL     1      31.541 -23.294 -16.078  0.00  0.00    +0.029 C 
ATOM     22  C   UNL     1      31.908 -23.442 -13.695  0.00  0.00    +0.029 C 
ATOM     23  C   UNL     1      31.066 -23.167 -14.772  0.00  0.00    +0.140 C 
ENDBRANCH  16  18
ENDBRANCH  12  16
ENDBRANCH   2  10
BRANCH   3  24
ATOM     24  O   UNL     1      35.976 -18.013 -23.369  0.00  0.00    -0.451 OA
BRANCH  24  27
ATOM     25  N   UNL     1      33.700 -14.507 -23.359  0.00  0.00    -0.229 NA
ATOM     26  N   UNL     1      33.001 -14.972 -25.589  0.00  0.00    -0.343 N 
ATOM     27  C   UNL     1      35.222 -16.851 -23.366  0.00  0.00    +0.150 C 
ATOM     28  C   UNL     1      34.485 -16.494 -24.490  0.00  0.00    +0.071 C 
ATOM     29  C   UNL     1      35.199 -16.037 -22.240  0.00  0.00    +0.058 C 
ATOM     30  C   UNL     1      33.747 -15.322 -24.436  0.00  0.00    +0.128 C 
ATOM     31  C   UNL     1      34.429 -14.886 -22.286  0.00  0.00    +0.103 C 
ATOM     32  H   UNL     1      32.462 -14.149 -25.595  0.00  0.00    +0.144 HD
ATOM     33  H   UNL     1      33.021 -15.553 -26.384  0.00  0.00    +0.144 HD
ENDBRANCH  24  27
ENDBRANCH   3  24
TORSDOF 5
ENDMDL
MODEL 9
REMARK VINA RESULT:     -10.7      5.285     12.729
REMARK  Name = 17748441
REMARK  5 active torsions:
REMARK  status: ('A' for Active; 'I' for Inactive)
REMARK    1  A    between atoms: C_2  and  N_10
REMARK    2  A    between atoms: C_3  and  O_24
REMARK    3  A    between atoms: C_12  and  C_16
REMARK    4  A    between atoms: C_16  and  C_18
REMARK    5  A    between atoms: O_24  and  C_27
REMARK                            x       y       z     vdW  Elec       q    Type
REMARK                         _______ _______ _______ _____ _____    ______ ____
ROOT
ATOM      1  F   UNL     1      33.307 -19.790 -22.582  0.00  0.00    -0.201 F 
ATOM      2  C   UNL     1      36.359 -19.982 -20.615  0.00  0.00    +0.054 C 
ATOM      3  C   UNL     1      35.420 -18.776 -22.948  0.00  0.00    +0.173 C 
ATOM      4  C   UNL     1      35.043 -20.190 -21.026  0.00  0.00    +0.047 C 
ATOM      5  C   UNL     1      37.206 -19.171 -21.371  0.00  0.00    +0.018 C 
ATOM      6  C   UNL     1      34.573 -19.587 -22.193  0.00  0.00    +0.176 C 
ATOM      7  C   UNL     1      36.736 -18.568 -22.538  0.00  0.00    +0.041 C 
ENDROOT
BRANCH   2  10
ATOM      8  O   UNL     1      35.674 -23.536 -16.554  0.00  0.00    -0.274 OA
ATOM      9  O   UNL     1      35.117 -22.097 -18.882  0.00  0.00    -0.252 OA
ATOM     10  N   UNL     1      36.837 -20.593 -19.432  0.00  0.00    -0.268 N 
ATOM     11  N   UNL     1      37.019 -21.919 -17.561  0.00  0.00    -0.239 N 
ATOM     12  C   UNL     1      36.703 -22.867 -16.584  0.00  0.00    +0.234 C 
ATOM     13  C   UNL     1      36.210 -21.579 -18.663  0.00  0.00    +0.310 C 
ATOM     14  H   UNL     1      37.716 -20.287 -19.111  0.00  0.00    +0.156 HD
ATOM     15  H   UNL     1      37.880 -21.448 -17.471  0.00  0.00    +0.159 HD
BRANCH  12  16
ATOM     16  C   UNL     1      37.804 -22.975 -15.545  0.00  0.00    +0.112 C 
BRANCH  16  18
ATOM     17  F   UNL     1      37.014 -27.185 -11.884  0.00  0.00    -0.204 F 
ATOM     18  C   UNL     1      37.592 -24.100 -14.567  0.00  0.00    -0.013 C 
ATOM     19  C   UNL     1      36.773 -23.912 -13.455  0.00  0.00    -0.001 C 
ATOM     20  C   UNL     1      38.217 -25.330 -14.773  0.00  0.00    -0.001 C 
ATOM     21  C   UNL     1      36.577 -24.954 -12.548  0.00  0.00    +0.029 C 
ATOM     22  C   UNL     1      38.023 -26.372 -13.866  0.00  0.00    +0.029 C 
ATOM     23  C   UNL     1      37.202 -26.185 -12.754  0.00  0.00    +0.140 C 
ENDBRANCH  16  18
ENDBRANCH  12  16
ENDBRANCH   2  10
BRANCH   3  24
ATOM     24  O   UNL     1      34.963 -18.189 -24.088  0.00  0.00    -0.451 OA
BRANCH  24  27
ATOM     25  N   UNL     1      33.791 -14.183 -23.873  0.00  0.00    -0.229 NA
ATOM     26  N   UNL     1      32.695 -14.406 -25.977  0.00  0.00    -0.343 N 
ATOM     27  C   UNL     1      34.575 -16.862 -24.017  0.00  0.00    +0.150 C 
ATOM     28  C   UNL     1      33.824 -16.298 -25.043  0.00  0.00    +0.071 C 
ATOM     29  C   UNL     1      34.934 -16.087 -22.920  0.00  0.00    +0.058 C 
ATOM     30  C   UNL     1      33.461 -14.966 -24.923  0.00  0.00    +0.128 C 
ATOM     31  C   UNL     1      34.521 -14.765 -22.896  0.00  0.00    +0.103 C 
ATOM     32  H   UNL     1      32.415 -13.463 -25.934  0.00  0.00    +0.144 HD
ATOM     33  H   UNL     1      32.444 -14.960 -26.751  0.00  0.00    +0.144 HD
ENDBRANCH  24  27
ENDBRANCH   3  24
TORSDOF 5
ENDMDL
