MODEL 1
REMARK VINA RESULT:     -11.6      0.000      0.000
REMARK  Name = 46937134
REMARK  9 active torsions:
REMARK  status: ('A' for Active; 'I' for Inactive)
REMARK    1  A    between atoms: N_2  and  C_15
REMARK    2  A    between atoms: N_6  and  C_29
REMARK    3  A    between atoms: C_16  and  O_19
REMARK    4  A    between atoms: C_18  and  C_21
REMARK    5  A    between atoms: C_21  and  O_22
REMARK    6  A    between atoms: O_22  and  P_23
REMARK    7  A    between atoms: P_23  and  O_25
REMARK    8  A    between atoms: P_23  and  O_27
REMARK    9  A    between atoms: C_29  and  C_30
REMARK                            x       y       z     vdW  Elec       q    Type
REMARK                         _______ _______ _______ _____ _____    ______ ____
ROOT
ATOM      1  O   UNL     1      38.581 -23.718 -15.001  0.00  0.00    -0.208 OA
ATOM      2  N   UNL     1      34.427 -24.635 -13.477  0.00  0.00    -0.209 NA
ATOM      3  N   UNL     1      34.580 -23.610 -15.678  0.00  0.00    -0.279 N 
ATOM      4  N   UNL     1      36.625 -24.725 -13.039  0.00  0.00    -0.241 NA
ATOM      5  N   UNL     1      36.823 -23.158 -16.404  0.00  0.00    -0.301 NA
ATOM      6  N   UNL     1      34.962 -22.647 -17.718  0.00  0.00    -0.292 N 
ATOM      7  C   UNL     1      35.075 -24.110 -14.542  0.00  0.00    +0.191 C 
ATOM      8  C   UNL     1      35.413 -24.996 -12.587  0.00  0.00    +0.205 C 
ATOM      9  C   UNL     1      36.410 -24.169 -14.268  0.00  0.00    +0.183 C 
ATOM     10  C   UNL     1      35.517 -23.138 -16.594  0.00  0.00    +0.248 C 
ATOM     11  C   UNL     1      37.378 -23.675 -15.226  0.00  0.00    +0.224 C 
ATOM     12  H   UNL     1      33.612 -23.578 -15.856  0.00  0.00    +0.152 HD
ATOM     13  H   UNL     1      33.982 -22.658 -17.802  0.00  0.00    +0.151 HD
ENDROOT
BRANCH   2  15
ATOM     14  O   UNL     1      32.301 -25.362 -14.443  0.00  0.00    -0.338 OA
ATOM     15  C   UNL     1      32.941 -24.801 -13.281  0.00  0.00    +0.182 C 
ATOM     16  C   UNL     1      30.820 -23.781 -13.461  0.00  0.00    +0.144 C 
ATOM     17  C   UNL     1      32.225 -23.486 -12.990  0.00  0.00    +0.079 C 
ATOM     18  C   UNL     1      31.046 -24.687 -14.665  0.00  0.00    +0.174 C 
BRANCH  16  19
ATOM     19  O   UNL     1      30.142 -24.506 -12.438  0.00  0.00    -0.382 OA
ATOM     20  H   UNL     1      29.291 -24.080 -12.248  0.00  0.00    +0.210 HD
ENDBRANCH  16  19
BRANCH  18  21
ATOM     21  C   UNL     1      31.155 -23.912 -15.972  0.00  0.00    +0.186 C 
BRANCH  21  22
ATOM     22  O   UNL     1      30.109 -22.957 -16.021  0.00  0.00    -0.271 OA
BRANCH  22  23
ATOM     23  P   UNL     1      28.633 -23.449 -16.468  0.00  0.00    +0.473 P 
ATOM     24  O   UNL     1      28.596 -24.765 -17.189  0.00  0.00    -0.227 OA
BRANCH  23  25
ATOM     25  O   UNL     1      27.802 -23.406 -15.082  0.00  0.00    -0.303 OA
ATOM     26  H   UNL     1      27.153 -22.686 -15.116  0.00  0.00    +0.222 HD
ENDBRANCH  23  25
BRANCH  23  27
ATOM     27  O   UNL     1      28.044 -22.190 -17.295  0.00  0.00    -0.303 OA
ATOM     28  H   UNL     1      28.750 -21.794 -17.828  0.00  0.00    +0.222 HD
ENDBRANCH  23  27
ENDBRANCH  22  23
ENDBRANCH  21  22
ENDBRANCH  18  21
ENDBRANCH   2  15
BRANCH   6  29
ATOM     29  C   UNL     1      35.741 -22.104 -18.807  0.00  0.00    +0.117 C 
BRANCH  29  30
ATOM     30  C   UNL     1      34.874 -21.313 -19.737  0.00  0.00    -0.003 C 
ATOM     31  C   UNL     1      35.403 -20.350 -20.611  0.00  0.00    -0.002 C 
ATOM     32  C   UNL     1      34.530 -19.635 -21.465  0.00  0.00    -0.000 C 
ATOM     33  C   UNL     1      33.503 -21.570 -19.708  0.00  0.00    -0.003 C 
ATOM     34  C   UNL     1      36.780 -20.077 -20.654  0.00  0.00    -0.000 C 
ATOM     35  C   UNL     1      33.153 -19.906 -21.421  0.00  0.00    -0.000 C 
ATOM     36  C   UNL     1      32.644 -20.868 -20.548  0.00  0.00    -0.000 C 
ATOM     37  C   UNL     1      35.059 -18.670 -22.338  0.00  0.00    -0.000 C 
ATOM     38  C   UNL     1      37.289 -19.116 -21.527  0.00  0.00    -0.000 C 
ATOM     39  C   UNL     1      36.430 -18.414 -22.368  0.00  0.00    -0.000 C 
ENDBRANCH  29  30
ENDBRANCH   6  29
TORSDOF 9
ENDMDL
MODEL 2
REMARK VINA RESULT:     -10.9      3.513      6.386
REMARK  Name = 46937134
REMARK  9 active torsions:
REMARK  status: ('A' for Active; 'I' for Inactive)
REMARK    1  A    between atoms: N_2  and  C_15
REMARK    2  A    between atoms: N_6  and  C_29
REMARK    3  A    between atoms: C_16  and  O_19
REMARK    4  A    between atoms: C_18  and  C_21
REMARK    5  A    between atoms: C_21  and  O_22
REMARK    6  A    between atoms: O_22  and  P_23
REMARK    7  A    between atoms: P_23  and  O_25
REMARK    8  A    between atoms: P_23  and  O_27
REMARK    9  A    between atoms: C_29  and  C_30
REMARK                            x       y       z     vdW  Elec       q    Type
REMARK                         _______ _______ _______ _____ _____    ______ ____
ROOT
ATOM      1  O   UNL     1      31.819 -20.572 -21.026  0.00  0.00    -0.208 OA
ATOM      2  N   UNL     1      34.766 -22.486 -18.184  0.00  0.00    -0.209 NA
ATOM      3  N   UNL     1      35.689 -21.007 -19.881  0.00  0.00    -0.279 N 
ATOM      4  N   UNL     1      32.608 -22.291 -18.764  0.00  0.00    -0.241 NA
ATOM      5  N   UNL     1      34.052 -20.038 -21.345  0.00  0.00    -0.301 NA
ATOM      6  N   UNL     1      36.332 -19.584 -21.553  0.00  0.00    -0.292 N 
ATOM      7  C   UNL     1      34.704 -21.644 -19.241  0.00  0.00    +0.191 C 
ATOM      8  C   UNL     1      33.464 -22.854 -17.930  0.00  0.00    +0.205 C 
ATOM      9  C   UNL     1      33.390 -21.531 -19.587  0.00  0.00    +0.183 C 
ATOM     10  C   UNL     1      35.300 -20.200 -20.947  0.00  0.00    +0.248 C 
ATOM     11  C   UNL     1      32.993 -20.689 -20.699  0.00  0.00    +0.224 C 
ATOM     12  H   UNL     1      36.633 -21.103 -19.614  0.00  0.00    +0.152 HD
ATOM     13  H   UNL     1      37.241 -19.744 -21.211  0.00  0.00    +0.151 HD
ENDROOT
BRANCH   2  15
ATOM     14  O   UNL     1      35.674 -23.948 -16.446  0.00  0.00    -0.338 OA
ATOM     15  C   UNL     1      35.989 -22.941 -17.427  0.00  0.00    +0.182 C 
ATOM     16  C   UNL     1      37.392 -22.557 -15.569  0.00  0.00    +0.144 C 
ATOM     17  C   UNL     1      36.682 -21.810 -16.675  0.00  0.00    +0.079 C 
ATOM     18  C   UNL     1      36.424 -23.687 -15.242  0.00  0.00    +0.174 C 
BRANCH  16  19
ATOM     19  O   UNL     1      38.601 -23.100 -16.094  0.00  0.00    -0.382 OA
ATOM     20  H   UNL     1      38.412 -23.945 -16.534  0.00  0.00    +0.210 HD
ENDBRANCH  16  19
BRANCH  18  21
ATOM     21  C   UNL     1      35.435 -23.316 -14.145  0.00  0.00    +0.186 C 
BRANCH  21  22
ATOM     22  O   UNL     1      36.071 -23.481 -12.888  0.00  0.00    -0.271 OA
BRANCH  22  23
ATOM     23  P   UNL     1      35.556 -24.666 -11.912  0.00  0.00    +0.473 P 
ATOM     24  O   UNL     1      35.632 -24.356 -10.446  0.00  0.00    -0.227 OA
BRANCH  23  25
ATOM     25  O   UNL     1      34.070 -24.973 -12.469  0.00  0.00    -0.303 OA
ATOM     26  H   UNL     1      33.430 -24.894 -11.744  0.00  0.00    +0.222 HD
ENDBRANCH  23  25
BRANCH  23  27
ATOM     27  O   UNL     1      36.408 -25.954 -12.392  0.00  0.00    -0.303 OA
ATOM     28  H   UNL     1      35.848 -26.744 -12.353  0.00  0.00    +0.222 HD
ENDBRANCH  23  27
ENDBRANCH  22  23
ENDBRANCH  21  22
ENDBRANCH  18  21
ENDBRANCH   2  15
BRANCH   6  29
ATOM     29  C   UNL     1      36.166 -18.698 -22.682  0.00  0.00    +0.117 C 
BRANCH  29  30
ATOM     30  C   UNL     1      35.538 -17.407 -22.256  0.00  0.00    -0.003 C 
ATOM     31  C   UNL     1      34.881 -16.562 -23.166  0.00  0.00    -0.002 C 
ATOM     32  C   UNL     1      34.309 -15.354 -22.701  0.00  0.00    -0.000 C 
ATOM     33  C   UNL     1      35.626 -17.067 -20.907  0.00  0.00    -0.003 C 
ATOM     34  C   UNL     1      34.782 -16.888 -24.528  0.00  0.00    -0.000 C 
ATOM     35  C   UNL     1      34.409 -15.028 -21.339  0.00  0.00    -0.000 C 
ATOM     36  C   UNL     1      35.063 -15.880 -20.448  0.00  0.00    -0.000 C 
ATOM     37  C   UNL     1      33.653 -14.509 -23.611  0.00  0.00    -0.000 C 
ATOM     38  C   UNL     1      34.128 -16.037 -25.419  0.00  0.00    -0.000 C 
ATOM     39  C   UNL     1      33.564 -14.850 -24.960  0.00  0.00    -0.000 C 
ENDBRANCH  29  30
ENDBRANCH   6  29
TORSDOF 9
ENDMDL
MODEL 3
REMARK VINA RESULT:     -10.7      2.815      5.796
REMARK  Name = 46937134
REMARK  9 active torsions:
REMARK  status: ('A' for Active; 'I' for Inactive)
REMARK    1  A    between atoms: N_2  and  C_15
REMARK    2  A    between atoms: N_6  and  C_29
REMARK    3  A    between atoms: C_16  and  O_19
REMARK    4  A    between atoms: C_18  and  C_21
REMARK    5  A    between atoms: C_21  and  O_22
REMARK    6  A    between atoms: O_22  and  P_23
REMARK    7  A    between atoms: P_23  and  O_25
REMARK    8  A    between atoms: P_23  and  O_27
REMARK    9  A    between atoms: C_29  and  C_30
REMARK                            x       y       z     vdW  Elec       q    Type
REMARK                         _______ _______ _______ _____ _____    ______ ____
ROOT
ATOM      1  O   UNL     1      30.763 -22.504 -17.410  0.00  0.00    -0.208 OA
ATOM      2  N   UNL     1      34.801 -24.001 -16.038  0.00  0.00    -0.209 NA
ATOM      3  N   UNL     1      34.753 -22.744 -18.120  0.00  0.00    -0.279 N 
ATOM      4  N   UNL     1      32.605 -23.907 -15.585  0.00  0.00    -0.241 NA
ATOM      5  N   UNL     1      32.568 -21.992 -18.771  0.00  0.00    -0.301 NA
ATOM      6  N   UNL     1      34.470 -21.542 -20.047  0.00  0.00    -0.292 N 
ATOM      7  C   UNL     1      34.210 -23.304 -17.036  0.00  0.00    +0.191 C 
ATOM      8  C   UNL     1      33.783 -24.347 -15.178  0.00  0.00    +0.205 C 
ATOM      9  C   UNL     1      32.876 -23.251 -16.753  0.00  0.00    +0.183 C 
ATOM     10  C   UNL     1      33.869 -22.087 -18.973  0.00  0.00    +0.248 C 
ATOM     11  C   UNL     1      31.963 -22.565 -17.645  0.00  0.00    +0.224 C 
ATOM     12  H   UNL     1      35.719 -22.794 -18.306  0.00  0.00    +0.152 HD
ATOM     13  H   UNL     1      35.444 -21.648 -20.144  0.00  0.00    +0.151 HD
ENDROOT
BRANCH   2  15
ATOM     14  O   UNL     1      36.453 -25.629 -15.264  0.00  0.00    -0.338 OA
ATOM     15  C   UNL     1      36.261 -24.341 -15.879  0.00  0.00    +0.182 C 
ATOM     16  C   UNL     1      38.168 -24.170 -14.498  0.00  0.00    +0.144 C 
ATOM     17  C   UNL     1      37.019 -23.337 -15.016  0.00  0.00    +0.079 C 
ATOM     18  C   UNL     1      37.539 -25.547 -14.319  0.00  0.00    +0.174 C 
BRANCH  16  19
ATOM     19  O   UNL     1      39.173 -24.232 -15.507  0.00  0.00    -0.382 OA
ATOM     20  H   UNL     1      39.863 -24.859 -15.239  0.00  0.00    +0.210 HD
ENDBRANCH  16  19
BRANCH  18  21
ATOM     21  C   UNL     1      36.965 -25.754 -12.924  0.00  0.00    +0.186 C 
BRANCH  21  22
ATOM     22  O   UNL     1      37.557 -24.813 -12.046  0.00  0.00    -0.271 OA
BRANCH  22  23
ATOM     23  P   UNL     1      36.589 -23.918 -11.105  0.00  0.00    +0.473 P 
ATOM     24  O   UNL     1      36.258 -24.528  -9.775  0.00  0.00    -0.227 OA
BRANCH  23  25
ATOM     25  O   UNL     1      37.364 -22.501 -11.033  0.00  0.00    -0.303 OA
ATOM     26  H   UNL     1      38.322 -22.654 -11.080  0.00  0.00    +0.222 HD
ENDBRANCH  23  25
BRANCH  23  27
ATOM     27  O   UNL     1      35.319 -23.600 -12.055  0.00  0.00    -0.303 OA
ATOM     28  H   UNL     1      34.500 -23.798 -11.576  0.00  0.00    +0.222 HD
ENDBRANCH  23  27
ENDBRANCH  22  23
ENDBRANCH  21  22
ENDBRANCH  18  21
ENDBRANCH   2  15
BRANCH   6  29
ATOM     29  C   UNL     1      33.751 -20.812 -21.065  0.00  0.00    +0.117 C 
BRANCH  29  30
ATOM     30  C   UNL     1      34.585 -19.690 -21.603  0.00  0.00    -0.003 C 
ATOM     31  C   UNL     1      34.400 -19.179 -22.898  0.00  0.00    -0.002 C 
ATOM     32  C   UNL     1      35.222 -18.118 -23.347  0.00  0.00    -0.000 C 
ATOM     33  C   UNL     1      35.564 -19.161 -20.762  0.00  0.00    -0.003 C 
ATOM     34  C   UNL     1      33.420 -19.699 -23.758  0.00  0.00    -0.000 C 
ATOM     35  C   UNL     1      36.203 -17.599 -22.488  0.00  0.00    -0.000 C 
ATOM     36  C   UNL     1      36.371 -18.117 -21.203  0.00  0.00    -0.000 C 
ATOM     37  C   UNL     1      35.038 -17.608 -24.643  0.00  0.00    -0.000 C 
ATOM     38  C   UNL     1      33.251 -19.181 -25.042  0.00  0.00    -0.000 C 
ATOM     39  C   UNL     1      34.058 -18.137 -25.483  0.00  0.00    -0.000 C 
ENDBRANCH  29  30
ENDBRANCH   6  29
TORSDOF 9
ENDMDL
MODEL 4
REMARK VINA RESULT:     -10.5      2.699      5.973
REMARK  Name = 46937134
REMARK  9 active torsions:
REMARK  status: ('A' for Active; 'I' for Inactive)
REMARK    1  A    between atoms: N_2  and  C_15
REMARK    2  A    between atoms: N_6  and  C_29
REMARK    3  A    between atoms: C_16  and  O_19
REMARK    4  A    between atoms: C_18  and  C_21
REMARK    5  A    between atoms: C_21  and  O_22
REMARK    6  A    between atoms: O_22  and  P_23
REMARK    7  A    between atoms: P_23  and  O_25
REMARK    8  A    between atoms: P_23  and  O_27
REMARK    9  A    between atoms: C_29  and  C_30
REMARK                            x       y       z     vdW  Elec       q    Type
REMARK                         _______ _______ _______ _____ _____    ______ ____
ROOT
ATOM      1  O   UNL     1      30.604 -24.156 -16.101  0.00  0.00    -0.208 OA
ATOM      2  N   UNL     1      34.051 -24.192 -13.178  0.00  0.00    -0.209 NA
ATOM      3  N   UNL     1      34.538 -23.411 -15.429  0.00  0.00    -0.279 N 
ATOM      4  N   UNL     1      31.870 -24.626 -13.480  0.00  0.00    -0.241 NA
ATOM      5  N   UNL     1      32.649 -23.428 -16.911  0.00  0.00    -0.301 NA
ATOM      6  N   UNL     1      34.765 -22.717 -17.598  0.00  0.00    -0.292 N 
ATOM      7  C   UNL     1      33.750 -23.886 -14.460  0.00  0.00    +0.191 C 
ATOM      8  C   UNL     1      32.874 -24.639 -12.620  0.00  0.00    +0.205 C 
ATOM      9  C   UNL     1      32.424 -24.151 -14.636  0.00  0.00    +0.183 C 
ATOM     10  C   UNL     1      33.925 -23.195 -16.661  0.00  0.00    +0.248 C 
ATOM     11  C   UNL     1      31.793 -23.924 -15.921  0.00  0.00    +0.224 C 
ATOM     12  H   UNL     1      35.494 -23.225 -15.281  0.00  0.00    +0.152 HD
ATOM     13  H   UNL     1      35.705 -22.564 -17.351  0.00  0.00    +0.151 HD
ENDROOT
BRANCH   2  15
ATOM     14  O   UNL     1      36.338 -23.330 -13.258  0.00  0.00    -0.338 OA
ATOM     15  C   UNL     1      35.384 -24.079 -12.482  0.00  0.00    +0.182 C 
ATOM     16  C   UNL     1      37.495 -25.074 -12.129  0.00  0.00    +0.144 C 
ATOM     17  C   UNL     1      36.029 -25.432 -12.199  0.00  0.00    +0.079 C 
ATOM     18  C   UNL     1      37.628 -23.968 -13.169  0.00  0.00    +0.174 C 
BRANCH  16  19
ATOM     19  O   UNL     1      37.770 -24.547 -10.833  0.00  0.00    -0.382 OA
ATOM     20  H   UNL     1      37.076 -23.913 -10.589  0.00  0.00    +0.210 HD
ENDBRANCH  16  19
BRANCH  18  21
ATOM     21  C   UNL     1      37.984 -24.500 -14.551  0.00  0.00    +0.186 C 
BRANCH  21  22
ATOM     22  O   UNL     1      39.393 -24.632 -14.636  0.00  0.00    -0.271 OA
BRANCH  22  23
ATOM     23  P   UNL     1      40.023 -26.116 -14.777  0.00  0.00    +0.473 P 
ATOM     24  O   UNL     1      41.026 -26.482 -13.722  0.00  0.00    -0.227 OA
BRANCH  23  25
ATOM     25  O   UNL     1      38.713 -27.062 -14.831  0.00  0.00    -0.303 OA
ATOM     26  H   UNL     1      38.558 -27.450 -13.955  0.00  0.00    +0.222 HD
ENDBRANCH  23  25
BRANCH  23  27
ATOM     27  O   UNL     1      40.574 -26.155 -16.298  0.00  0.00    -0.303 OA
ATOM     28  H   UNL     1      39.909 -25.773 -16.892  0.00  0.00    +0.222 HD
ENDBRANCH  23  27
ENDBRANCH  22  23
ENDBRANCH  21  22
ENDBRANCH  18  21
ENDBRANCH   2  15
BRANCH   6  29
ATOM     29  C   UNL     1      34.349 -22.418 -18.949  0.00  0.00    +0.117 C 
BRANCH  29  30
ATOM     30  C   UNL     1      35.322 -21.493 -19.612  0.00  0.00    -0.003 C 
ATOM     31  C   UNL     1      34.938 -20.624 -20.646  0.00  0.00    -0.002 C 
ATOM     32  C   UNL     1      35.906 -19.775 -21.233  0.00  0.00    -0.000 C 
ATOM     33  C   UNL     1      36.642 -21.523 -19.162  0.00  0.00    -0.003 C 
ATOM     34  C   UNL     1      33.614 -20.580 -21.112  0.00  0.00    -0.000 C 
ATOM     35  C   UNL     1      37.231 -19.820 -20.768  0.00  0.00    -0.000 C 
ATOM     36  C   UNL     1      37.594 -20.689 -19.738  0.00  0.00    -0.000 C 
ATOM     37  C   UNL     1      35.523 -18.907 -22.268  0.00  0.00    -0.000 C 
ATOM     38  C   UNL     1      33.250 -19.711 -22.141  0.00  0.00    -0.000 C 
ATOM     39  C   UNL     1      34.202 -18.876 -22.717  0.00  0.00    -0.000 C 
ENDBRANCH  29  30
ENDBRANCH   6  29
TORSDOF 9
ENDMDL
MODEL 5
REMARK VINA RESULT:     -10.0      1.233      2.386
REMARK  Name = 46937134
REMARK  9 active torsions:
REMARK  status: ('A' for Active; 'I' for Inactive)
REMARK    1  A    between atoms: N_2  and  C_15
REMARK    2  A    between atoms: N_6  and  C_29
REMARK    3  A    between atoms: C_16  and  O_19
REMARK    4  A    between atoms: C_18  and  C_21
REMARK    5  A    between atoms: C_21  and  O_22
REMARK    6  A    between atoms: O_22  and  P_23
REMARK    7  A    between atoms: P_23  and  O_25
REMARK    8  A    between atoms: P_23  and  O_27
REMARK    9  A    between atoms: C_29  and  C_30
REMARK                            x       y       z     vdW  Elec       q    Type
REMARK                         _______ _______ _______ _____ _____    ______ ____
ROOT
ATOM      1  O   UNL     1      37.616 -22.657 -13.526  0.00  0.00    -0.208 OA
ATOM      2  N   UNL     1      33.570 -24.589 -14.096  0.00  0.00    -0.209 NA
ATOM      3  N   UNL     1      34.620 -23.650 -16.079  0.00  0.00    -0.279 N 
ATOM      4  N   UNL     1      35.189 -24.070 -12.631  0.00  0.00    -0.241 NA
ATOM      5  N   UNL     1      36.763 -22.644 -15.681  0.00  0.00    -0.301 NA
ATOM      6  N   UNL     1      35.790 -22.703 -17.803  0.00  0.00    -0.292 N 
ATOM      7  C   UNL     1      34.549 -23.953 -14.780  0.00  0.00    +0.191 C 
ATOM      8  C   UNL     1      34.005 -24.636 -12.790  0.00  0.00    +0.205 C 
ATOM      9  C   UNL     1      35.528 -23.642 -13.883  0.00  0.00    +0.183 C 
ATOM     10  C   UNL     1      35.772 -22.982 -16.486  0.00  0.00    +0.248 C 
ATOM     11  C   UNL     1      36.724 -22.946 -14.314  0.00  0.00    +0.224 C 
ATOM     12  H   UNL     1      33.901 -23.885 -16.710  0.00  0.00    +0.152 HD
ATOM     13  H   UNL     1      35.021 -22.980 -18.352  0.00  0.00    +0.151 HD
ENDROOT
BRANCH   2  15
ATOM     14  O   UNL     1      31.838 -24.453 -15.817  0.00  0.00    -0.338 OA
ATOM     15  C   UNL     1      32.270 -25.139 -14.626  0.00  0.00    +0.182 C 
ATOM     16  C   UNL     1      29.915 -25.013 -14.535  0.00  0.00    +0.144 C 
ATOM     17  C   UNL     1      31.122 -25.027 -13.627  0.00  0.00    +0.079 C 
ATOM     18  C   UNL     1      30.413 -24.248 -15.755  0.00  0.00    +0.174 C 
BRANCH  16  19
ATOM     19  O   UNL     1      29.612 -26.357 -14.905  0.00  0.00    -0.382 OA
ATOM     20  H   UNL     1      29.346 -26.383 -15.838  0.00  0.00    +0.210 HD
ENDBRANCH  16  19
BRANCH  18  21
ATOM     21  C   UNL     1      30.159 -22.750 -15.653  0.00  0.00    +0.186 C 
BRANCH  21  22
ATOM     22  O   UNL     1      29.318 -22.358 -16.726  0.00  0.00    -0.271 OA
BRANCH  22  23
ATOM     23  P   UNL     1      27.750 -22.755 -16.663  0.00  0.00    +0.473 P 
ATOM     24  O   UNL     1      27.188 -22.897 -15.279  0.00  0.00    -0.227 OA
BRANCH  23  25
ATOM     25  O   UNL     1      27.052 -21.614 -17.570  0.00  0.00    -0.303 OA
ATOM     26  H   UNL     1      26.088 -21.722 -17.541  0.00  0.00    +0.222 HD
ENDBRANCH  23  25
BRANCH  23  27
ATOM     27  O   UNL     1      27.653 -24.078 -17.589  0.00  0.00    -0.303 OA
ATOM     28  H   UNL     1      28.527 -24.281 -17.956  0.00  0.00    +0.222 HD
ENDBRANCH  23  27
ENDBRANCH  22  23
ENDBRANCH  21  22
ENDBRANCH  18  21
ENDBRANCH   2  15
BRANCH   6  29
ATOM     29  C   UNL     1      36.885 -22.016 -18.447  0.00  0.00    +0.117 C 
BRANCH  29  30
ATOM     30  C   UNL     1      36.379 -21.086 -19.506  0.00  0.00    -0.003 C 
ATOM     31  C   UNL     1      35.021 -21.025 -19.856  0.00  0.00    -0.002 C 
ATOM     32  C   UNL     1      34.606 -20.126 -20.867  0.00  0.00    -0.000 C 
ATOM     33  C   UNL     1      37.315 -20.271 -20.142  0.00  0.00    -0.003 C 
ATOM     34  C   UNL     1      34.064 -21.839 -19.227  0.00  0.00    -0.000 C 
ATOM     35  C   UNL     1      35.562 -19.314 -21.498  0.00  0.00    -0.000 C 
ATOM     36  C   UNL     1      36.908 -19.386 -21.136  0.00  0.00    -0.000 C 
ATOM     37  C   UNL     1      33.247 -20.066 -21.219  0.00  0.00    -0.000 C 
ATOM     38  C   UNL     1      32.719 -21.766 -19.588  0.00  0.00    -0.000 C 
ATOM     39  C   UNL     1      32.312 -20.881 -20.582  0.00  0.00    -0.000 C 
ENDBRANCH  29  30
ENDBRANCH   6  29
TORSDOF 9
ENDMDL
MODEL 6
REMARK VINA RESULT:      -9.4      7.200     10.630
REMARK  Name = 46937134
REMARK  9 active torsions:
REMARK  status: ('A' for Active; 'I' for Inactive)
REMARK    1  A    between atoms: N_2  and  C_15
REMARK    2  A    between atoms: N_6  and  C_29
REMARK    3  A    between atoms: C_16  and  O_19
REMARK    4  A    between atoms: C_18  and  C_21
REMARK    5  A    between atoms: C_21  and  O_22
REMARK    6  A    between atoms: O_22  and  P_23
REMARK    7  A    between atoms: P_23  and  O_25
REMARK    8  A    between atoms: P_23  and  O_27
REMARK    9  A    between atoms: C_29  and  C_30
REMARK                            x       y       z     vdW  Elec       q    Type
REMARK                         _______ _______ _______ _____ _____    ______ ____
ROOT
ATOM      1  O   UNL     1      32.814 -16.112 -27.092  0.00  0.00    -0.208 OA
ATOM      2  N   UNL     1      35.005 -18.534 -23.968  0.00  0.00    -0.209 NA
ATOM      3  N   UNL     1      34.810 -16.144 -23.557  0.00  0.00    -0.279 N 
ATOM      4  N   UNL     1      33.912 -18.588 -25.927  0.00  0.00    -0.241 NA
ATOM      5  N   UNL     1      33.634 -14.940 -25.269  0.00  0.00    -0.301 NA
ATOM      6  N   UNL     1      34.508 -13.883 -23.379  0.00  0.00    -0.292 N 
ATOM      7  C   UNL     1      34.619 -17.269 -24.252  0.00  0.00    +0.191 C 
ATOM      8  C   UNL     1      34.552 -19.302 -25.017  0.00  0.00    +0.205 C 
ATOM      9  C   UNL     1      33.956 -17.310 -25.443  0.00  0.00    +0.183 C 
ATOM     10  C   UNL     1      34.286 -14.984 -24.122  0.00  0.00    +0.248 C 
ATOM     11  C   UNL     1      33.414 -16.098 -26.024  0.00  0.00    +0.224 C 
ATOM     12  H   UNL     1      35.292 -16.137 -22.698  0.00  0.00    +0.152 HD
ATOM     13  H   UNL     1      35.002 -13.979 -22.533  0.00  0.00    +0.151 HD
ENDROOT
BRANCH   2  15
ATOM     14  O   UNL     1      35.290 -20.302 -22.302  0.00  0.00    -0.338 OA
ATOM     15  C   UNL     1      35.770 -19.025 -22.765  0.00  0.00    +0.182 C 
ATOM     16  C   UNL     1      35.928 -19.011 -20.410  0.00  0.00    +0.144 C 
ATOM     17  C   UNL     1      35.684 -18.077 -21.573  0.00  0.00    +0.079 C 
ATOM     18  C   UNL     1      35.257 -20.302 -20.861  0.00  0.00    +0.174 C 
BRANCH  16  19
ATOM     19  O   UNL     1      37.333 -19.221 -20.285  0.00  0.00    -0.382 OA
ATOM     20  H   UNL     1      37.674 -19.620 -21.102  0.00  0.00    +0.210 HD
ENDBRANCH  16  19
BRANCH  18  21
ATOM     21  C   UNL     1      33.801 -20.392 -20.425  0.00  0.00    +0.186 C 
BRANCH  21  22
ATOM     22  O   UNL     1      33.432 -21.758 -20.354  0.00  0.00    -0.271 OA
BRANCH  22  23
ATOM     23  P   UNL     1      33.844 -22.602 -19.035  0.00  0.00    +0.473 P 
ATOM     24  O   UNL     1      35.039 -22.077 -18.295  0.00  0.00    -0.227 OA
BRANCH  23  25
ATOM     25  O   UNL     1      32.471 -22.633 -18.182  0.00  0.00    -0.303 OA
ATOM     26  H   UNL     1      31.765 -22.202 -18.690  0.00  0.00    +0.222 HD
ENDBRANCH  23  25
BRANCH  23  27
ATOM     27  O   UNL     1      33.979 -24.120 -19.579  0.00  0.00    -0.303 OA
ATOM     28  H   UNL     1      34.422 -24.664 -18.910  0.00  0.00    +0.222 HD
ENDBRANCH  23  27
ENDBRANCH  22  23
ENDBRANCH  21  22
ENDBRANCH  18  21
ENDBRANCH   2  15
BRANCH   6  29
ATOM     29  C   UNL     1      34.055 -12.567 -23.768  0.00  0.00    +0.117 C 
BRANCH  29  30
ATOM     30  C   UNL     1      33.096 -12.016 -22.759  0.00  0.00    -0.003 C 
ATOM     31  C   UNL     1      32.804 -10.645 -22.680  0.00  0.00    -0.002 C 
ATOM     32  C   UNL     1      31.889 -10.186 -21.702  0.00  0.00    -0.000 C 
ATOM     33  C   UNL     1      32.492 -12.923 -21.887  0.00  0.00    -0.003 C 
ATOM     34  C   UNL     1      33.402  -9.717 -23.549  0.00  0.00    -0.000 C 
ATOM     35  C   UNL     1      31.292 -11.113 -20.833  0.00  0.00    -0.000 C 
ATOM     36  C   UNL     1      31.593 -12.473 -20.926  0.00  0.00    -0.000 C 
ATOM     37  C   UNL     1      31.598  -8.814 -21.623  0.00  0.00    -0.000 C 
ATOM     38  C   UNL     1      33.101  -8.358 -23.456  0.00  0.00    -0.000 C 
ATOM     39  C   UNL     1      32.200  -7.908 -22.495  0.00  0.00    -0.000 C 
ENDBRANCH  29  30
ENDBRANCH   6  29
TORSDOF 9
ENDMDL
MODEL 7
REMARK VINA RESULT:      -9.4      2.807      5.717
REMARK  Name = 46937134
REMARK  9 active torsions:
REMARK  status: ('A' for Active; 'I' for Inactive)
REMARK    1  A    between atoms: N_2  and  C_15
REMARK    2  A    between atoms: N_6  and  C_29
REMARK    3  A    between atoms: C_16  and  O_19
REMARK    4  A    between atoms: C_18  and  C_21
REMARK    5  A    between atoms: C_21  and  O_22
REMARK    6  A    between atoms: O_22  and  P_23
REMARK    7  A    between atoms: P_23  and  O_25
REMARK    8  A    between atoms: P_23  and  O_27
REMARK    9  A    between atoms: C_29  and  C_30
REMARK                            x       y       z     vdW  Elec       q    Type
REMARK                         _______ _______ _______ _____ _____    ______ ____
ROOT
ATOM      1  O   UNL     1      32.001 -20.343 -21.108  0.00  0.00    -0.208 OA
ATOM      2  N   UNL     1      34.762 -22.572 -18.309  0.00  0.00    -0.209 NA
ATOM      3  N   UNL     1      35.760 -20.804 -19.649  0.00  0.00    -0.279 N 
ATOM      4  N   UNL     1      32.661 -22.371 -19.073  0.00  0.00    -0.241 NA
ATOM      5  N   UNL     1      34.220 -19.677 -21.106  0.00  0.00    -0.301 NA
ATOM      6  N   UNL     1      36.482 -19.106 -21.002  0.00  0.00    -0.292 N 
ATOM      7  C   UNL     1      34.755 -21.574 -19.222  0.00  0.00    +0.191 C 
ATOM      8  C   UNL     1      33.464 -23.027 -18.252  0.00  0.00    +0.205 C 
ATOM      9  C   UNL     1      33.476 -21.458 -19.681  0.00  0.00    +0.183 C 
ATOM     10  C   UNL     1      35.432 -19.852 -20.611  0.00  0.00    +0.248 C 
ATOM     11  C   UNL     1      33.143 -20.465 -20.683  0.00  0.00    +0.224 C 
ATOM     12  H   UNL     1      36.678 -20.904 -19.304  0.00  0.00    +0.152 HD
ATOM     13  H   UNL     1      37.361 -19.284 -20.597  0.00  0.00    +0.151 HD
ENDROOT
BRANCH   2  15
ATOM     14  O   UNL     1      35.523 -24.079 -16.540  0.00  0.00    -0.338 OA
ATOM     15  C   UNL     1      35.929 -23.095 -17.510  0.00  0.00    +0.182 C 
ATOM     16  C   UNL     1      37.286 -22.787 -15.604  0.00  0.00    +0.144 C 
ATOM     17  C   UNL     1      36.660 -22.004 -16.734  0.00  0.00    +0.079 C 
ATOM     18  C   UNL     1      36.244 -23.859 -15.311  0.00  0.00    +0.174 C 
BRANCH  16  19
ATOM     19  O   UNL     1      38.480 -23.400 -16.086  0.00  0.00    -0.382 OA
ATOM     20  H   UNL     1      39.164 -23.361 -15.398  0.00  0.00    +0.210 HD
ENDBRANCH  16  19
BRANCH  18  21
ATOM     21  C   UNL     1      35.241 -23.429 -14.249  0.00  0.00    +0.186 C 
BRANCH  21  22
ATOM     22  O   UNL     1      34.366 -24.513 -13.986  0.00  0.00    -0.271 OA
BRANCH  22  23
ATOM     23  P   UNL     1      32.776 -24.220 -13.901  0.00  0.00    +0.473 P 
ATOM     24  O   UNL     1      32.129 -23.859 -15.206  0.00  0.00    -0.227 OA
BRANCH  23  25
ATOM     25  O   UNL     1      32.199 -25.557 -13.199  0.00  0.00    -0.303 OA
ATOM     26  H   UNL     1      32.905 -26.221 -13.138  0.00  0.00    +0.222 HD
ENDBRANCH  23  25
BRANCH  23  27
ATOM     27  O   UNL     1      32.654 -23.105 -12.736  0.00  0.00    -0.303 OA
ATOM     28  H   UNL     1      31.732 -23.046 -12.441  0.00  0.00    +0.222 HD
ENDBRANCH  23  27
ENDBRANCH  22  23
ENDBRANCH  21  22
ENDBRANCH  18  21
ENDBRANCH   2  15
BRANCH   6  29
ATOM     29  C   UNL     1      36.377 -18.057 -21.990  0.00  0.00    +0.117 C 
BRANCH  29  30
ATOM     30  C   UNL     1      35.592 -18.523 -23.177  0.00  0.00    -0.003 C 
ATOM     31  C   UNL     1      34.840 -17.638 -23.968  0.00  0.00    -0.002 C 
ATOM     32  C   UNL     1      34.119 -18.141 -25.076  0.00  0.00    -0.000 C 
ATOM     33  C   UNL     1      35.633 -19.884 -23.477  0.00  0.00    -0.003 C 
ATOM     34  C   UNL     1      34.787 -16.264 -23.681  0.00  0.00    -0.000 C 
ATOM     35  C   UNL     1      34.171 -19.515 -25.362  0.00  0.00    -0.000 C 
ATOM     36  C   UNL     1      34.924 -20.380 -24.567  0.00  0.00    -0.000 C 
ATOM     37  C   UNL     1      33.367 -17.256 -25.866  0.00  0.00    -0.000 C 
ATOM     38  C   UNL     1      34.035 -15.399 -24.476  0.00  0.00    -0.000 C 
ATOM     39  C   UNL     1      33.327 -15.894 -25.567  0.00  0.00    -0.000 C 
ENDBRANCH  29  30
ENDBRANCH   6  29
TORSDOF 9
ENDMDL
MODEL 8
REMARK VINA RESULT:      -9.3     12.463     15.764
REMARK  Name = 46937134
REMARK  9 active torsions:
REMARK  status: ('A' for Active; 'I' for Inactive)
REMARK    1  A    between atoms: N_2  and  C_15
REMARK    2  A    between atoms: N_6  and  C_29
REMARK    3  A    between atoms: C_16  and  O_19
REMARK    4  A    between atoms: C_18  and  C_21
REMARK    5  A    between atoms: C_21  and  O_22
REMARK    6  A    between atoms: O_22  and  P_23
REMARK    7  A    between atoms: P_23  and  O_25
REMARK    8  A    between atoms: P_23  and  O_27
REMARK    9  A    between atoms: C_29  and  C_30
REMARK                            x       y       z     vdW  Elec       q    Type
REMARK                         _______ _______ _______ _____ _____    ______ ____
ROOT
ATOM      1  O   UNL     1      31.916  -8.039 -19.126  0.00  0.00    -0.208 OA
ATOM      2  N   UNL     1      32.254 -11.556 -21.944  0.00  0.00    -0.209 NA
ATOM      3  N   UNL     1      32.586  -9.348 -22.909  0.00  0.00    -0.279 N 
ATOM      4  N   UNL     1      31.875 -10.901 -19.831  0.00  0.00    -0.241 NA
ATOM      5  N   UNL     1      32.386  -7.543 -21.340  0.00  0.00    -0.301 NA
ATOM      6  N   UNL     1      32.859  -7.184 -23.598  0.00  0.00    -0.292 N 
ATOM      7  C   UNL     1      32.334 -10.206 -21.917  0.00  0.00    +0.191 C 
ATOM      8  C   UNL     1      31.972 -11.934 -20.650  0.00  0.00    +0.205 C 
ATOM      9  C   UNL     1      32.103  -9.816 -20.630  0.00  0.00    +0.183 C 
ATOM     10  C   UNL     1      32.601  -8.000 -22.560  0.00  0.00    +0.248 C 
ATOM     11  C   UNL     1      32.120  -8.411 -20.274  0.00  0.00    +0.224 C 
ATOM     12  H   UNL     1      32.750  -9.651 -23.832  0.00  0.00    +0.152 HD
ATOM     13  H   UNL     1      33.010  -7.584 -24.485  0.00  0.00    +0.151 HD
ENDROOT
BRANCH   2  15
ATOM     14  O   UNL     1      32.503 -13.858 -22.730  0.00  0.00    -0.338 OA
ATOM     15  C   UNL     1      32.430 -12.476 -23.126  0.00  0.00    +0.182 C 
ATOM     16  C   UNL     1      33.972 -13.527 -24.571  0.00  0.00    +0.144 C 
ATOM     17  C   UNL     1      33.699 -12.190 -23.922  0.00  0.00    +0.079 C 
ATOM     18  C   UNL     1      33.520 -14.521 -23.508  0.00  0.00    +0.174 C 
BRANCH  16  19
ATOM     19  O   UNL     1      33.142 -13.649 -25.723  0.00  0.00    -0.382 OA
ATOM     20  H   UNL     1      33.682 -13.920 -26.483  0.00  0.00    +0.210 HD
ENDBRANCH  16  19
BRANCH  18  21
ATOM     21  C   UNL     1      34.645 -14.925 -22.564  0.00  0.00    +0.186 C 
BRANCH  21  22
ATOM     22  O   UNL     1      35.414 -15.941 -23.184  0.00  0.00    -0.271 OA
BRANCH  22  23
ATOM     23  P   UNL     1      35.394 -17.427 -22.542  0.00  0.00    +0.473 P 
ATOM     24  O   UNL     1      34.515 -18.413 -23.254  0.00  0.00    -0.227 OA
BRANCH  23  25
ATOM     25  O   UNL     1      36.961 -17.821 -22.492  0.00  0.00    -0.303 OA
ATOM     26  H   UNL     1      37.386 -17.562 -23.326  0.00  0.00    +0.222 HD
ENDBRANCH  23  25
BRANCH  23  27
ATOM     27  O   UNL     1      35.026 -17.167 -20.989  0.00  0.00    -0.303 OA
ATOM     28  H   UNL     1      35.335 -16.287 -20.726  0.00  0.00    +0.222 HD
ENDBRANCH  23  27
ENDBRANCH  22  23
ENDBRANCH  21  22
ENDBRANCH  18  21
ENDBRANCH   2  15
BRANCH   6  29
ATOM     29  C   UNL     1      32.925  -5.746 -23.471  0.00  0.00    +0.117 C 
BRANCH  29  30
ATOM     30  C   UNL     1      33.387  -5.120 -24.750  0.00  0.00    -0.003 C 
ATOM     31  C   UNL     1      32.726  -4.021 -25.323  0.00  0.00    -0.002 C 
ATOM     32  C   UNL     1      33.213  -3.475 -26.535  0.00  0.00    -0.000 C 
ATOM     33  C   UNL     1      34.512  -5.671 -25.362  0.00  0.00    -0.003 C 
ATOM     34  C   UNL     1      31.592  -3.452 -24.721  0.00  0.00    -0.000 C 
ATOM     35  C   UNL     1      34.346  -4.044 -27.138  0.00  0.00    -0.000 C 
ATOM     36  C   UNL     1      34.991  -5.135 -26.554  0.00  0.00    -0.000 C 
ATOM     37  C   UNL     1      32.551  -2.377 -27.108  0.00  0.00    -0.000 C 
ATOM     38  C   UNL     1      30.947  -2.361 -25.304  0.00  0.00    -0.000 C 
ATOM     39  C   UNL     1      31.427  -1.824 -26.495  0.00  0.00    -0.000 C 
ENDBRANCH  29  30
ENDBRANCH   6  29
TORSDOF 9
ENDMDL
MODEL 9
REMARK VINA RESULT:      -8.9     12.066     15.444
REMARK  Name = 46937134
REMARK  9 active torsions:
REMARK  status: ('A' for Active; 'I' for Inactive)
REMARK    1  A    between atoms: N_2  and  C_15
REMARK    2  A    between atoms: N_6  and  C_29
REMARK    3  A    between atoms: C_16  and  O_19
REMARK    4  A    between atoms: C_18  and  C_21
REMARK    5  A    between atoms: C_21  and  O_22
REMARK    6  A    between atoms: O_22  and  P_23
REMARK    7  A    between atoms: P_23  and  O_25
REMARK    8  A    between atoms: P_23  and  O_27
REMARK    9  A    between atoms: C_29  and  C_30
REMARK                            x       y       z     vdW  Elec       q    Type
REMARK                         _______ _______ _______ _____ _____    ______ ____
ROOT
ATOM      1  O   UNL     1      35.771 -10.606 -26.479  0.00  0.00    -0.208 OA
ATOM      2  N   UNL     1      33.452  -8.743 -23.076  0.00  0.00    -0.209 NA
ATOM      3  N   UNL     1      33.232 -11.149 -23.358  0.00  0.00    -0.279 N 
ATOM      4  N   UNL     1      34.857  -8.372 -24.786  0.00  0.00    -0.241 NA
ATOM      5  N   UNL     1      34.496 -12.050 -25.189  0.00  0.00    -0.301 NA
ATOM      6  N   UNL     1      33.174 -13.391 -23.811  0.00  0.00    -0.292 N 
ATOM      7  C   UNL     1      33.696  -9.935 -23.667  0.00  0.00    +0.191 C 
ATOM      8  C   UNL     1      34.181  -7.821 -23.792  0.00  0.00    +0.205 C 
ATOM      9  C   UNL     1      34.550  -9.701 -24.704  0.00  0.00    +0.183 C 
ATOM     10  C   UNL     1      33.672 -12.193 -24.168  0.00  0.00    +0.248 C 
ATOM     11  C   UNL     1      35.004 -10.793 -25.542  0.00  0.00    +0.224 C 
ATOM     12  H   UNL     1      32.615 -11.296 -22.604  0.00  0.00    +0.152 HD
ATOM     13  H   UNL     1      32.563 -13.435 -23.040  0.00  0.00    +0.151 HD
ENDROOT
BRANCH   2  15
ATOM     14  O   UNL     1      31.516  -7.532 -22.202  0.00  0.00    -0.338 OA
ATOM     15  C   UNL     1      32.572  -8.458 -21.884  0.00  0.00    +0.182 C 
ATOM     16  C   UNL     1      32.243  -7.106 -19.978  0.00  0.00    +0.144 C 
ATOM     17  C   UNL     1      33.334  -7.853 -20.709  0.00  0.00    +0.079 C 
ATOM     18  C   UNL     1      31.354  -6.605 -21.109  0.00  0.00    +0.174 C 
BRANCH  16  19
ATOM     19  O   UNL     1      31.519  -8.035 -19.175  0.00  0.00    -0.382 OA
ATOM     20  H   UNL     1      30.696  -7.623 -18.867  0.00  0.00    +0.210 HD
ENDBRANCH  16  19
BRANCH  18  21
ATOM     21  C   UNL     1      31.754  -5.222 -21.604  0.00  0.00    +0.186 C 
BRANCH  21  22
ATOM     22  O   UNL     1      30.798  -4.786 -22.556  0.00  0.00    -0.271 OA
BRANCH  22  23
ATOM     23  P   UNL     1      31.206  -3.592 -23.570  0.00  0.00    +0.473 P 
ATOM     24  O   UNL     1      30.091  -3.091 -24.440  0.00  0.00    -0.227 OA
BRANCH  23  25
ATOM     25  O   UNL     1      31.853  -2.486 -22.583  0.00  0.00    -0.303 OA
ATOM     26  H   UNL     1      31.493  -1.611 -22.800  0.00  0.00    +0.222 HD
ENDBRANCH  23  25
BRANCH  23  27
ATOM     27  O   UNL     1      32.489  -4.182 -24.359  0.00  0.00    -0.303 OA
ATOM     28  H   UNL     1      33.114  -4.561 -23.723  0.00  0.00    +0.222 HD
ENDBRANCH  23  27
ENDBRANCH  22  23
ENDBRANCH  21  22
ENDBRANCH  18  21
ENDBRANCH   2  15
BRANCH   6  29
ATOM     29  C   UNL     1      33.494 -14.616 -24.508  0.00  0.00    +0.117 C 
BRANCH  29  30
ATOM     30  C   UNL     1      34.173 -15.586 -23.592  0.00  0.00    -0.003 C 
ATOM     31  C   UNL     1      34.376 -16.930 -23.948  0.00  0.00    -0.002 C 
ATOM     32  C   UNL     1      35.024 -17.797 -23.036  0.00  0.00    -0.000 C 
ATOM     33  C   UNL     1      34.604 -15.105 -22.355  0.00  0.00    -0.003 C 
ATOM     34  C   UNL     1      33.949 -17.432 -25.188  0.00  0.00    -0.000 C 
ATOM     35  C   UNL     1      35.450 -17.296 -21.796  0.00  0.00    -0.000 C 
ATOM     36  C   UNL     1      35.241 -15.958 -21.459  0.00  0.00    -0.000 C 
ATOM     37  C   UNL     1      35.226 -19.141 -23.392  0.00  0.00    -0.000 C 
ATOM     38  C   UNL     1      34.158 -18.769 -25.525  0.00  0.00    -0.000 C 
ATOM     39  C   UNL     1      34.796 -19.622 -24.628  0.00  0.00    -0.000 C 
ENDBRANCH  29  30
ENDBRANCH   6  29
TORSDOF 9
ENDMDL
