MODEL 1
REMARK VINA RESULT:     -11.9      0.000      0.000
REMARK  Name = 447736
REMARK  4 active torsions:
REMARK  status: ('A' for Active; 'I' for Inactive)
REMARK    1  A    between atoms: N_2  and  C_13
REMARK    2  A    between atoms: C_3  and  C_20
REMARK    3  A    between atoms: C_6  and  C_17
REMARK    4  A    between atoms: C_28  and  C_32
REMARK                            x       y       z     vdW  Elec       q    Type
REMARK                         _______ _______ _______ _____ _____    ______ ____
ROOT
ATOM      1  O   UNL     1      33.932 -24.116 -18.075  0.00  0.00    -0.270 OA
ATOM      2  N   UNL     1      35.000 -22.524 -16.715  0.00  0.00    -0.280 N 
ATOM      3  C   UNL     1      34.389 -22.994 -17.885  0.00  0.00    +0.249 C 
ATOM      4  H   UNL     1      35.311 -21.590 -16.736  0.00  0.00    +0.155 HD
ENDROOT
BRANCH   2  13
ATOM      5  N   UNL     1      38.193 -25.793 -12.535  0.00  0.00    +0.388 N 
ATOM      6  C   UNL     1      38.159 -24.826 -13.650  0.00  0.00    -0.039 C 
ATOM      7  C   UNL     1      36.754 -24.366 -14.017  0.00  0.00    -0.045 C 
ATOM      8  C   UNL     1      35.683 -24.574 -13.124  0.00  0.00    -0.030 C 
ATOM      9  C   UNL     1      35.898 -25.308 -11.825  0.00  0.00    +0.003 C 
ATOM     10  C   UNL     1      37.370 -25.332 -11.418  0.00  0.00    -0.076 C 
ATOM     11  C   UNL     1      36.508 -23.660 -15.206  0.00  0.00    +0.008 C 
ATOM     12  C   UNL     1      34.394 -24.135 -13.458  0.00  0.00    -0.003 C 
ATOM     13  C   UNL     1      35.223 -23.216 -15.524  0.00  0.00    +0.050 C 
ATOM     14  C   UNL     1      34.165 -23.459 -14.654  0.00  0.00    +0.014 C 
ATOM     15  H   UNL     1      39.155 -25.902 -12.216  0.00  0.00    -0.084 HD
ATOM     16  H   UNL     1      37.822 -26.684 -12.865  0.00  0.00    -0.084 HD
BRANCH   6  17
ATOM     17  C   UNL     1      38.907 -25.480 -14.819  0.00  0.00    -0.015 C 
ATOM     18  C   UNL     1      40.387 -25.630 -14.484  0.00  0.00    -0.002 C 
ATOM     19  C   UNL     1      38.288 -26.832 -15.155  0.00  0.00    -0.002 C 
ENDBRANCH   6  17
ENDBRANCH   2  13
BRANCH   3  20
ATOM     20  C   UNL     1      34.323 -22.019 -19.004  0.00  0.00    +0.054 C 
ATOM     21  C   UNL     1      35.443 -20.483 -20.479  0.00  0.00    +0.000 C 
ATOM     22  C   UNL     1      35.487 -21.409 -19.422  0.00  0.00    +0.005 C 
ATOM     23  C   UNL     1      34.201 -20.195 -21.095  0.00  0.00    +0.000 C 
ATOM     24  C   UNL     1      33.105 -21.757 -19.585  0.00  0.00    +0.005 C 
ATOM     25  C   UNL     1      33.041 -20.841 -20.636  0.00  0.00    +0.000 C 
ATOM     26  C   UNL     1      34.156 -19.271 -22.150  0.00  0.00    +0.003 C 
ATOM     27  C   UNL     1      36.602 -19.839 -20.937  0.00  0.00    +0.000 C 
ATOM     28  C   UNL     1      35.319 -18.640 -22.593  0.00  0.00    +0.031 C 
ATOM     29  C   UNL     1      36.540 -18.923 -21.987  0.00  0.00    +0.003 C 
BRANCH  28  32
ATOM     30  N   UNL     1      34.663 -18.014 -24.905  0.00  0.00    -0.343 N 
ATOM     31  N   UNL     1      35.769 -16.476 -23.536  0.00  0.00    -0.285 NA
ATOM     32  C   UNL     1      35.255 -17.684 -23.687  0.00  0.00    +0.117 C 
ATOM     33  H   UNL     1      34.631 -17.351 -25.632  0.00  0.00    +0.144 HD
ATOM     34  H   UNL     1      34.277 -18.909 -25.038  0.00  0.00    +0.144 HD
ATOM     35  H   UNL     1      35.726 -15.827 -24.276  0.00  0.00    +0.188 HD
ENDBRANCH  28  32
ENDBRANCH   3  20
TORSDOF 4
ENDMDL
MODEL 2
REMARK VINA RESULT:     -11.4      9.422     15.555
REMARK  Name = 447736
REMARK  4 active torsions:
REMARK  status: ('A' for Active; 'I' for Inactive)
REMARK    1  A    between atoms: N_2  and  C_13
REMARK    2  A    between atoms: C_3  and  C_20
REMARK    3  A    between atoms: C_6  and  C_17
REMARK    4  A    between atoms: C_28  and  C_32
REMARK                            x       y       z     vdW  Elec       q    Type
REMARK                         _______ _______ _______ _____ _____    ______ ____
ROOT
ATOM      1  O   UNL     1      34.597 -10.375 -24.395  0.00  0.00    -0.270 OA
ATOM      2  N   UNL     1      32.636 -10.687 -23.136  0.00  0.00    -0.280 N 
ATOM      3  C   UNL     1      33.709 -11.090 -23.942  0.00  0.00    +0.249 C 
ATOM      4  H   UNL     1      32.012 -11.398 -22.861  0.00  0.00    +0.155 HD
ENDROOT
BRANCH   2  13
ATOM      5  N   UNL     1      31.819  -4.558 -23.475  0.00  0.00    +0.388 N 
ATOM      6  C   UNL     1      31.827  -5.886 -24.119  0.00  0.00    -0.039 C 
ATOM      7  C   UNL     1      31.962  -7.041 -23.136  0.00  0.00    -0.045 C 
ATOM      8  C   UNL     1      31.722  -6.835 -21.762  0.00  0.00    -0.030 C 
ATOM      9  C   UNL     1      31.391  -5.461 -21.238  0.00  0.00    +0.003 C 
ATOM     10  C   UNL     1      30.895  -4.532 -22.343  0.00  0.00    -0.076 C 
ATOM     11  C   UNL     1      32.247  -8.343 -23.578  0.00  0.00    +0.008 C 
ATOM     12  C   UNL     1      31.832  -7.904 -20.860  0.00  0.00    -0.003 C 
ATOM     13  C   UNL     1      32.343  -9.403 -22.674  0.00  0.00    +0.050 C 
ATOM     14  C   UNL     1      32.142  -9.183 -21.316  0.00  0.00    +0.014 C 
ATOM     15  H   UNL     1      31.529  -3.858 -24.157  0.00  0.00    -0.084 HD
ATOM     16  H   UNL     1      32.758  -4.357 -23.132  0.00  0.00    -0.084 HD
BRANCH   6  17
ATOM     17  C   UNL     1      32.941  -5.855 -25.174  0.00  0.00    -0.015 C 
ATOM     18  C   UNL     1      32.837  -4.589 -26.017  0.00  0.00    -0.002 C 
ATOM     19  C   UNL     1      34.307  -5.951 -24.504  0.00  0.00    -0.002 C 
ENDBRANCH   6  17
ENDBRANCH   2  13
BRANCH   3  20
ATOM     20  C   UNL     1      33.735 -12.534 -24.292  0.00  0.00    +0.054 C 
ATOM     21  C   UNL     1      34.335 -14.792 -23.719  0.00  0.00    +0.000 C 
ATOM     22  C   UNL     1      34.301 -13.423 -23.403  0.00  0.00    +0.005 C 
ATOM     23  C   UNL     1      33.785 -15.232 -24.947  0.00  0.00    +0.000 C 
ATOM     24  C   UNL     1      33.195 -12.936 -25.492  0.00  0.00    +0.005 C 
ATOM     25  C   UNL     1      33.219 -14.291 -25.823  0.00  0.00    +0.000 C 
ATOM     26  C   UNL     1      33.819 -16.600 -25.263  0.00  0.00    +0.003 C 
ATOM     27  C   UNL     1      34.901 -15.732 -22.844  0.00  0.00    +0.000 C 
ATOM     28  C   UNL     1      34.385 -17.520 -24.381  0.00  0.00    +0.031 C 
ATOM     29  C   UNL     1      34.925 -17.087 -23.174  0.00  0.00    +0.003 C 
BRANCH  28  32
ATOM     30  N   UNL     1      34.935 -19.882 -23.847  0.00  0.00    -0.343 N 
ATOM     31  N   UNL     1      33.937 -19.337 -25.889  0.00  0.00    -0.285 NA
ATOM     32  C   UNL     1      34.412 -18.933 -24.724  0.00  0.00    +0.117 C 
ATOM     33  H   UNL     1      34.943 -20.834 -24.099  0.00  0.00    +0.144 HD
ATOM     34  H   UNL     1      35.296 -19.600 -22.976  0.00  0.00    +0.144 HD
ATOM     35  H   UNL     1      33.955 -20.294 -26.122  0.00  0.00    +0.188 HD
ENDBRANCH  28  32
ENDBRANCH   3  20
TORSDOF 4
ENDMDL
MODEL 3
REMARK VINA RESULT:     -10.9      8.844     15.557
REMARK  Name = 447736
REMARK  4 active torsions:
REMARK  status: ('A' for Active; 'I' for Inactive)
REMARK    1  A    between atoms: N_2  and  C_13
REMARK    2  A    between atoms: C_3  and  C_20
REMARK    3  A    between atoms: C_6  and  C_17
REMARK    4  A    between atoms: C_28  and  C_32
REMARK                            x       y       z     vdW  Elec       q    Type
REMARK                         _______ _______ _______ _____ _____    ______ ____
ROOT
ATOM      1  O   UNL     1      31.176 -11.528 -21.750  0.00  0.00    -0.270 OA
ATOM      2  N   UNL     1      33.013 -10.317 -22.579  0.00  0.00    -0.280 N 
ATOM      3  C   UNL     1      32.289 -11.474 -22.263  0.00  0.00    +0.249 C 
ATOM      4  H   UNL     1      33.897 -10.459 -22.989  0.00  0.00    +0.155 HD
ENDROOT
BRANCH   2  13
ATOM      5  N   UNL     1      31.977  -4.405 -24.103  0.00  0.00    +0.388 N 
ATOM      6  C   UNL     1      32.085  -5.826 -24.488  0.00  0.00    -0.039 C 
ATOM      7  C   UNL     1      32.195  -6.773 -23.300  0.00  0.00    -0.045 C 
ATOM      8  C   UNL     1      31.847  -6.332 -22.006  0.00  0.00    -0.030 C 
ATOM      9  C   UNL     1      31.424  -4.905 -21.769  0.00  0.00    +0.003 C 
ATOM     10  C   UNL     1      30.973  -4.221 -23.057  0.00  0.00    -0.076 C 
ATOM     11  C   UNL     1      32.563  -8.117 -23.474  0.00  0.00    +0.008 C 
ATOM     12  C   UNL     1      31.935  -7.211 -20.917  0.00  0.00    -0.003 C 
ATOM     13  C   UNL     1      32.636  -8.988 -22.384  0.00  0.00    +0.050 C 
ATOM     14  C   UNL     1      32.328  -8.534 -21.106  0.00  0.00    +0.014 C 
ATOM     15  H   UNL     1      31.710  -3.857 -24.921  0.00  0.00    -0.084 HD
ATOM     16  H   UNL     1      32.880  -4.095 -23.745  0.00  0.00    -0.084 HD
BRANCH   6  17
ATOM     17  C   UNL     1      33.270  -5.929 -25.456  0.00  0.00    -0.015 C 
ATOM     18  C   UNL     1      33.217  -4.801 -26.481  0.00  0.00    -0.002 C 
ATOM     19  C   UNL     1      34.586  -5.901 -24.688  0.00  0.00    -0.002 C 
ENDBRANCH   6  17
ENDBRANCH   2  13
BRANCH   3  20
ATOM     20  C   UNL     1      32.975 -12.757 -22.567  0.00  0.00    +0.054 C 
ATOM     21  C   UNL     1      34.101 -14.736 -21.791  0.00  0.00    +0.000 C 
ATOM     22  C   UNL     1      33.448 -13.521 -21.521  0.00  0.00    +0.005 C 
ATOM     23  C   UNL     1      34.260 -15.152 -23.135  0.00  0.00    +0.000 C 
ATOM     24  C   UNL     1      33.117 -13.139 -23.881  0.00  0.00    +0.005 C 
ATOM     25  C   UNL     1      33.762 -14.342 -24.168  0.00  0.00    +0.000 C 
ATOM     26  C   UNL     1      34.911 -16.366 -23.405  0.00  0.00    +0.003 C 
ATOM     27  C   UNL     1      34.598 -15.546 -20.758  0.00  0.00    +0.000 C 
ATOM     28  C   UNL     1      35.399 -17.159 -22.366  0.00  0.00    +0.031 C 
ATOM     29  C   UNL     1      35.242 -16.749 -21.045  0.00  0.00    +0.003 C 
BRANCH  28  32
ATOM     30  N   UNL     1      37.392 -18.638 -22.272  0.00  0.00    -0.343 N 
ATOM     31  N   UNL     1      35.432 -19.365 -23.317  0.00  0.00    -0.285 NA
ATOM     32  C   UNL     1      36.073 -18.413 -22.663  0.00  0.00    +0.117 C 
ATOM     33  H   UNL     1      37.828 -19.495 -22.483  0.00  0.00    +0.144 HD
ATOM     34  H   UNL     1      37.886 -17.940 -21.785  0.00  0.00    +0.144 HD
ATOM     35  H   UNL     1      35.887 -20.215 -23.519  0.00  0.00    +0.188 HD
ENDBRANCH  28  32
ENDBRANCH   3  20
TORSDOF 4
ENDMDL
MODEL 4
REMARK VINA RESULT:     -10.6      8.132     12.954
REMARK  Name = 447736
REMARK  4 active torsions:
REMARK  status: ('A' for Active; 'I' for Inactive)
REMARK    1  A    between atoms: N_2  and  C_13
REMARK    2  A    between atoms: C_3  and  C_20
REMARK    3  A    between atoms: C_6  and  C_17
REMARK    4  A    between atoms: C_28  and  C_32
REMARK                            x       y       z     vdW  Elec       q    Type
REMARK                         _______ _______ _______ _____ _____    ______ ____
ROOT
ATOM      1  O   UNL     1      34.236 -12.226 -24.441  0.00  0.00    -0.270 OA
ATOM      2  N   UNL     1      33.605 -12.759 -22.240  0.00  0.00    -0.280 N 
ATOM      3  C   UNL     1      33.699 -11.943 -23.376  0.00  0.00    +0.249 C 
ATOM      4  H   UNL     1      33.137 -12.369 -21.466  0.00  0.00    +0.155 HD
ENDROOT
BRANCH   2  13
ATOM      5  N   UNL     1      35.079 -18.551 -23.864  0.00  0.00    +0.388 N 
ATOM      6  C   UNL     1      34.847 -17.139 -24.227  0.00  0.00    -0.039 C 
ATOM      7  C   UNL     1      34.690 -16.216 -23.025  0.00  0.00    -0.045 C 
ATOM      8  C   UNL     1      35.103 -16.642 -21.746  0.00  0.00    -0.030 C 
ATOM      9  C   UNL     1      35.646 -18.032 -21.537  0.00  0.00    +0.003 C 
ATOM     10  C   UNL     1      36.120 -18.663 -22.844  0.00  0.00    -0.076 C 
ATOM     11  C   UNL     1      34.209 -14.905 -23.173  0.00  0.00    +0.008 C 
ATOM     12  C   UNL     1      34.972 -15.785 -20.644  0.00  0.00    -0.003 C 
ATOM     13  C   UNL     1      34.093 -14.055 -22.071  0.00  0.00    +0.050 C 
ATOM     14  C   UNL     1      34.468 -14.496 -20.807  0.00  0.00    +0.014 C 
ATOM     15  H   UNL     1      35.370 -19.066 -24.695  0.00  0.00    -0.084 HD
ATOM     16  H   UNL     1      34.213 -18.937 -23.488  0.00  0.00    -0.084 HD
BRANCH   6  17
ATOM     17  C   UNL     1      33.634 -17.122 -25.166  0.00  0.00    -0.015 C 
ATOM     18  C   UNL     1      33.816 -16.065 -26.249  0.00  0.00    -0.002 C 
ATOM     19  C   UNL     1      33.423 -18.500 -25.784  0.00  0.00    -0.002 C 
ENDBRANCH   6  17
ENDBRANCH   2  13
BRANCH   3  20
ATOM     20  C   UNL     1      33.101 -10.590 -23.238  0.00  0.00    +0.054 C 
ATOM     21  C   UNL     1      33.254  -8.215 -23.587  0.00  0.00    +0.000 C 
ATOM     22  C   UNL     1      33.805  -9.501 -23.710  0.00  0.00    +0.005 C 
ATOM     23  C   UNL     1      31.985  -8.060 -22.978  0.00  0.00    +0.000 C 
ATOM     24  C   UNL     1      31.868 -10.467 -22.643  0.00  0.00    +0.005 C 
ATOM     25  C   UNL     1      31.305  -9.197 -22.511  0.00  0.00    +0.000 C 
ATOM     26  C   UNL     1      31.435  -6.774 -22.855  0.00  0.00    +0.003 C 
ATOM     27  C   UNL     1      33.934  -7.079 -24.054  0.00  0.00    +0.000 C 
ATOM     28  C   UNL     1      32.125  -5.657 -23.325  0.00  0.00    +0.031 C 
ATOM     29  C   UNL     1      33.372  -5.809 -23.923  0.00  0.00    +0.003 C 
BRANCH  28  32
ATOM     30  N   UNL     1      30.587  -4.057 -22.211  0.00  0.00    -0.343 N 
ATOM     31  N   UNL     1      31.914  -3.362 -24.004  0.00  0.00    -0.285 NA
ATOM     32  C   UNL     1      31.541  -4.332 -23.188  0.00  0.00    +0.117 C 
ATOM     33  H   UNL     1      30.205  -3.152 -22.135  0.00  0.00    +0.144 HD
ATOM     34  H   UNL     1      30.294  -4.767 -21.595  0.00  0.00    +0.144 HD
ATOM     35  H   UNL     1      31.520  -2.464 -23.912  0.00  0.00    +0.188 HD
ENDBRANCH  28  32
ENDBRANCH   3  20
TORSDOF 4
ENDMDL
MODEL 5
REMARK VINA RESULT:     -10.6      2.573      4.530
REMARK  Name = 447736
REMARK  4 active torsions:
REMARK  status: ('A' for Active; 'I' for Inactive)
REMARK    1  A    between atoms: N_2  and  C_13
REMARK    2  A    between atoms: C_3  and  C_20
REMARK    3  A    between atoms: C_6  and  C_17
REMARK    4  A    between atoms: C_28  and  C_32
REMARK                            x       y       z     vdW  Elec       q    Type
REMARK                         _______ _______ _______ _____ _____    ______ ____
ROOT
ATOM      1  O   UNL     1      37.525 -19.896 -19.815  0.00  0.00    -0.270 OA
ATOM      2  N   UNL     1      35.492 -21.026 -19.469  0.00  0.00    -0.280 N 
ATOM      3  C   UNL     1      36.364 -20.145 -20.123  0.00  0.00    +0.249 C 
ATOM      4  H   UNL     1      34.589 -21.105 -19.855  0.00  0.00    +0.155 HD
ENDROOT
BRANCH   2  13
ATOM      5  N   UNL     1      34.145 -24.551 -14.559  0.00  0.00    +0.388 N 
ATOM      6  C   UNL     1      33.796 -24.030 -15.896  0.00  0.00    -0.039 C 
ATOM      7  C   UNL     1      34.928 -23.263 -16.567  0.00  0.00    -0.045 C 
ATOM      8  C   UNL     1      36.250 -23.390 -16.093  0.00  0.00    -0.030 C 
ATOM      9  C   UNL     1      36.553 -24.234 -14.881  0.00  0.00    +0.003 C 
ATOM     10  C   UNL     1      35.438 -25.233 -14.586  0.00  0.00    -0.076 C 
ATOM     11  C   UNL     1      34.698 -22.482 -17.711  0.00  0.00    +0.008 C 
ATOM     12  C   UNL     1      37.292 -22.695 -16.723  0.00  0.00    -0.003 C 
ATOM     13  C   UNL     1      35.745 -21.803 -18.338  0.00  0.00    +0.050 C 
ATOM     14  C   UNL     1      37.040 -21.904 -17.841  0.00  0.00    +0.014 C 
ATOM     15  H   UNL     1      33.427 -25.211 -14.260  0.00  0.00    -0.084 HD
ATOM     16  H   UNL     1      34.205 -23.768 -13.909  0.00  0.00    -0.084 HD
BRANCH   6  17
ATOM     17  C   UNL     1      32.520 -23.196 -15.720  0.00  0.00    -0.015 C 
ATOM     18  C   UNL     1      31.406 -23.738 -16.609  0.00  0.00    -0.002 C 
ATOM     19  C   UNL     1      32.090 -23.186 -14.257  0.00  0.00    -0.002 C 
ENDBRANCH   6  17
ENDBRANCH   2  13
BRANCH   3  20
ATOM     20  C   UNL     1      35.789 -19.433 -21.294  0.00  0.00    +0.054 C 
ATOM     21  C   UNL     1      35.146 -17.369 -22.349  0.00  0.00    +0.000 C 
ATOM     22  C   UNL     1      35.689 -18.058 -21.251  0.00  0.00    +0.005 C 
ATOM     23  C   UNL     1      34.712 -18.102 -23.480  0.00  0.00    +0.000 C 
ATOM     24  C   UNL     1      35.375 -20.168 -22.380  0.00  0.00    +0.005 C 
ATOM     25  C   UNL     1      34.833 -19.501 -23.479  0.00  0.00    +0.000 C 
ATOM     26  C   UNL     1      34.170 -17.414 -24.577  0.00  0.00    +0.003 C 
ATOM     27  C   UNL     1      35.026 -15.971 -22.350  0.00  0.00    +0.000 C 
ATOM     28  C   UNL     1      34.058 -16.024 -24.561  0.00  0.00    +0.031 C 
ATOM     29  C   UNL     1      34.485 -15.303 -23.449  0.00  0.00    +0.003 C 
BRANCH  28  32
ATOM     30  N   UNL     1      32.923 -14.061 -25.574  0.00  0.00    -0.343 N 
ATOM     31  N   UNL     1      33.513 -15.894 -26.897  0.00  0.00    -0.285 NA
ATOM     32  C   UNL     1      33.493 -15.326 -25.705  0.00  0.00    +0.117 C 
ATOM     33  H   UNL     1      32.548 -13.606 -26.362  0.00  0.00    +0.144 HD
ATOM     34  H   UNL     1      32.898 -13.622 -24.693  0.00  0.00    +0.144 HD
ATOM     35  H   UNL     1      33.131 -15.423 -27.673  0.00  0.00    +0.188 HD
ENDBRANCH  28  32
ENDBRANCH   3  20
TORSDOF 4
ENDMDL
MODEL 6
REMARK VINA RESULT:     -10.4      1.135      2.625
REMARK  Name = 447736
REMARK  4 active torsions:
REMARK  status: ('A' for Active; 'I' for Inactive)
REMARK    1  A    between atoms: N_2  and  C_13
REMARK    2  A    between atoms: C_3  and  C_20
REMARK    3  A    between atoms: C_6  and  C_17
REMARK    4  A    between atoms: C_28  and  C_32
REMARK                            x       y       z     vdW  Elec       q    Type
REMARK                         _______ _______ _______ _____ _____    ______ ____
ROOT
ATOM      1  O   UNL     1      34.454 -23.540 -18.046  0.00  0.00    -0.270 OA
ATOM      2  N   UNL     1      36.394 -22.355 -17.447  0.00  0.00    -0.280 N 
ATOM      3  C   UNL     1      35.236 -22.608 -18.196  0.00  0.00    +0.249 C 
ATOM      4  H   UNL     1      36.909 -21.557 -17.705  0.00  0.00    +0.155 HD
ENDROOT
BRANCH   2  13
ATOM      5  N   UNL     1      36.257 -25.594 -12.170  0.00  0.00    +0.388 N 
ATOM      6  C   UNL     1      35.587 -25.112 -13.394  0.00  0.00    -0.039 C 
ATOM      7  C   UNL     1      36.531 -24.435 -14.380  0.00  0.00    -0.045 C 
ATOM      8  C   UNL     1      37.925 -24.612 -14.264  0.00  0.00    -0.030 C 
ATOM      9  C   UNL     1      38.505 -25.418 -13.130  0.00  0.00    +0.003 C 
ATOM     10  C   UNL     1      37.469 -26.344 -12.498  0.00  0.00    -0.076 C 
ATOM     11  C   UNL     1      36.037 -23.692 -15.465  0.00  0.00    +0.008 C 
ATOM     12  C   UNL     1      38.790 -24.000 -15.183  0.00  0.00    -0.003 C 
ATOM     13  C   UNL     1      36.906 -23.096 -16.381  0.00  0.00    +0.050 C 
ATOM     14  C   UNL     1      38.282 -23.245 -16.237  0.00  0.00    +0.014 C 
ATOM     15  H   UNL     1      35.618 -26.202 -11.657  0.00  0.00    -0.084 HD
ATOM     16  H   UNL     1      36.518 -24.788 -11.602  0.00  0.00    -0.084 HD
BRANCH   6  17
ATOM     17  C   UNL     1      34.438 -24.205 -12.936  0.00  0.00    -0.015 C 
ATOM     18  C   UNL     1      33.095 -24.809 -13.333  0.00  0.00    -0.002 C 
ATOM     19  C   UNL     1      34.507 -23.982 -11.429  0.00  0.00    -0.002 C 
ENDBRANCH   6  17
ENDBRANCH   2  13
BRANCH   3  20
ATOM     20  C   UNL     1      34.967 -21.645 -19.295  0.00  0.00    +0.054 C 
ATOM     21  C   UNL     1      35.783 -20.008 -20.857  0.00  0.00    +0.000 C 
ATOM     22  C   UNL     1      36.020 -20.924 -19.818  0.00  0.00    +0.005 C 
ATOM     23  C   UNL     1      34.465 -19.844 -21.348  0.00  0.00    +0.000 C 
ATOM     24  C   UNL     1      33.678 -21.504 -19.753  0.00  0.00    +0.005 C 
ATOM     25  C   UNL     1      33.423 -20.599 -20.784  0.00  0.00    +0.000 C 
ATOM     26  C   UNL     1      34.228 -18.929 -22.386  0.00  0.00    +0.003 C 
ATOM     27  C   UNL     1      36.824 -19.253 -21.421  0.00  0.00    +0.000 C 
ATOM     28  C   UNL     1      35.274 -18.187 -22.934  0.00  0.00    +0.031 C 
ATOM     29  C   UNL     1      36.570 -18.349 -22.452  0.00  0.00    +0.003 C 
BRANCH  28  32
ATOM     30  N   UNL     1      34.402 -17.646 -25.195  0.00  0.00    -0.343 N 
ATOM     31  N   UNL     1      35.356 -15.975 -23.869  0.00  0.00    -0.285 NA
ATOM     32  C   UNL     1      35.011 -17.243 -24.008  0.00  0.00    +0.117 C 
ATOM     33  H   UNL     1      34.232 -16.990 -25.909  0.00  0.00    +0.144 HD
ATOM     34  H   UNL     1      34.140 -18.587 -25.319  0.00  0.00    +0.144 HD
ATOM     35  H   UNL     1      35.179 -15.335 -24.595  0.00  0.00    +0.188 HD
ENDBRANCH  28  32
ENDBRANCH   3  20
TORSDOF 4
ENDMDL
MODEL 7
REMARK VINA RESULT:     -10.2      2.325     10.759
REMARK  Name = 447736
REMARK  4 active torsions:
REMARK  status: ('A' for Active; 'I' for Inactive)
REMARK    1  A    between atoms: N_2  and  C_13
REMARK    2  A    between atoms: C_3  and  C_20
REMARK    3  A    between atoms: C_6  and  C_17
REMARK    4  A    between atoms: C_28  and  C_32
REMARK                            x       y       z     vdW  Elec       q    Type
REMARK                         _______ _______ _______ _____ _____    ______ ____
ROOT
ATOM      1  O   UNL     1      33.208 -20.895 -20.833  0.00  0.00    -0.270 OA
ATOM      2  N   UNL     1      35.217 -19.813 -21.401  0.00  0.00    -0.280 N 
ATOM      3  C   UNL     1      34.398 -20.663 -20.646  0.00  0.00    +0.249 C 
ATOM      4  H   UNL     1      36.154 -19.744 -21.109  0.00  0.00    +0.155 HD
ENDROOT
BRANCH   2  13
ATOM      5  N   UNL     1      33.838 -14.693 -24.601  0.00  0.00    +0.388 N 
ATOM      6  C   UNL     1      34.512 -15.349 -23.463  0.00  0.00    -0.039 C 
ATOM      7  C   UNL     1      34.498 -16.870 -23.540  0.00  0.00    -0.045 C 
ATOM      8  C   UNL     1      34.199 -17.516 -24.757  0.00  0.00    -0.030 C 
ATOM      9  C   UNL     1      33.830 -16.717 -25.981  0.00  0.00    +0.003 C 
ATOM     10  C   UNL     1      34.282 -15.263 -25.871  0.00  0.00    -0.076 C 
ATOM     11  C   UNL     1      34.855 -17.657 -22.432  0.00  0.00    +0.008 C 
ATOM     12  C   UNL     1      34.202 -18.917 -24.828  0.00  0.00    -0.003 C 
ATOM     13  C   UNL     1      34.866 -19.051 -22.517  0.00  0.00    +0.050 C 
ATOM     14  C   UNL     1      34.534 -19.681 -23.711  0.00  0.00    +0.014 C 
ATOM     15  H   UNL     1      34.056 -13.696 -24.589  0.00  0.00    -0.084 HD
ATOM     16  H   UNL     1      32.832 -14.840 -24.512  0.00  0.00    -0.084 HD
BRANCH   6  17
ATOM     17  C   UNL     1      33.857 -14.800 -22.190  0.00  0.00    -0.015 C 
ATOM     18  C   UNL     1      34.909 -14.560 -21.112  0.00  0.00    -0.002 C 
ATOM     19  C   UNL     1      33.093 -13.516 -22.497  0.00  0.00    -0.002 C 
ENDBRANCH   6  17
ENDBRANCH   2  13
BRANCH   3  20
ATOM     20  C   UNL     1      35.059 -21.320 -19.489  0.00  0.00    +0.054 C 
ATOM     21  C   UNL     1      34.899 -22.690 -17.519  0.00  0.00    +0.000 C 
ATOM     22  C   UNL     1      34.289 -22.063 -18.618  0.00  0.00    +0.005 C 
ATOM     23  C   UNL     1      36.294 -22.546 -17.325  0.00  0.00    +0.000 C 
ATOM     24  C   UNL     1      36.415 -21.164 -19.323  0.00  0.00    +0.005 C 
ATOM     25  C   UNL     1      37.038 -21.779 -18.237  0.00  0.00    +0.000 C 
ATOM     26  C   UNL     1      36.903 -23.172 -16.226  0.00  0.00    +0.003 C 
ATOM     27  C   UNL     1      34.155 -23.457 -16.608  0.00  0.00    +0.000 C 
ATOM     28  C   UNL     1      36.148 -23.931 -15.331  0.00  0.00    +0.031 C 
ATOM     29  C   UNL     1      34.777 -24.072 -15.521  0.00  0.00    +0.003 C 
BRANCH  28  32
ATOM     30  N   UNL     1      36.319 -25.774 -13.676  0.00  0.00    -0.343 N 
ATOM     31  N   UNL     1      37.853 -24.012 -13.639  0.00  0.00    -0.285 NA
ATOM     32  C   UNL     1      36.794 -24.572 -14.197  0.00  0.00    +0.117 C 
ATOM     33  H   UNL     1      36.772 -26.192 -12.908  0.00  0.00    +0.144 HD
ATOM     34  H   UNL     1      35.530 -26.206 -14.077  0.00  0.00    +0.144 HD
ATOM     35  H   UNL     1      38.291 -24.445 -12.871  0.00  0.00    +0.188 HD
ENDBRANCH  28  32
ENDBRANCH   3  20
TORSDOF 4
ENDMDL
MODEL 8
REMARK VINA RESULT:     -10.1      3.745     11.933
REMARK  Name = 447736
REMARK  4 active torsions:
REMARK  status: ('A' for Active; 'I' for Inactive)
REMARK    1  A    between atoms: N_2  and  C_13
REMARK    2  A    between atoms: C_3  and  C_20
REMARK    3  A    between atoms: C_6  and  C_17
REMARK    4  A    between atoms: C_28  and  C_32
REMARK                            x       y       z     vdW  Elec       q    Type
REMARK                         _______ _______ _______ _____ _____    ______ ____
ROOT
ATOM      1  O   UNL     1      34.676 -19.217 -24.196  0.00  0.00    -0.270 OA
ATOM      2  N   UNL     1      34.788 -17.224 -22.953  0.00  0.00    -0.280 N 
ATOM      3  C   UNL     1      34.910 -18.605 -23.160  0.00  0.00    +0.249 C 
ATOM      4  H   UNL     1      35.018 -16.900 -22.053  0.00  0.00    +0.155 HD
ENDROOT
BRANCH   2  13
ATOM      5  N   UNL     1      33.118 -11.595 -24.921  0.00  0.00    +0.388 N 
ATOM      6  C   UNL     1      33.848 -12.453 -23.967  0.00  0.00    -0.039 C 
ATOM      7  C   UNL     1      33.894 -13.920 -24.377  0.00  0.00    -0.045 C 
ATOM      8  C   UNL     1      33.591 -14.295 -25.702  0.00  0.00    -0.030 C 
ATOM      9  C   UNL     1      33.158 -13.265 -26.713  0.00  0.00    +0.003 C 
ATOM     10  C   UNL     1      33.552 -11.851 -26.293  0.00  0.00    -0.076 C 
ATOM     11  C   UNL     1      34.311 -14.913 -23.477  0.00  0.00    +0.008 C 
ATOM     12  C   UNL     1      33.649 -15.645 -26.081  0.00  0.00    -0.003 C 
ATOM     13  C   UNL     1      34.378 -16.252 -23.867  0.00  0.00    +0.050 C 
ATOM     14  C   UNL     1      34.041 -16.619 -25.166  0.00  0.00    +0.014 C 
ATOM     15  H   UNL     1      33.295 -10.617 -24.693  0.00  0.00    -0.084 HD
ATOM     16  H   UNL     1      32.122 -11.803 -24.851  0.00  0.00    -0.084 HD
BRANCH   6  17
ATOM     17  C   UNL     1      33.203 -12.228 -22.593  0.00  0.00    -0.015 C 
ATOM     18  C   UNL     1      32.544 -10.854 -22.535  0.00  0.00    -0.002 C 
ATOM     19  C   UNL     1      32.190 -13.328 -22.297  0.00  0.00    -0.002 C 
ENDBRANCH   6  17
ENDBRANCH   2  13
BRANCH   3  20
ATOM     20  C   UNL     1      35.346 -19.389 -21.974  0.00  0.00    +0.054 C 
ATOM     21  C   UNL     1      34.817 -20.924 -20.200  0.00  0.00    +0.000 C 
ATOM     22  C   UNL     1      34.421 -20.178 -21.323  0.00  0.00    +0.005 C 
ATOM     23  C   UNL     1      36.159 -20.851 -19.758  0.00  0.00    +0.000 C 
ATOM     24  C   UNL     1      36.656 -19.300 -21.565  0.00  0.00    +0.005 C 
ATOM     25  C   UNL     1      37.067 -20.033 -20.452  0.00  0.00    +0.000 C 
ATOM     26  C   UNL     1      36.554 -21.597 -18.636  0.00  0.00    +0.003 C 
ATOM     27  C   UNL     1      33.909 -21.741 -19.507  0.00  0.00    +0.000 C 
ATOM     28  C   UNL     1      35.640 -22.403 -17.960  0.00  0.00    +0.031 C 
ATOM     29  C   UNL     1      34.319 -22.475 -18.395  0.00  0.00    +0.003 C 
BRANCH  28  32
ATOM     30  N   UNL     1      37.325 -22.987 -16.232  0.00  0.00    -0.343 N 
ATOM     31  N   UNL     1      35.249 -24.060 -16.263  0.00  0.00    -0.285 NA
ATOM     32  C   UNL     1      36.065 -23.169 -16.799  0.00  0.00    +0.117 C 
ATOM     33  H   UNL     1      37.592 -23.515 -15.445  0.00  0.00    +0.144 HD
ATOM     34  H   UNL     1      37.948 -22.330 -16.618  0.00  0.00    +0.144 HD
ATOM     35  H   UNL     1      35.535 -24.579 -15.477  0.00  0.00    +0.188 HD
ENDBRANCH  28  32
ENDBRANCH   3  20
TORSDOF 4
ENDMDL
MODEL 9
REMARK VINA RESULT:     -10.1      0.683      1.477
REMARK  Name = 447736
REMARK  4 active torsions:
REMARK  status: ('A' for Active; 'I' for Inactive)
REMARK    1  A    between atoms: N_2  and  C_13
REMARK    2  A    between atoms: C_3  and  C_20
REMARK    3  A    between atoms: C_6  and  C_17
REMARK    4  A    between atoms: C_28  and  C_32
REMARK                            x       y       z     vdW  Elec       q    Type
REMARK                         _______ _______ _______ _____ _____    ______ ____
ROOT
ATOM      1  O   UNL     1      34.390 -23.607 -18.212  0.00  0.00    -0.270 OA
ATOM      2  N   UNL     1      35.832 -22.355 -16.841  0.00  0.00    -0.280 N 
ATOM      3  C   UNL     1      35.128 -22.647 -18.017  0.00  0.00    +0.249 C 
ATOM      4  H   UNL     1      36.382 -21.538 -16.858  0.00  0.00    +0.155 HD
ENDROOT
BRANCH   2  13
ATOM      5  N   UNL     1      38.164 -26.065 -12.464  0.00  0.00    +0.388 N 
ATOM      6  C   UNL     1      38.362 -25.095 -13.559  0.00  0.00    -0.039 C 
ATOM      7  C   UNL     1      37.072 -24.442 -14.037  0.00  0.00    -0.045 C 
ATOM      8  C   UNL     1      35.908 -24.506 -13.244  0.00  0.00    -0.030 C 
ATOM      9  C   UNL     1      35.904 -25.272 -11.946  0.00  0.00    +0.003 C 
ATOM     10  C   UNL     1      37.316 -25.502 -11.414  0.00  0.00    -0.076 C 
ATOM     11  C   UNL     1      37.031 -23.700 -15.229  0.00  0.00    +0.008 C 
ATOM     12  C   UNL     1      34.725 -23.891 -13.680  0.00  0.00    -0.003 C 
ATOM     13  C   UNL     1      35.852 -23.080 -15.649  0.00  0.00    +0.050 C 
ATOM     14  C   UNL     1      34.698 -23.181 -14.878  0.00  0.00    +0.014 C 
ATOM     15  H   UNL     1      39.070 -26.308 -12.065  0.00  0.00    -0.084 HD
ATOM     16  H   UNL     1      37.705 -26.894 -12.842  0.00  0.00    -0.084 HD
BRANCH   6  17
ATOM     17  C   UNL     1      39.114 -25.837 -14.671  0.00  0.00    -0.015 C 
ATOM     18  C   UNL     1      40.547 -26.129 -14.239  0.00  0.00    -0.002 C 
ATOM     19  C   UNL     1      38.384 -27.125 -15.035  0.00  0.00    -0.002 C 
ENDBRANCH   6  17
ENDBRANCH   2  13
BRANCH   3  20
ATOM     20  C   UNL     1      35.335 -21.692 -19.136  0.00  0.00    +0.054 C 
ATOM     21  C   UNL     1      34.424 -20.403 -20.951  0.00  0.00    +0.000 C 
ATOM     22  C   UNL     1      34.245 -21.305 -19.888  0.00  0.00    +0.005 C 
ATOM     23  C   UNL     1      35.721 -19.909 -21.229  0.00  0.00    +0.000 C 
ATOM     24  C   UNL     1      36.604 -21.227 -19.386  0.00  0.00    +0.005 C 
ATOM     25  C   UNL     1      36.801 -20.331 -20.437  0.00  0.00    +0.000 C 
ATOM     26  C   UNL     1      35.899 -19.008 -22.291  0.00  0.00    +0.003 C 
ATOM     27  C   UNL     1      33.344 -19.981 -21.742  0.00  0.00    +0.000 C 
ATOM     28  C   UNL     1      34.814 -18.598 -23.067  0.00  0.00    +0.031 C 
ATOM     29  C   UNL     1      33.539 -19.084 -22.793  0.00  0.00    +0.003 C 
BRANCH  28  32
ATOM     30  N   UNL     1      34.564 -17.951 -25.451  0.00  0.00    -0.343 N 
ATOM     31  N   UNL     1      35.641 -16.522 -23.948  0.00  0.00    -0.285 NA
ATOM     32  C   UNL     1      35.016 -17.665 -24.164  0.00  0.00    +0.117 C 
ATOM     33  H   UNL     1      34.710 -17.304 -26.179  0.00  0.00    +0.144 HD
ATOM     34  H   UNL     1      34.098 -18.798 -25.632  0.00  0.00    +0.144 HD
ATOM     35  H   UNL     1      35.778 -15.888 -24.690  0.00  0.00    +0.188 HD
ENDBRANCH  28  32
ENDBRANCH   3  20
TORSDOF 4
ENDMDL
