MODEL 1
REMARK VINA RESULT:     -11.0      0.000      0.000
REMARK  Name = 5472495
REMARK  6 active torsions:
REMARK  status: ('A' for Active; 'I' for Inactive)
REMARK    1  A    between atoms: C_2  and  C_23
REMARK    2  A    between atoms: C_3  and  C_7
REMARK    3  A    between atoms: C_7  and  C_13
REMARK    4  A    between atoms: C_16  and  S_19
REMARK    5  A    between atoms: C_23  and  C_25
REMARK    6  A    between atoms: C_25  and  O_26
REMARK                            x       y       z     vdW  Elec       q    Type
REMARK                         _______ _______ _______ _____ _____    ______ ____
ROOT
ATOM      1  F   UNL     1      36.918 -23.983 -12.611  0.00  0.00    -0.204 F 
ATOM      2  C   UNL     1      32.602 -23.455 -14.978  0.00  0.00    -0.030 C 
ATOM      3  C   UNL     1      33.627 -23.463 -17.031  0.00  0.00    -0.036 C 
ATOM      4  C   UNL     1      32.361 -23.373 -16.304  0.00  0.00    +0.037 C 
ATOM      5  C   UNL     1      34.057 -23.606 -14.792  0.00  0.00    -0.005 C 
ATOM      6  C   UNL     1      34.697 -23.612 -16.043  0.00  0.00    -0.008 C 
ATOM      7  C   UNL     1      34.794 -23.731 -13.624  0.00  0.00    +0.029 C 
ATOM      8  C   UNL     1      36.071 -23.741 -16.152  0.00  0.00    +0.002 C 
ATOM      9  C   UNL     1      31.050 -23.213 -16.997  0.00  0.00    +0.009 C 
ATOM     10  C   UNL     1      36.183 -23.861 -13.724  0.00  0.00    +0.140 C 
ATOM     11  C   UNL     1      36.815 -23.866 -14.977  0.00  0.00    +0.030 C 
ENDROOT
BRANCH   3  12
ATOM     12  C   UNL     1      33.806 -23.420 -18.357  0.00  0.00    +0.049 C 
BRANCH  12  13
ATOM     13  C   UNL     1      34.348 -22.280 -19.115  0.00  0.00    -0.018 C 
ATOM     14  C   UNL     1      35.714 -22.047 -19.110  0.00  0.00    -0.003 C 
ATOM     15  C   UNL     1      33.481 -21.459 -19.821  0.00  0.00    -0.003 C 
ATOM     16  C   UNL     1      35.367 -20.134 -20.544  0.00  0.00    +0.106 C 
ATOM     17  C   UNL     1      36.227 -20.968 -19.829  0.00  0.00    +0.018 C 
ATOM     18  C   UNL     1      33.995 -20.380 -20.540  0.00  0.00    +0.018 C 
BRANCH  16  19
ATOM     19  S   UNL     1      36.011 -18.784 -21.444  0.00  0.00    +0.010 S 
ATOM     20  O   UNL     1      35.465 -17.561 -20.870  0.00  0.00    -0.169 OA
ATOM     21  O   UNL     1      37.454 -18.941 -21.567  0.00  0.00    -0.169 OA
ATOM     22  C   UNL     1      35.329 -18.973 -23.075  0.00  0.00    +0.182 C 
ENDBRANCH  16  19
ENDBRANCH  12  13
ENDBRANCH   3  12
BRANCH   2  23
ATOM     23  C   UNL     1      31.664 -23.415 -13.826  0.00  0.00    +0.132 C 
BRANCH  23  25
ATOM     24  O   UNL     1      31.240 -25.786 -14.239  0.00  0.00    -0.250 OA
ATOM     25  C   UNL     1      31.119 -24.793 -13.538  0.00  0.00    +0.318 C 
BRANCH  25  26
ATOM     26  O   UNL     1      30.448 -24.785 -12.356  0.00  0.00    -0.480 OA
ATOM     27  H   UNL     1      29.639 -25.250 -12.275  0.00  0.00    +0.295 HD
ENDBRANCH  25  26
ENDBRANCH  23  25
ENDBRANCH   2  23
TORSDOF 6
ENDMDL
MODEL 2
REMARK VINA RESULT:     -10.5      5.269     10.203
REMARK  Name = 5472495
REMARK  6 active torsions:
REMARK  status: ('A' for Active; 'I' for Inactive)
REMARK    1  A    between atoms: C_2  and  C_23
REMARK    2  A    between atoms: C_3  and  C_7
REMARK    3  A    between atoms: C_7  and  C_13
REMARK    4  A    between atoms: C_16  and  S_19
REMARK    5  A    between atoms: C_23  and  C_25
REMARK    6  A    between atoms: C_25  and  O_26
REMARK                            x       y       z     vdW  Elec       q    Type
REMARK                         _______ _______ _______ _____ _____    ______ ____
ROOT
ATOM      1  F   UNL     1      32.772 -14.013 -26.798  0.00  0.00    -0.204 F 
ATOM      2  C   UNL     1      34.203 -14.870 -22.137  0.00  0.00    -0.030 C 
ATOM      3  C   UNL     1      35.069 -16.923 -22.687  0.00  0.00    -0.036 C 
ATOM      4  C   UNL     1      34.834 -15.948 -21.623  0.00  0.00    +0.037 C 
ATOM      5  C   UNL     1      34.003 -15.109 -23.578  0.00  0.00    -0.005 C 
ATOM      6  C   UNL     1      34.528 -16.364 -23.928  0.00  0.00    -0.008 C 
ATOM      7  C   UNL     1      33.407 -14.303 -24.537  0.00  0.00    +0.029 C 
ATOM      8  C   UNL     1      34.470 -16.835 -25.229  0.00  0.00    +0.002 C 
ATOM      9  C   UNL     1      35.257 -16.186 -20.213  0.00  0.00    +0.009 C 
ATOM     10  C   UNL     1      33.343 -14.771 -25.852  0.00  0.00    +0.140 C 
ATOM     11  C   UNL     1      33.870 -16.026 -26.195  0.00  0.00    +0.030 C 
ENDROOT
BRANCH   3  12
ATOM     12  C   UNL     1      35.664 -18.117 -22.578  0.00  0.00    +0.049 C 
BRANCH  12  13
ATOM     13  C   UNL     1      35.228 -19.219 -21.705  0.00  0.00    -0.018 C 
ATOM     14  C   UNL     1      33.878 -19.517 -21.610  0.00  0.00    -0.003 C 
ATOM     15  C   UNL     1      36.175 -19.939 -20.993  0.00  0.00    -0.003 C 
ATOM     16  C   UNL     1      34.406 -21.296 -20.063  0.00  0.00    +0.106 C 
ATOM     17  C   UNL     1      33.464 -20.563 -20.784  0.00  0.00    +0.018 C 
ATOM     18  C   UNL     1      35.761 -20.984 -20.168  0.00  0.00    +0.018 C 
BRANCH  16  19
ATOM     19  S   UNL     1      33.887 -22.604 -19.029  0.00  0.00    +0.010 S 
ATOM     20  O   UNL     1      32.562 -22.276 -18.522  0.00  0.00    -0.169 OA
ATOM     21  O   UNL     1      34.104 -23.867 -19.721  0.00  0.00    -0.169 OA
ATOM     22  C   UNL     1      35.022 -22.562 -17.661  0.00  0.00    +0.182 C 
ENDBRANCH  16  19
ENDBRANCH  12  13
ENDBRANCH   3  12
BRANCH   2  23
ATOM     23  C   UNL     1      33.746 -13.619 -21.478  0.00  0.00    +0.132 C 
BRANCH  23  25
ATOM     24  O   UNL     1      31.925 -14.598 -20.176  0.00  0.00    -0.250 OA
ATOM     25  C   UNL     1      32.331 -13.770 -20.977  0.00  0.00    +0.318 C 
BRANCH  25  26
ATOM     26  O   UNL     1      31.535 -12.832 -21.556  0.00  0.00    -0.480 OA
ATOM     27  H   UNL     1      31.201 -12.972 -22.421  0.00  0.00    +0.295 HD
ENDBRANCH  25  26
ENDBRANCH  23  25
ENDBRANCH   2  23
TORSDOF 6
ENDMDL
MODEL 3
REMARK VINA RESULT:     -10.5      2.008      3.268
REMARK  Name = 5472495
REMARK  6 active torsions:
REMARK  status: ('A' for Active; 'I' for Inactive)
REMARK    1  A    between atoms: C_2  and  C_23
REMARK    2  A    between atoms: C_3  and  C_7
REMARK    3  A    between atoms: C_7  and  C_13
REMARK    4  A    between atoms: C_16  and  S_19
REMARK    5  A    between atoms: C_23  and  C_25
REMARK    6  A    between atoms: C_25  and  O_26
REMARK                            x       y       z     vdW  Elec       q    Type
REMARK                         _______ _______ _______ _____ _____    ______ ____
ROOT
ATOM      1  F   UNL     1      29.969 -23.674 -13.414  0.00  0.00    -0.204 F 
ATOM      2  C   UNL     1      34.665 -23.335 -14.944  0.00  0.00    -0.030 C 
ATOM      3  C   UNL     1      34.037 -23.314 -17.152  0.00  0.00    -0.036 C 
ATOM      4  C   UNL     1      35.150 -23.269 -16.204  0.00  0.00    +0.037 C 
ATOM      5  C   UNL     1      33.196 -23.425 -15.030  0.00  0.00    -0.005 C 
ATOM      6  C   UNL     1      32.798 -23.414 -16.377  0.00  0.00    -0.008 C 
ATOM      7  C   UNL     1      32.252 -23.512 -14.018  0.00  0.00    +0.029 C 
ATOM      8  C   UNL     1      31.463 -23.489 -16.738  0.00  0.00    +0.002 C 
ATOM      9  C   UNL     1      36.571 -23.167 -16.643  0.00  0.00    +0.009 C 
ATOM     10  C   UNL     1      30.902 -23.589 -14.373  0.00  0.00    +0.140 C 
ATOM     11  C   UNL     1      30.511 -23.577 -15.721  0.00  0.00    +0.030 C 
ENDROOT
BRANCH   3  12
ATOM     12  C   UNL     1      34.107 -23.274 -18.488  0.00  0.00    +0.049 C 
BRANCH  12  13
ATOM     13  C   UNL     1      34.511 -22.111 -19.294  0.00  0.00    -0.018 C 
ATOM     14  C   UNL     1      35.857 -21.805 -19.418  0.00  0.00    -0.003 C 
ATOM     15  C   UNL     1      33.539 -21.342 -19.915  0.00  0.00    -0.003 C 
ATOM     16  C   UNL     1      35.274 -19.922 -20.814  0.00  0.00    +0.106 C 
ATOM     17  C   UNL     1      36.241 -20.703 -20.183  0.00  0.00    +0.018 C 
ATOM     18  C   UNL     1      33.923 -20.242 -20.680  0.00  0.00    +0.018 C 
BRANCH  16  19
ATOM     19  S   UNL     1      35.755 -18.543 -21.771  0.00  0.00    +0.010 S 
ATOM     20  O   UNL     1      35.267 -17.343 -21.106  0.00  0.00    -0.169 OA
ATOM     21  O   UNL     1      37.169 -18.664 -22.097  0.00  0.00    -0.169 OA
ATOM     22  C   UNL     1      34.855 -18.727 -23.294  0.00  0.00    +0.182 C 
ENDBRANCH  16  19
ENDBRANCH  12  13
ENDBRANCH   3  12
BRANCH   2  23
ATOM     23  C   UNL     1      35.376 -23.326 -13.639  0.00  0.00    +0.132 C 
BRANCH  23  25
ATOM     24  O   UNL     1      36.501 -25.495 -13.645  0.00  0.00    -0.250 OA
ATOM     25  C   UNL     1      35.664 -24.735 -13.183  0.00  0.00    +0.318 C 
BRANCH  25  26
ATOM     26  O   UNL     1      34.838 -25.063 -12.154  0.00  0.00    -0.480 OA
ATOM     27  H   UNL     1      33.957 -25.331 -12.328  0.00  0.00    +0.295 HD
ENDBRANCH  25  26
ENDBRANCH  23  25
ENDBRANCH   2  23
TORSDOF 6
ENDMDL
MODEL 4
REMARK VINA RESULT:     -10.2      4.433      9.690
REMARK  Name = 5472495
REMARK  6 active torsions:
REMARK  status: ('A' for Active; 'I' for Inactive)
REMARK    1  A    between atoms: C_2  and  C_23
REMARK    2  A    between atoms: C_3  and  C_7
REMARK    3  A    between atoms: C_7  and  C_13
REMARK    4  A    between atoms: C_16  and  S_19
REMARK    5  A    between atoms: C_23  and  C_25
REMARK    6  A    between atoms: C_25  and  O_26
REMARK                            x       y       z     vdW  Elec       q    Type
REMARK                         _______ _______ _______ _____ _____    ______ ____
ROOT
ATOM      1  F   UNL     1      33.798 -13.115 -22.598  0.00  0.00    -0.204 F 
ATOM      2  C   UNL     1      34.882 -17.613 -24.358  0.00  0.00    -0.030 C 
ATOM      3  C   UNL     1      35.706 -18.304 -22.330  0.00  0.00    -0.036 C 
ATOM      4  C   UNL     1      35.436 -18.668 -23.720  0.00  0.00    +0.037 C 
ATOM      5  C   UNL     1      34.769 -16.509 -23.388  0.00  0.00    -0.005 C 
ATOM      6  C   UNL     1      35.272 -16.918 -22.142  0.00  0.00    -0.008 C 
ATOM      7  C   UNL     1      34.268 -15.227 -23.557  0.00  0.00    +0.029 C 
ATOM      8  C   UNL     1      35.283 -16.065 -21.050  0.00  0.00    +0.002 C 
ATOM      9  C   UNL     1      35.755 -20.016 -24.270  0.00  0.00    +0.009 C 
ATOM     10  C   UNL     1      34.276 -14.358 -22.462  0.00  0.00    +0.140 C 
ATOM     11  C   UNL     1      34.780 -14.774 -21.219  0.00  0.00    +0.030 C 
ENDROOT
BRANCH   3  12
ATOM     12  C   UNL     1      36.252 -19.074 -21.381  0.00  0.00    +0.049 C 
BRANCH  12  13
ATOM     13  C   UNL     1      35.552 -20.114 -20.610  0.00  0.00    -0.018 C 
ATOM     14  C   UNL     1      36.281 -20.957 -19.787  0.00  0.00    -0.003 C 
ATOM     15  C   UNL     1      34.174 -20.231 -20.719  0.00  0.00    -0.003 C 
ATOM     16  C   UNL     1      34.233 -22.071 -19.155  0.00  0.00    +0.106 C 
ATOM     17  C   UNL     1      35.618 -21.942 -19.055  0.00  0.00    +0.018 C 
ATOM     18  C   UNL     1      33.511 -21.216 -19.987  0.00  0.00    +0.018 C 
BRANCH  16  19
ATOM     19  S   UNL     1      33.403 -23.304 -18.239  0.00  0.00    +0.010 S 
ATOM     20  O   UNL     1      32.034 -22.856 -18.021  0.00  0.00    -0.169 OA
ATOM     21  O   UNL     1      33.649 -24.600 -18.858  0.00  0.00    -0.169 OA
ATOM     22  C   UNL     1      34.230 -23.317 -16.665  0.00  0.00    +0.182 C 
ENDBRANCH  16  19
ENDBRANCH  12  13
ENDBRANCH   3  12
BRANCH   2  23
ATOM     23  C   UNL     1      34.429 -17.471 -25.765  0.00  0.00    +0.132 C 
BRANCH  23  25
ATOM     24  O   UNL     1      32.258 -18.589 -25.859  0.00  0.00    -0.250 OA
ATOM     25  C   UNL     1      32.925 -17.566 -25.850  0.00  0.00    +0.318 C 
BRANCH  25  26
ATOM     26  O   UNL     1      32.388 -16.319 -25.921  0.00  0.00    -0.480 OA
ATOM     27  H   UNL     1      32.646 -15.662 -25.305  0.00  0.00    +0.295 HD
ENDBRANCH  25  26
ENDBRANCH  23  25
ENDBRANCH   2  23
TORSDOF 6
ENDMDL
MODEL 5
REMARK VINA RESULT:      -9.5     13.266     16.741
REMARK  Name = 5472495
REMARK  6 active torsions:
REMARK  status: ('A' for Active; 'I' for Inactive)
REMARK    1  A    between atoms: C_2  and  C_23
REMARK    2  A    between atoms: C_3  and  C_7
REMARK    3  A    between atoms: C_7  and  C_13
REMARK    4  A    between atoms: C_16  and  S_19
REMARK    5  A    between atoms: C_23  and  C_25
REMARK    6  A    between atoms: C_25  and  O_26
REMARK                            x       y       z     vdW  Elec       q    Type
REMARK                         _______ _______ _______ _____ _____    ______ ____
ROOT
ATOM      1  F   UNL     1      33.744 -13.227 -24.774  0.00  0.00    -0.204 F 
ATOM      2  C   UNL     1      32.420  -9.237 -22.160  0.00  0.00    -0.030 C 
ATOM      3  C   UNL     1      33.944  -7.910 -23.248  0.00  0.00    -0.036 C 
ATOM      4  C   UNL     1      32.898  -7.975 -22.228  0.00  0.00    +0.037 C 
ATOM      5  C   UNL     1      33.149 -10.049 -23.151  0.00  0.00    -0.005 C 
ATOM      6  C   UNL     1      34.087  -9.249 -23.824  0.00  0.00    -0.008 C 
ATOM      7  C   UNL     1      33.022 -11.395 -23.461  0.00  0.00    +0.029 C 
ATOM      8  C   UNL     1      34.908  -9.769 -24.810  0.00  0.00    +0.002 C 
ATOM      9  C   UNL     1      32.485  -6.786 -21.429  0.00  0.00    +0.009 C 
ATOM     10  C   UNL     1      33.847 -11.930 -24.455  0.00  0.00    +0.140 C 
ATOM     11  C   UNL     1      34.781 -11.124 -25.124  0.00  0.00    +0.030 C 
ENDROOT
BRANCH   3  12
ATOM     12  C   UNL     1      34.659  -6.837 -23.610  0.00  0.00    +0.049 C 
BRANCH  12  13
ATOM     13  C   UNL     1      34.333  -5.919 -24.714  0.00  0.00    -0.018 C 
ATOM     14  C   UNL     1      33.061  -5.376 -24.793  0.00  0.00    -0.003 C 
ATOM     15  C   UNL     1      35.305  -5.614 -25.654  0.00  0.00    -0.003 C 
ATOM     16  C   UNL     1      33.720  -4.188 -26.790  0.00  0.00    +0.106 C 
ATOM     17  C   UNL     1      32.752  -4.504 -25.838  0.00  0.00    +0.018 C 
ATOM     18  C   UNL     1      34.997  -4.742 -26.698  0.00  0.00    +0.018 C 
BRANCH  16  19
ATOM     19  S   UNL     1      33.333  -3.097 -28.098  0.00  0.00    +0.010 S 
ATOM     20  O   UNL     1      33.590  -3.792 -29.352  0.00  0.00    -0.169 OA
ATOM     21  O   UNL     1      32.023  -2.511 -27.852  0.00  0.00    -0.169 OA
ATOM     22  C   UNL     1      34.524  -1.786 -27.946  0.00  0.00    +0.182 C 
ENDBRANCH  16  19
ENDBRANCH  12  13
ENDBRANCH   3  12
BRANCH   2  23
ATOM     23  C   UNL     1      31.362  -9.818 -21.294  0.00  0.00    +0.132 C 
BRANCH  23  25
ATOM     24  O   UNL     1      32.368  -9.665 -19.072  0.00  0.00    -0.250 OA
ATOM     25  C   UNL     1      31.955 -10.335 -20.007  0.00  0.00    +0.318 C 
BRANCH  25  26
ATOM     26  O   UNL     1      31.976 -11.695 -20.022  0.00  0.00    -0.480 OA
ATOM     27  H   UNL     1      31.533 -12.177 -19.353  0.00  0.00    +0.295 HD
ENDBRANCH  25  26
ENDBRANCH  23  25
ENDBRANCH   2  23
TORSDOF 6
ENDMDL
MODEL 6
REMARK VINA RESULT:      -9.3      8.041     13.309
REMARK  Name = 5472495
REMARK  6 active torsions:
REMARK  status: ('A' for Active; 'I' for Inactive)
REMARK    1  A    between atoms: C_2  and  C_23
REMARK    2  A    between atoms: C_3  and  C_7
REMARK    3  A    between atoms: C_7  and  C_13
REMARK    4  A    between atoms: C_16  and  S_19
REMARK    5  A    between atoms: C_23  and  C_25
REMARK    6  A    between atoms: C_25  and  O_26
REMARK                            x       y       z     vdW  Elec       q    Type
REMARK                         _______ _______ _______ _____ _____    ______ ____
ROOT
ATOM      1  F   UNL     1      30.926  -9.616 -19.518  0.00  0.00    -0.204 F 
ATOM      2  C   UNL     1      33.815  -9.792 -23.535  0.00  0.00    -0.030 C 
ATOM      3  C   UNL     1      33.385 -12.024 -23.854  0.00  0.00    -0.036 C 
ATOM      4  C   UNL     1      34.093 -10.840 -24.341  0.00  0.00    +0.037 C 
ATOM      5  C   UNL     1      32.901 -10.264 -22.479  0.00  0.00    -0.005 C 
ATOM      6  C   UNL     1      32.630 -11.631 -22.662  0.00  0.00    -0.008 C 
ATOM      7  C   UNL     1      32.332  -9.570 -21.421  0.00  0.00    +0.029 C 
ATOM      8  C   UNL     1      31.795 -12.325 -21.803  0.00  0.00    +0.002 C 
ATOM      9  C   UNL     1      34.967 -10.871 -25.548  0.00  0.00    +0.009 C 
ATOM     10  C   UNL     1      31.488 -10.263 -20.548  0.00  0.00    +0.140 C 
ATOM     11  C   UNL     1      31.222 -11.628 -20.737  0.00  0.00    +0.030 C 
ENDROOT
BRANCH   3  12
ATOM     12  C   UNL     1      33.406 -13.255 -24.379  0.00  0.00    +0.049 C 
BRANCH  12  13
ATOM     13  C   UNL     1      34.008 -14.445 -23.757  0.00  0.00    -0.018 C 
ATOM     14  C   UNL     1      34.435 -14.381 -22.440  0.00  0.00    -0.003 C 
ATOM     15  C   UNL     1      34.137 -15.610 -24.499  0.00  0.00    -0.003 C 
ATOM     16  C   UNL     1      35.139 -16.688 -22.584  0.00  0.00    +0.106 C 
ATOM     17  C   UNL     1      35.004 -15.510 -21.850  0.00  0.00    +0.018 C 
ATOM     18  C   UNL     1      34.705 -16.738 -23.908  0.00  0.00    +0.018 C 
BRANCH  16  19
ATOM     19  S   UNL     1      35.852 -18.100 -21.844  0.00  0.00    +0.010 S 
ATOM     20  O   UNL     1      37.060 -18.433 -22.586  0.00  0.00    -0.169 OA
ATOM     21  O   UNL     1      35.922 -17.895 -20.404  0.00  0.00    -0.169 OA
ATOM     22  C   UNL     1      34.664 -19.393 -22.125  0.00  0.00    +0.182 C 
ENDBRANCH  16  19
ENDBRANCH  12  13
ENDBRANCH   3  12
BRANCH   2  23
ATOM     23  C   UNL     1      34.279  -8.382 -23.597  0.00  0.00    +0.132 C 
BRANCH  23  25
ATOM     24  O   UNL     1      32.055  -7.585 -24.223  0.00  0.00    -0.250 OA
ATOM     25  C   UNL     1      33.103  -7.437 -23.611  0.00  0.00    +0.318 C 
BRANCH  25  26
ATOM     26  O   UNL     1      33.370  -6.356 -22.831  0.00  0.00    -0.480 OA
ATOM     27  H   UNL     1      33.482  -6.463 -21.907  0.00  0.00    +0.295 HD
ENDBRANCH  25  26
ENDBRANCH  23  25
ENDBRANCH   2  23
TORSDOF 6
ENDMDL
MODEL 7
REMARK VINA RESULT:      -9.2      4.222      6.469
REMARK  Name = 5472495
REMARK  6 active torsions:
REMARK  status: ('A' for Active; 'I' for Inactive)
REMARK    1  A    between atoms: C_2  and  C_23
REMARK    2  A    between atoms: C_3  and  C_7
REMARK    3  A    between atoms: C_7  and  C_13
REMARK    4  A    between atoms: C_16  and  S_19
REMARK    5  A    between atoms: C_23  and  C_25
REMARK    6  A    between atoms: C_25  and  O_26
REMARK                            x       y       z     vdW  Elec       q    Type
REMARK                         _______ _______ _______ _____ _____    ______ ____
ROOT
ATOM      1  F   UNL     1      33.612 -21.856 -19.758  0.00  0.00    -0.204 F 
ATOM      2  C   UNL     1      31.659 -24.093 -15.796  0.00  0.00    -0.030 C 
ATOM      3  C   UNL     1      33.695 -24.197 -14.742  0.00  0.00    -0.036 C 
ATOM      4  C   UNL     1      32.268 -24.507 -14.664  0.00  0.00    +0.037 C 
ATOM      5  C   UNL     1      32.685 -23.487 -16.664  0.00  0.00    -0.005 C 
ATOM      6  C   UNL     1      33.938 -23.545 -16.031  0.00  0.00    -0.008 C 
ATOM      7  C   UNL     1      32.560 -22.919 -17.924  0.00  0.00    +0.029 C 
ATOM      8  C   UNL     1      35.079 -23.043 -16.634  0.00  0.00    +0.002 C 
ATOM      9  C   UNL     1      31.660 -25.180 -13.481  0.00  0.00    +0.009 C 
ATOM     10  C   UNL     1      33.706 -22.410 -18.541  0.00  0.00    +0.140 C 
ATOM     11  C   UNL     1      34.954 -22.472 -17.902  0.00  0.00    +0.030 C 
ENDROOT
BRANCH   3  12
ATOM     12  C   UNL     1      34.633 -24.451 -13.821  0.00  0.00    +0.049 C 
BRANCH  12  13
ATOM     13  C   UNL     1      36.045 -24.761 -14.095  0.00  0.00    -0.018 C 
ATOM     14  C   UNL     1      37.027 -23.866 -13.699  0.00  0.00    -0.003 C 
ATOM     15  C   UNL     1      36.370 -25.943 -14.742  0.00  0.00    -0.003 C 
ATOM     16  C   UNL     1      38.706 -25.345 -14.607  0.00  0.00    +0.106 C 
ATOM     17  C   UNL     1      38.366 -24.160 -13.957  0.00  0.00    +0.018 C 
ATOM     18  C   UNL     1      37.709 -26.237 -15.000  0.00  0.00    +0.018 C 
BRANCH  16  19
ATOM     19  S   UNL     1      40.382 -25.712 -14.930  0.00  0.00    +0.010 S 
ATOM     20  O   UNL     1      40.485 -26.162 -16.312  0.00  0.00    -0.169 OA
ATOM     21  O   UNL     1      41.207 -24.604 -14.468  0.00  0.00    -0.169 OA
ATOM     22  C   UNL     1      40.742 -27.099 -13.876  0.00  0.00    +0.182 C 
ENDBRANCH  16  19
ENDBRANCH  12  13
ENDBRANCH   3  12
BRANCH   2  23
ATOM     23  C   UNL     1      30.233 -24.174 -16.206  0.00  0.00    +0.132 C 
BRANCH  23  25
ATOM     24  O   UNL     1      29.456 -22.415 -14.698  0.00  0.00    -0.250 OA
ATOM     25  C   UNL     1      29.496 -22.919 -15.811  0.00  0.00    +0.318 C 
BRANCH  25  26
ATOM     26  O   UNL     1      28.854 -22.402 -16.892  0.00  0.00    -0.480 OA
ATOM     27  H   UNL     1      29.314 -22.292 -17.701  0.00  0.00    +0.295 HD
ENDBRANCH  25  26
ENDBRANCH  23  25
ENDBRANCH   2  23
TORSDOF 6
ENDMDL
MODEL 8
REMARK VINA RESULT:      -9.2      4.469      6.945
REMARK  Name = 5472495
REMARK  6 active torsions:
REMARK  status: ('A' for Active; 'I' for Inactive)
REMARK    1  A    between atoms: C_2  and  C_23
REMARK    2  A    between atoms: C_3  and  C_7
REMARK    3  A    between atoms: C_7  and  C_13
REMARK    4  A    between atoms: C_16  and  S_19
REMARK    5  A    between atoms: C_23  and  C_25
REMARK    6  A    between atoms: C_25  and  O_26
REMARK                            x       y       z     vdW  Elec       q    Type
REMARK                         _______ _______ _______ _____ _____    ______ ____
ROOT
ATOM      1  F   UNL     1      37.076 -22.283 -17.783  0.00  0.00    -0.204 F 
ATOM      2  C   UNL     1      36.670 -24.046 -13.174  0.00  0.00    -0.030 C 
ATOM      3  C   UNL     1      34.401 -24.319 -13.385  0.00  0.00    -0.036 C 
ATOM      4  C   UNL     1      35.567 -24.461 -12.514  0.00  0.00    +0.037 C 
ATOM      5  C   UNL     1      36.254 -23.614 -14.521  0.00  0.00    -0.005 C 
ATOM      6  C   UNL     1      34.865 -23.775 -14.663  0.00  0.00    -0.008 C 
ATOM      7  C   UNL     1      37.014 -23.112 -15.567  0.00  0.00    +0.029 C 
ATOM      8  C   UNL     1      34.214 -23.441 -15.839  0.00  0.00    +0.002 C 
ATOM      9  C   UNL     1      35.467 -24.989 -11.123  0.00  0.00    +0.009 C 
ATOM     10  C   UNL     1      36.365 -22.771 -16.757  0.00  0.00    +0.140 C 
ATOM     11  C   UNL     1      34.978 -22.935 -16.892  0.00  0.00    +0.030 C 
ENDROOT
BRANCH   3  12
ATOM     12  C   UNL     1      33.129 -24.620 -13.095  0.00  0.00    +0.049 C 
BRANCH  12  13
ATOM     13  C   UNL     1      31.963 -24.341 -13.948  0.00  0.00    -0.018 C 
ATOM     14  C   UNL     1      31.294 -25.394 -14.551  0.00  0.00    -0.003 C 
ATOM     15  C   UNL     1      31.554 -23.029 -14.133  0.00  0.00    -0.003 C 
ATOM     16  C   UNL     1      29.764 -23.814 -15.552  0.00  0.00    +0.106 C 
ATOM     17  C   UNL     1      30.187 -25.129 -15.358  0.00  0.00    +0.018 C 
ATOM     18  C   UNL     1      30.447 -22.764 -14.939  0.00  0.00    +0.018 C 
BRANCH  16  19
ATOM     19  S   UNL     1      28.380 -23.484 -16.563  0.00  0.00    +0.010 S 
ATOM     20  O   UNL     1      28.768 -22.476 -17.540  0.00  0.00    -0.169 OA
ATOM     21  O   UNL     1      27.812 -24.747 -17.015  0.00  0.00    -0.169 OA
ATOM     22  C   UNL     1      27.193 -22.749 -15.461  0.00  0.00    +0.182 C 
ENDBRANCH  16  19
ENDBRANCH  12  13
ENDBRANCH   3  12
BRANCH   2  23
ATOM     23  C   UNL     1      38.088 -23.989 -12.736  0.00  0.00    +0.132 C 
BRANCH  23  25
ATOM     24  O   UNL     1      38.499 -26.398 -12.772  0.00  0.00    -0.250 OA
ATOM     25  C   UNL     1      38.808 -25.263 -13.103  0.00  0.00    +0.318 C 
BRANCH  25  26
ATOM     26  O   UNL     1      39.889 -24.976 -13.877  0.00  0.00    -0.480 OA
ATOM     27  H   UNL     1      39.899 -25.229 -14.779  0.00  0.00    +0.295 HD
ENDBRANCH  25  26
ENDBRANCH  23  25
ENDBRANCH   2  23
TORSDOF 6
ENDMDL
MODEL 9
REMARK VINA RESULT:      -8.7     12.143     16.253
REMARK  Name = 5472495
REMARK  6 active torsions:
REMARK  status: ('A' for Active; 'I' for Inactive)
REMARK    1  A    between atoms: C_2  and  C_23
REMARK    2  A    between atoms: C_3  and  C_7
REMARK    3  A    between atoms: C_7  and  C_13
REMARK    4  A    between atoms: C_16  and  S_19
REMARK    5  A    between atoms: C_23  and  C_25
REMARK    6  A    between atoms: C_25  and  O_26
REMARK                            x       y       z     vdW  Elec       q    Type
REMARK                         _______ _______ _______ _____ _____    ______ ____
ROOT
ATOM      1  F   UNL     1      30.448 -10.137 -19.120  0.00  0.00    -0.204 F 
ATOM      2  C   UNL     1      33.082 -10.836 -23.253  0.00  0.00    -0.030 C 
ATOM      3  C   UNL     1      33.968  -8.721 -23.151  0.00  0.00    -0.036 C 
ATOM      4  C   UNL     1      33.920  -9.985 -23.885  0.00  0.00    +0.037 C 
ATOM      5  C   UNL     1      32.548 -10.145 -22.065  0.00  0.00    -0.005 C 
ATOM      6  C   UNL     1      33.083  -8.847 -21.991  0.00  0.00    -0.008 C 
ATOM      7  C   UNL     1      31.657 -10.594 -21.102  0.00  0.00    +0.029 C 
ATOM      8  C   UNL     1      32.742  -7.982 -20.965  0.00  0.00    +0.002 C 
ATOM      9  C   UNL     1      34.704 -10.217 -25.131  0.00  0.00    +0.009 C 
ATOM     10  C   UNL     1      31.307  -9.727 -20.063  0.00  0.00    +0.140 C 
ATOM     11  C   UNL     1      31.845  -8.432 -19.995  0.00  0.00    +0.030 C 
ENDROOT
BRANCH   3  12
ATOM     12  C   UNL     1      34.681  -7.631 -23.458  0.00  0.00    +0.049 C 
BRANCH  12  13
ATOM     13  C   UNL     1      34.185  -6.461 -24.202  0.00  0.00    -0.018 C 
ATOM     14  C   UNL     1      34.936  -5.954 -25.250  0.00  0.00    -0.003 C 
ATOM     15  C   UNL     1      32.975  -5.888 -23.841  0.00  0.00    -0.003 C 
ATOM     16  C   UNL     1      33.250  -4.260 -25.604  0.00  0.00    +0.106 C 
ATOM     17  C   UNL     1      34.466  -4.846 -25.956  0.00  0.00    +0.018 C 
ATOM     18  C   UNL     1      32.505  -4.782 -24.547  0.00  0.00    +0.018 C 
BRANCH  16  19
ATOM     19  S   UNL     1      32.663  -2.874 -26.488  0.00  0.00    +0.010 S 
ATOM     20  O   UNL     1      32.338  -3.309 -27.840  0.00  0.00    -0.169 OA
ATOM     21  O   UNL     1      31.654  -2.195 -25.687  0.00  0.00    -0.169 OA
ATOM     22  C   UNL     1      34.065  -1.786 -26.587  0.00  0.00    +0.182 C 
ENDBRANCH  16  19
ENDBRANCH  12  13
ENDBRANCH   3  12
BRANCH   2  23
ATOM     23  C   UNL     1      32.691 -12.229 -23.591  0.00  0.00    +0.132 C 
BRANCH  23  25
ATOM     24  O   UNL     1      32.982 -13.738 -21.691  0.00  0.00    -0.250 OA
ATOM     25  C   UNL     1      33.415 -13.212 -22.706  0.00  0.00    +0.318 C 
BRANCH  25  26
ATOM     26  O   UNL     1      34.661 -13.445 -23.198  0.00  0.00    -0.480 OA
ATOM     27  H   UNL     1      34.773 -13.665 -24.102  0.00  0.00    +0.295 HD
ENDBRANCH  25  26
ENDBRANCH  23  25
ENDBRANCH   2  23
TORSDOF 6
ENDMDL
