MODEL 1
REMARK VINA RESULT:     -11.9      0.000      0.000
REMARK  Name = 5327153
REMARK  6 active torsions:
REMARK  status: ('A' for Active; 'I' for Inactive)
REMARK    1  A    between atoms: C_3  and  C_15
REMARK    2  A    between atoms: C_10  and  O_24
REMARK    3  A    between atoms: C_11  and  N_18
REMARK    4  A    between atoms: N_18  and  S_20
REMARK    5  A    between atoms: O_24  and  C_25
REMARK    6  A    between atoms: C_25  and  C_26
REMARK                            x       y       z     vdW  Elec       q    Type
REMARK                         _______ _______ _______ _____ _____    ______ ____
ROOT
ATOM      1  O   UNL     1      37.394 -22.180 -16.487  0.00  0.00    -0.226 OA
ATOM      2  N   UNL     1      35.287 -23.118 -16.147  0.00  0.00    -0.235 N 
ATOM      3  C   UNL     1      35.606 -23.606 -14.805  0.00  0.00    +0.159 C 
ATOM      4  C   UNL     1      34.476 -23.362 -13.809  0.00  0.00    +0.055 C 
ATOM      5  C   UNL     1      33.982 -23.473 -16.725  0.00  0.00    +0.124 C 
ATOM      6  C   UNL     1      33.121 -23.735 -14.349  0.00  0.00    -0.022 C 
ATOM      7  C   UNL     1      32.889 -23.768 -15.732  0.00  0.00    -0.005 C 
ATOM      8  C   UNL     1      31.610 -24.095 -16.206  0.00  0.00    +0.013 C 
ATOM      9  C   UNL     1      32.068 -24.002 -13.462  0.00  0.00    -0.003 C 
ATOM     10  C   UNL     1      36.286 -22.499 -16.915  0.00  0.00    +0.406 C 
ATOM     11  C   UNL     1      30.572 -24.372 -15.317  0.00  0.00    +0.065 C 
ATOM     12  C   UNL     1      30.801 -24.323 -13.945  0.00  0.00    +0.016 C 
ENDROOT
BRANCH   3  15
ATOM     13  O   UNL     1      35.504 -25.753 -15.852  0.00  0.00    -0.273 OA
ATOM     14  N   UNL     1      36.794 -25.496 -13.931  0.00  0.00    -0.301 N 
ATOM     15  C   UNL     1      35.953 -25.062 -14.942  0.00  0.00    +0.241 C 
ATOM     16  C   UNL     1      37.258 -26.860 -13.822  0.00  0.00    +0.111 C 
ATOM     17  H   UNL     1      37.089 -24.845 -13.254  0.00  0.00    +0.150 HD
ENDBRANCH   3  15
BRANCH  11  18
ATOM     18  N   UNL     1      29.275 -24.701 -15.815  0.00  0.00    -0.213 N 
ATOM     19  H   UNL     1      28.917 -25.617 -15.758  0.00  0.00    +0.174 HD
BRANCH  18  20
ATOM     20  S   UNL     1      28.363 -23.410 -16.525  0.00  0.00    +0.091 S 
ATOM     21  O   UNL     1      27.509 -24.122 -17.718  0.00  0.00    -0.050 OA
ATOM     22  O   UNL     1      27.419 -22.910 -15.542  0.00  0.00    -0.050 OA
ATOM     23  O   UNL     1      29.301 -22.498 -17.156  0.00  0.00    -0.050 OA
ENDBRANCH  18  20
ENDBRANCH  11  18
BRANCH  10  24
ATOM     24  O   UNL     1      35.897 -22.292 -18.213  0.00  0.00    -0.430 OA
BRANCH  24  25
ATOM     25  C   UNL     1      36.876 -21.705 -19.078  0.00  0.00    +0.237 C 
BRANCH  25  26
ATOM     26  C   UNL     1      36.188 -20.778 -20.036  0.00  0.00    +0.021 C 
ATOM     27  C   UNL     1      34.836 -20.950 -20.310  0.00  0.00    -0.001 C 
ATOM     28  C   UNL     1      36.910 -19.756 -20.643  0.00  0.00    -0.001 C 
ATOM     29  C   UNL     1      34.197 -20.088 -21.200  0.00  0.00    -0.000 C 
ATOM     30  C   UNL     1      36.270 -18.894 -21.534  0.00  0.00    -0.000 C 
ATOM     31  C   UNL     1      34.914 -19.060 -21.813  0.00  0.00    -0.000 C 
ENDBRANCH  25  26
ENDBRANCH  24  25
ENDBRANCH  10  24
TORSDOF 6
ENDMDL
