MODEL 1
REMARK VINA RESULT:     -11.1      0.000      0.000
REMARK  Name = 4823
REMARK  3 active torsions:
REMARK  status: ('A' for Active; 'I' for Inactive)
REMARK    1  A    between atoms: C_3  and  C_16
REMARK    2  A    between atoms: C_9  and  C_21
REMARK    3  A    between atoms: C_26  and  O_27
REMARK                            x       y       z     vdW  Elec       q    Type
REMARK                         _______ _______ _______ _____ _____    ______ ____
ROOT
ATOM      1  N   UNL     1      35.688 -20.505 -20.401  0.00  0.00    -0.315 N 
ATOM      2  N   UNL     1      33.498 -20.759 -20.678  0.00  0.00    -0.315 N 
ATOM      3  C   UNL     1      35.241 -22.811 -17.526  0.00  0.00    +0.016 C 
ATOM      4  C   UNL     1      35.290 -21.357 -19.403  0.00  0.00    +0.059 C 
ATOM      5  C   UNL     1      35.989 -21.996 -18.379  0.00  0.00    +0.017 C 
ATOM      6  C   UNL     1      33.918 -21.501 -19.598  0.00  0.00    +0.059 C 
ATOM      7  C   UNL     1      33.867 -22.978 -17.692  0.00  0.00    +0.003 C 
ATOM      8  C   UNL     1      33.186 -22.326 -18.728  0.00  0.00    +0.016 C 
ATOM      9  C   UNL     1      34.583 -20.177 -21.135  0.00  0.00    +0.168 C 
ATOM     10  H   UNL     1      36.606 -20.187 -20.559  0.00  0.00    +0.149 HD
ATOM     11  H   UNL     1      32.582 -20.683 -21.032  0.00  0.00    +0.149 HD
ENDROOT
BRANCH   3  16
ATOM     12  O   UNL     1      38.016 -25.688 -13.725  0.00  0.00    -0.273 OA
ATOM     13  N   UNL     1      37.199 -23.292 -16.207  0.00  0.00    -0.184 NA
ATOM     14  N   UNL     1      37.845 -23.964 -15.227  0.00  0.00    -0.206 N 
ATOM     15  C   UNL     1      35.147 -24.475 -15.513  0.00  0.00    +0.051 C 
ATOM     16  C   UNL     1      35.937 -23.526 -16.405  0.00  0.00    +0.076 C 
ATOM     17  C   UNL     1      36.062 -25.615 -15.099  0.00  0.00    +0.093 C 
ATOM     18  C   UNL     1      34.597 -23.723 -14.300  0.00  0.00    +0.007 C 
ATOM     19  C   UNL     1      37.380 -25.095 -14.596  0.00  0.00    +0.241 C 
ATOM     20  H   UNL     1      38.720 -23.616 -14.942  0.00  0.00    +0.177 HD
ENDBRANCH   3  16
BRANCH   9  21
ATOM     21  C   UNL     1      34.656 -19.289 -22.271  0.00  0.00    +0.015 C 
ATOM     22  C   UNL     1      35.312 -18.064 -22.157  0.00  0.00    +0.002 C 
ATOM     23  C   UNL     1      34.069 -19.656 -23.482  0.00  0.00    +0.002 C 
ATOM     24  C   UNL     1      35.383 -17.206 -23.255  0.00  0.00    +0.037 C 
ATOM     25  C   UNL     1      34.140 -18.799 -24.579  0.00  0.00    +0.037 C 
ATOM     26  C   UNL     1      34.797 -17.574 -24.466  0.00  0.00    +0.139 C 
BRANCH  26  27
ATOM     27  O   UNL     1      34.866 -16.737 -25.536  0.00  0.00    -0.471 OA
ATOM     28  C   UNL     1      33.656 -16.095 -25.939  0.00  0.00    +0.252 C 
ENDBRANCH  26  27
ENDBRANCH   9  21
TORSDOF 3
ENDMDL
MODEL 2
REMARK VINA RESULT:     -11.0      1.180      1.699
REMARK  Name = 4823
REMARK  3 active torsions:
REMARK  status: ('A' for Active; 'I' for Inactive)
REMARK    1  A    between atoms: C_3  and  C_16
REMARK    2  A    between atoms: C_9  and  C_21
REMARK    3  A    between atoms: C_26  and  O_27
REMARK                            x       y       z     vdW  Elec       q    Type
REMARK                         _______ _______ _______ _____ _____    ______ ____
ROOT
ATOM      1  N   UNL     1      35.648 -20.749 -19.877  0.00  0.00    -0.315 N 
ATOM      2  N   UNL     1      33.483 -21.006 -20.308  0.00  0.00    -0.315 N 
ATOM      3  C   UNL     1      35.023 -23.132 -17.100  0.00  0.00    +0.016 C 
ATOM      4  C   UNL     1      35.189 -21.629 -18.931  0.00  0.00    +0.059 C 
ATOM      5  C   UNL     1      35.821 -22.291 -17.879  0.00  0.00    +0.017 C 
ATOM      6  C   UNL     1      33.834 -21.773 -19.222  0.00  0.00    +0.059 C 
ATOM      7  C   UNL     1      33.664 -23.300 -17.362  0.00  0.00    +0.003 C 
ATOM      8  C   UNL     1      33.050 -22.624 -18.425  0.00  0.00    +0.016 C 
ATOM      9  C   UNL     1      34.593 -20.406 -20.675  0.00  0.00    +0.168 C 
ATOM     10  H   UNL     1      36.573 -20.423 -19.964  0.00  0.00    +0.149 HD
ATOM     11  H   UNL     1      32.593 -20.924 -20.721  0.00  0.00    +0.149 HD
ENDROOT
BRANCH   3  16
ATOM     12  O   UNL     1      36.903 -25.832 -12.673  0.00  0.00    -0.273 OA
ATOM     13  N   UNL     1      35.295 -25.108 -15.748  0.00  0.00    -0.184 NA
ATOM     14  N   UNL     1      35.817 -25.770 -14.691  0.00  0.00    -0.206 N 
ATOM     15  C   UNL     1      36.688 -23.181 -15.087  0.00  0.00    +0.051 C 
ATOM     16  C   UNL     1      35.645 -23.874 -15.953  0.00  0.00    +0.076 C 
ATOM     17  C   UNL     1      36.538 -23.687 -13.661  0.00  0.00    +0.093 C 
ATOM     18  C   UNL     1      38.091 -23.446 -15.636  0.00  0.00    +0.007 C 
ATOM     19  C   UNL     1      36.466 -25.189 -13.627  0.00  0.00    +0.241 C 
ATOM     20  H   UNL     1      35.725 -26.751 -14.683  0.00  0.00    +0.177 HD
ENDBRANCH   3  16
BRANCH   9  21
ATOM     21  C   UNL     1      34.737 -19.489 -21.780  0.00  0.00    +0.015 C 
ATOM     22  C   UNL     1      34.172 -19.795 -23.017  0.00  0.00    +0.002 C 
ATOM     23  C   UNL     1      35.443 -18.298 -21.610  0.00  0.00    +0.002 C 
ATOM     24  C   UNL     1      34.311 -18.908 -24.086  0.00  0.00    +0.037 C 
ATOM     25  C   UNL     1      35.582 -17.412 -22.677  0.00  0.00    +0.037 C 
ATOM     26  C   UNL     1      35.016 -17.717 -23.915  0.00  0.00    +0.139 C 
BRANCH  26  27
ATOM     27  O   UNL     1      35.152 -16.852 -24.957  0.00  0.00    -0.471 OA
ATOM     28  C   UNL     1      33.954 -16.400 -25.588  0.00  0.00    +0.252 C 
ENDBRANCH  26  27
ENDBRANCH   9  21
TORSDOF 3
ENDMDL
MODEL 3
REMARK VINA RESULT:     -10.8      8.585     13.920
REMARK  Name = 4823
REMARK  3 active torsions:
REMARK  status: ('A' for Active; 'I' for Inactive)
REMARK    1  A    between atoms: C_3  and  C_16
REMARK    2  A    between atoms: C_9  and  C_21
REMARK    3  A    between atoms: C_26  and  O_27
REMARK                            x       y       z     vdW  Elec       q    Type
REMARK                         _______ _______ _______ _____ _____    ______ ____
ROOT
ATOM      1  N   UNL     1      33.404 -11.924 -24.196  0.00  0.00    -0.315 N 
ATOM      2  N   UNL     1      32.550 -12.925 -22.405  0.00  0.00    -0.315 N 
ATOM      3  C   UNL     1      32.312  -8.788 -22.537  0.00  0.00    +0.016 C 
ATOM      4  C   UNL     1      32.920 -10.912 -23.408  0.00  0.00    +0.059 C 
ATOM      5  C   UNL     1      32.899  -9.526 -23.566  0.00  0.00    +0.017 C 
ATOM      6  C   UNL     1      32.393 -11.562 -22.295  0.00  0.00    +0.059 C 
ATOM      7  C   UNL     1      31.773  -9.406 -21.409  0.00  0.00    +0.003 C 
ATOM      8  C   UNL     1      31.805 -10.800 -21.272  0.00  0.00    +0.016 C 
ATOM      9  C   UNL     1      33.159 -13.106 -23.555  0.00  0.00    +0.168 C 
ATOM     10  H   UNL     1      33.848 -11.818 -25.069  0.00  0.00    +0.149 HD
ATOM     11  H   UNL     1      32.268 -13.614 -21.761  0.00  0.00    +0.149 HD
ENDROOT
BRANCH   3  16
ATOM     12  O   UNL     1      31.663  -3.324 -22.916  0.00  0.00    -0.273 OA
ATOM     13  N   UNL     1      31.941  -6.602 -21.595  0.00  0.00    -0.184 NA
ATOM     14  N   UNL     1      31.849  -5.257 -21.697  0.00  0.00    -0.206 N 
ATOM     15  C   UNL     1      32.612  -6.624 -23.970  0.00  0.00    +0.051 C 
ATOM     16  C   UNL     1      32.260  -7.293 -22.648  0.00  0.00    +0.076 C 
ATOM     17  C   UNL     1      31.746  -5.384 -24.124  0.00  0.00    +0.093 C 
ATOM     18  C   UNL     1      34.102  -6.281 -24.008  0.00  0.00    +0.007 C 
ATOM     19  C   UNL     1      31.771  -4.549 -22.874  0.00  0.00    +0.241 C 
ATOM     20  H   UNL     1      31.836  -4.740 -20.858  0.00  0.00    +0.177 HD
ENDBRANCH   3  16
BRANCH   9  21
ATOM     21  C   UNL     1      33.547 -14.376 -24.119  0.00  0.00    +0.015 C 
ATOM     22  C   UNL     1      34.383 -15.231 -23.402  0.00  0.00    +0.002 C 
ATOM     23  C   UNL     1      33.088 -14.748 -25.383  0.00  0.00    +0.002 C 
ATOM     24  C   UNL     1      34.758 -16.459 -23.947  0.00  0.00    +0.037 C 
ATOM     25  C   UNL     1      33.463 -15.975 -25.928  0.00  0.00    +0.037 C 
ATOM     26  C   UNL     1      34.298 -16.831 -25.210  0.00  0.00    +0.139 C 
BRANCH  26  27
ATOM     27  O   UNL     1      34.664 -18.029 -25.742  0.00  0.00    -0.471 OA
ATOM     28  C   UNL     1      33.768 -19.124 -25.555  0.00  0.00    +0.252 C 
ENDBRANCH  26  27
ENDBRANCH   9  21
TORSDOF 3
ENDMDL
MODEL 4
REMARK VINA RESULT:     -10.8      2.316      3.085
REMARK  Name = 4823
REMARK  3 active torsions:
REMARK  status: ('A' for Active; 'I' for Inactive)
REMARK    1  A    between atoms: C_3  and  C_16
REMARK    2  A    between atoms: C_9  and  C_21
REMARK    3  A    between atoms: C_26  and  O_27
REMARK                            x       y       z     vdW  Elec       q    Type
REMARK                         _______ _______ _______ _____ _____    ______ ____
ROOT
ATOM      1  N   UNL     1      33.573 -20.318 -21.036  0.00  0.00    -0.315 N 
ATOM      2  N   UNL     1      35.792 -20.352 -21.153  0.00  0.00    -0.315 N 
ATOM      3  C   UNL     1      34.042 -22.484 -18.059  0.00  0.00    +0.016 C 
ATOM      4  C   UNL     1      33.982 -21.096 -19.985  0.00  0.00    +0.059 C 
ATOM      5  C   UNL     1      33.279 -21.775 -18.989  0.00  0.00    +0.017 C 
ATOM      6  C   UNL     1      35.372 -21.102 -20.079  0.00  0.00    +0.059 C 
ATOM      7  C   UNL     1      35.434 -22.512 -18.123  0.00  0.00    +0.003 C 
ATOM      8  C   UNL     1      36.119 -21.822 -19.132  0.00  0.00    +0.016 C 
ATOM      9  C   UNL     1      34.689 -19.897 -21.704  0.00  0.00    +0.168 C 
ATOM     10  H   UNL     1      32.641 -20.101 -21.269  0.00  0.00    +0.149 HD
ATOM     11  H   UNL     1      36.719 -20.191 -21.445  0.00  0.00    +0.149 HD
ENDROOT
BRANCH   3  16
ATOM     12  O   UNL     1      31.188 -24.882 -13.993  0.00  0.00    -0.273 OA
ATOM     13  N   UNL     1      32.164 -23.723 -17.198  0.00  0.00    -0.184 NA
ATOM     14  N   UNL     1      31.508 -24.362 -16.203  0.00  0.00    -0.206 N 
ATOM     15  C   UNL     1      34.041 -23.431 -15.623  0.00  0.00    +0.051 C 
ATOM     16  C   UNL     1      33.343 -23.233 -16.962  0.00  0.00    +0.076 C 
ATOM     17  C   UNL     1      32.988 -23.404 -14.527  0.00  0.00    +0.093 C 
ATOM     18  C   UNL     1      34.822 -24.747 -15.624  0.00  0.00    +0.007 C 
ATOM     19  C   UNL     1      31.831 -24.301 -14.868  0.00  0.00    +0.241 C 
ATOM     20  H   UNL     1      30.734 -24.917 -16.456  0.00  0.00    +0.177 HD
ENDBRANCH   3  16
BRANCH   9  21
ATOM     21  C   UNL     1      34.609 -19.052 -22.871  0.00  0.00    +0.015 C 
ATOM     22  C   UNL     1      34.034 -19.538 -24.045  0.00  0.00    +0.002 C 
ATOM     23  C   UNL     1      35.109 -17.750 -22.825  0.00  0.00    +0.002 C 
ATOM     24  C   UNL     1      33.957 -18.721 -25.173  0.00  0.00    +0.037 C 
ATOM     25  C   UNL     1      35.031 -16.934 -23.953  0.00  0.00    +0.037 C 
ATOM     26  C   UNL     1      34.455 -17.419 -25.127  0.00  0.00    +0.139 C 
BRANCH  26  27
ATOM     27  O   UNL     1      34.379 -16.623 -26.227  0.00  0.00    -0.471 OA
ATOM     28  C   UNL     1      33.513 -15.491 -26.153  0.00  0.00    +0.252 C 
ENDBRANCH  26  27
ENDBRANCH   9  21
TORSDOF 3
ENDMDL
MODEL 5
REMARK VINA RESULT:     -10.4      2.768      9.416
REMARK  Name = 4823
REMARK  3 active torsions:
REMARK  status: ('A' for Active; 'I' for Inactive)
REMARK    1  A    between atoms: C_3  and  C_16
REMARK    2  A    between atoms: C_9  and  C_21
REMARK    3  A    between atoms: C_26  and  O_27
REMARK                            x       y       z     vdW  Elec       q    Type
REMARK                         _______ _______ _______ _____ _____    ______ ____
ROOT
ATOM      1  N   UNL     1      32.753 -21.627 -19.124  0.00  0.00    -0.315 N 
ATOM      2  N   UNL     1      34.685 -22.388 -18.332  0.00  0.00    -0.315 N 
ATOM      3  C   UNL     1      34.853 -20.002 -21.718  0.00  0.00    +0.016 C 
ATOM      4  C   UNL     1      33.714 -21.129 -19.965  0.00  0.00    +0.059 C 
ATOM      5  C   UNL     1      33.642 -20.317 -21.097  0.00  0.00    +0.017 C 
ATOM      6  C   UNL     1      34.912 -21.618 -19.450  0.00  0.00    +0.059 C 
ATOM      7  C   UNL     1      36.070 -20.474 -21.229  0.00  0.00    +0.003 C 
ATOM      8  C   UNL     1      36.118 -21.288 -20.090  0.00  0.00    +0.016 C 
ATOM      9  C   UNL     1      33.382 -22.372 -18.166  0.00  0.00    +0.168 C 
ATOM     10  H   UNL     1      31.783 -21.475 -19.197  0.00  0.00    +0.149 HD
ATOM     11  H   UNL     1      35.355 -22.851 -17.778  0.00  0.00    +0.149 HD
ENDROOT
BRANCH   3  16
ATOM     12  O   UNL     1      34.548 -16.514 -25.980  0.00  0.00    -0.273 OA
ATOM     13  N   UNL     1      35.517 -18.025 -22.923  0.00  0.00    -0.184 NA
ATOM     14  N   UNL     1      35.477 -17.214 -24.004  0.00  0.00    -0.206 N 
ATOM     15  C   UNL     1      34.073 -19.584 -24.177  0.00  0.00    +0.051 C 
ATOM     16  C   UNL     1      34.841 -19.133 -22.941  0.00  0.00    +0.076 C 
ATOM     17  C   UNL     1      33.506 -18.352 -24.863  0.00  0.00    +0.093 C 
ATOM     18  C   UNL     1      34.991 -20.377 -25.109  0.00  0.00    +0.007 C 
ATOM     19  C   UNL     1      34.560 -17.291 -25.026  0.00  0.00    +0.241 C 
ATOM     20  H   UNL     1      36.162 -16.509 -24.065  0.00  0.00    +0.177 HD
ENDBRANCH   3  16
BRANCH   9  21
ATOM     21  C   UNL     1      32.652 -23.043 -17.117  0.00  0.00    +0.015 C 
ATOM     22  C   UNL     1      31.257 -23.029 -17.120  0.00  0.00    +0.002 C 
ATOM     23  C   UNL     1      33.341 -23.703 -16.100  0.00  0.00    +0.002 C 
ATOM     24  C   UNL     1      30.551 -23.678 -16.107  0.00  0.00    +0.037 C 
ATOM     25  C   UNL     1      32.635 -24.352 -15.087  0.00  0.00    +0.037 C 
ATOM     26  C   UNL     1      31.240 -24.339 -15.091  0.00  0.00    +0.139 C 
BRANCH  26  27
ATOM     27  O   UNL     1      30.551 -24.971 -14.102  0.00  0.00    -0.471 OA
ATOM     28  C   UNL     1      29.310 -25.579 -14.460  0.00  0.00    +0.252 C 
ENDBRANCH  26  27
ENDBRANCH   9  21
TORSDOF 3
ENDMDL
MODEL 6
REMARK VINA RESULT:     -10.2      1.689      9.440
REMARK  Name = 4823
REMARK  3 active torsions:
REMARK  status: ('A' for Active; 'I' for Inactive)
REMARK    1  A    between atoms: C_3  and  C_16
REMARK    2  A    between atoms: C_9  and  C_21
REMARK    3  A    between atoms: C_26  and  O_27
REMARK                            x       y       z     vdW  Elec       q    Type
REMARK                         _______ _______ _______ _____ _____    ______ ____
ROOT
ATOM      1  N   UNL     1      36.053 -21.604 -18.884  0.00  0.00    -0.315 N 
ATOM      2  N   UNL     1      34.001 -22.239 -18.318  0.00  0.00    -0.315 N 
ATOM      3  C   UNL     1      34.372 -19.910 -21.727  0.00  0.00    +0.016 C 
ATOM      4  C   UNL     1      35.229 -21.068 -19.839  0.00  0.00    +0.059 C 
ATOM      5  C   UNL     1      35.480 -20.283 -20.964  0.00  0.00    +0.017 C 
ATOM      6  C   UNL     1      33.952 -21.478 -19.463  0.00  0.00    +0.059 C 
ATOM      7  C   UNL     1      33.080 -20.302 -21.380  0.00  0.00    +0.003 C 
ATOM      8  C   UNL     1      32.851 -21.091 -20.246  0.00  0.00    +0.016 C 
ATOM      9  C   UNL     1      35.274 -22.294 -17.999  0.00  0.00    +0.168 C 
ATOM     10  H   UNL     1      37.033 -21.509 -18.845  0.00  0.00    +0.149 HD
ATOM     11  H   UNL     1      33.244 -22.652 -17.841  0.00  0.00    +0.149 HD
ENDROOT
BRANCH   3  16
ATOM     12  O   UNL     1      34.859 -16.484 -26.023  0.00  0.00    -0.273 OA
ATOM     13  N   UNL     1      35.320 -18.003 -22.852  0.00  0.00    -0.184 NA
ATOM     14  N   UNL     1      35.476 -17.210 -23.937  0.00  0.00    -0.206 N 
ATOM     15  C   UNL     1      33.946 -19.484 -24.270  0.00  0.00    +0.051 C 
ATOM     16  C   UNL     1      34.577 -19.064 -22.949  0.00  0.00    +0.076 C 
ATOM     17  C   UNL     1      33.558 -18.229 -25.035  0.00  0.00    +0.093 C 
ATOM     18  C   UNL     1      34.920 -20.353 -25.068  0.00  0.00    +0.007 C 
ATOM     19  C   UNL     1      34.695 -17.244 -25.068  0.00  0.00    +0.241 C 
ATOM     20  H   UNL     1      36.210 -16.554 -23.915  0.00  0.00    +0.177 HD
ENDBRANCH   3  16
BRANCH   9  21
ATOM     21  C   UNL     1      35.835 -22.984 -16.862  0.00  0.00    +0.015 C 
ATOM     22  C   UNL     1      35.055 -23.885 -16.140  0.00  0.00    +0.002 C 
ATOM     23  C   UNL     1      37.157 -22.747 -16.486  0.00  0.00    +0.002 C 
ATOM     24  C   UNL     1      35.598 -24.553 -15.041  0.00  0.00    +0.037 C 
ATOM     25  C   UNL     1      37.700 -23.413 -15.387  0.00  0.00    +0.037 C 
ATOM     26  C   UNL     1      36.919 -24.316 -14.665  0.00  0.00    +0.139 C 
BRANCH  26  27
ATOM     27  O   UNL     1      37.449 -24.967 -13.593  0.00  0.00    -0.471 OA
ATOM     28  C   UNL     1      37.474 -26.393 -13.645  0.00  0.00    +0.252 C 
ENDBRANCH  26  27
ENDBRANCH   9  21
TORSDOF 3
ENDMDL
MODEL 7
REMARK VINA RESULT:     -10.1      7.920     13.702
REMARK  Name = 4823
REMARK  3 active torsions:
REMARK  status: ('A' for Active; 'I' for Inactive)
REMARK    1  A    between atoms: C_3  and  C_16
REMARK    2  A    between atoms: C_9  and  C_21
REMARK    3  A    between atoms: C_26  and  O_27
REMARK                            x       y       z     vdW  Elec       q    Type
REMARK                         _______ _______ _______ _____ _____    ______ ____
ROOT
ATOM      1  N   UNL     1      34.014 -12.510 -23.419  0.00  0.00    -0.315 N 
ATOM      2  N   UNL     1      32.521 -13.277 -21.963  0.00  0.00    -0.315 N 
ATOM      3  C   UNL     1      32.227  -9.280 -23.024  0.00  0.00    +0.016 C 
ATOM      4  C   UNL     1      33.212 -11.439 -23.120  0.00  0.00    +0.059 C 
ATOM      5  C   UNL     1      33.215 -10.113 -23.553  0.00  0.00    +0.017 C 
ATOM      6  C   UNL     1      32.288 -11.943 -22.208  0.00  0.00    +0.059 C 
ATOM      7  C   UNL     1      31.286  -9.752 -22.110  0.00  0.00    +0.003 C 
ATOM      8  C   UNL     1      31.302 -11.087 -21.689  0.00  0.00    +0.016 C 
ATOM      9  C   UNL     1      33.561 -13.583 -22.704  0.00  0.00    +0.168 C 
ATOM     10  H   UNL     1      34.779 -12.506 -24.040  0.00  0.00    +0.149 HD
ATOM     11  H   UNL     1      32.017 -13.872 -21.361  0.00  0.00    +0.149 HD
ENDROOT
BRANCH   3  16
ATOM     12  O   UNL     1      32.202  -4.132 -25.005  0.00  0.00    -0.273 OA
ATOM     13  N   UNL     1      31.259  -7.475 -24.292  0.00  0.00    -0.184 NA
ATOM     14  N   UNL     1      31.235  -6.191 -24.717  0.00  0.00    -0.206 N 
ATOM     15  C   UNL     1      33.175  -6.851 -22.868  0.00  0.00    +0.051 C 
ATOM     16  C   UNL     1      32.178  -7.843 -23.451  0.00  0.00    +0.076 C 
ATOM     17  C   UNL     1      33.510  -5.824 -23.937  0.00  0.00    +0.093 C 
ATOM     18  C   UNL     1      32.593  -6.192 -21.615  0.00  0.00    +0.007 C 
ATOM     19  C   UNL     1      32.261  -5.286 -24.579  0.00  0.00    +0.241 C 
ATOM     20  H   UNL     1      30.414  -5.879 -25.162  0.00  0.00    +0.177 HD
ENDBRANCH   3  16
BRANCH   9  21
ATOM     21  C   UNL     1      34.191 -14.879 -22.790  0.00  0.00    +0.015 C 
ATOM     22  C   UNL     1      34.712 -15.478 -21.643  0.00  0.00    +0.002 C 
ATOM     23  C   UNL     1      34.280 -15.531 -24.020  0.00  0.00    +0.002 C 
ATOM     24  C   UNL     1      35.320 -16.731 -21.726  0.00  0.00    +0.037 C 
ATOM     25  C   UNL     1      34.888 -16.783 -24.103  0.00  0.00    +0.037 C 
ATOM     26  C   UNL     1      35.408 -17.383 -22.955  0.00  0.00    +0.139 C 
BRANCH  26  27
ATOM     27  O   UNL     1      36.002 -18.605 -23.036  0.00  0.00    -0.471 OA
ATOM     28  C   UNL     1      35.254 -19.724 -22.561  0.00  0.00    +0.252 C 
ENDBRANCH  26  27
ENDBRANCH   9  21
TORSDOF 3
ENDMDL
MODEL 8
REMARK VINA RESULT:      -9.8      2.139      9.638
REMARK  Name = 4823
REMARK  3 active torsions:
REMARK  status: ('A' for Active; 'I' for Inactive)
REMARK    1  A    between atoms: C_3  and  C_16
REMARK    2  A    between atoms: C_9  and  C_21
REMARK    3  A    between atoms: C_26  and  O_27
REMARK                            x       y       z     vdW  Elec       q    Type
REMARK                         _______ _______ _______ _____ _____    ______ ____
ROOT
ATOM      1  N   UNL     1      34.442 -21.312 -19.755  0.00  0.00    -0.315 N 
ATOM      2  N   UNL     1      36.562 -21.060 -19.139  0.00  0.00    -0.315 N 
ATOM      3  C   UNL     1      35.347 -19.042 -22.550  0.00  0.00    +0.016 C 
ATOM      4  C   UNL     1      34.996 -20.473 -20.687  0.00  0.00    +0.059 C 
ATOM      5  C   UNL     1      34.471 -19.845 -21.816  0.00  0.00    +0.017 C 
ATOM      6  C   UNL     1      36.321 -20.332 -20.281  0.00  0.00    +0.059 C 
ATOM      7  C   UNL     1      36.678 -18.878 -22.171  0.00  0.00    +0.003 C 
ATOM      8  C   UNL     1      37.185 -19.519 -21.033  0.00  0.00    +0.016 C 
ATOM      9  C   UNL     1      35.416 -21.635 -18.852  0.00  0.00    +0.168 C 
ATOM     10  H   UNL     1      33.508 -21.625 -19.740  0.00  0.00    +0.149 HD
ATOM     11  H   UNL     1      37.410 -21.135 -18.644  0.00  0.00    +0.149 HD
ENDROOT
BRANCH   3  16
ATOM     12  O   UNL     1      33.267 -16.172 -26.776  0.00  0.00    -0.273 OA
ATOM     13  N   UNL     1      35.320 -17.167 -24.062  0.00  0.00    -0.184 NA
ATOM     14  N   UNL     1      34.838 -16.508 -25.140  0.00  0.00    -0.206 N 
ATOM     15  C   UNL     1      33.814 -19.027 -24.666  0.00  0.00    +0.051 C 
ATOM     16  C   UNL     1      34.841 -18.340 -23.776  0.00  0.00    +0.076 C 
ATOM     17  C   UNL     1      32.892 -17.964 -25.240  0.00  0.00    +0.093 C 
ATOM     18  C   UNL     1      34.518 -19.820 -25.769  0.00  0.00    +0.007 C 
ATOM     19  C   UNL     1      33.679 -16.818 -25.812  0.00  0.00    +0.241 C 
ATOM     20  H   UNL     1      35.361 -15.742 -25.472  0.00  0.00    +0.177 HD
ENDBRANCH   3  16
BRANCH   9  21
ATOM     21  C   UNL     1      35.161 -22.510 -17.733  0.00  0.00    +0.015 C 
ATOM     22  C   UNL     1      33.927 -23.149 -17.616  0.00  0.00    +0.002 C 
ATOM     23  C   UNL     1      36.148 -22.715 -16.769  0.00  0.00    +0.002 C 
ATOM     24  C   UNL     1      33.681 -23.996 -16.534  0.00  0.00    +0.037 C 
ATOM     25  C   UNL     1      35.902 -23.562 -15.689  0.00  0.00    +0.037 C 
ATOM     26  C   UNL     1      34.668 -24.202 -15.571  0.00  0.00    +0.139 C 
BRANCH  26  27
ATOM     27  O   UNL     1      34.428 -25.027 -14.517  0.00  0.00    -0.471 OA
ATOM     28  C   UNL     1      34.701 -24.513 -13.213  0.00  0.00    +0.252 C 
ENDBRANCH  26  27
ENDBRANCH   9  21
TORSDOF 3
ENDMDL
MODEL 9
REMARK VINA RESULT:      -9.7      6.925      7.641
REMARK  Name = 4823
REMARK  3 active torsions:
REMARK  status: ('A' for Active; 'I' for Inactive)
REMARK    1  A    between atoms: C_3  and  C_16
REMARK    2  A    between atoms: C_9  and  C_21
REMARK    3  A    between atoms: C_26  and  O_27
REMARK                            x       y       z     vdW  Elec       q    Type
REMARK                         _______ _______ _______ _____ _____    ______ ____
ROOT
ATOM      1  N   UNL     1      32.545 -23.794 -15.639  0.00  0.00    -0.315 N 
ATOM      2  N   UNL     1      31.724 -23.862 -13.575  0.00  0.00    -0.315 N 
ATOM      3  C   UNL     1      35.800 -24.494 -13.997  0.00  0.00    +0.016 C 
ATOM      4  C   UNL     1      33.619 -24.051 -14.828  0.00  0.00    +0.059 C 
ATOM      5  C   UNL     1      34.974 -24.248 -15.096  0.00  0.00    +0.017 C 
ATOM      6  C   UNL     1      33.081 -24.090 -13.544  0.00  0.00    +0.059 C 
ATOM      7  C   UNL     1      35.295 -24.539 -12.699  0.00  0.00    +0.003 C 
ATOM      8  C   UNL     1      33.931 -24.338 -12.453  0.00  0.00    +0.016 C 
ATOM      9  C   UNL     1      31.438 -23.689 -14.846  0.00  0.00    +0.168 C 
ATOM     10  H   UNL     1      32.568 -23.700 -16.620  0.00  0.00    +0.149 HD
ATOM     11  H   UNL     1      31.104 -23.835 -12.811  0.00  0.00    +0.149 HD
ENDROOT
BRANCH   3  16
ATOM     12  O   UNL     1      41.077 -25.620 -15.139  0.00  0.00    -0.273 OA
ATOM     13  N   UNL     1      37.799 -24.284 -15.325  0.00  0.00    -0.184 NA
ATOM     14  N   UNL     1      39.110 -24.518 -15.556  0.00  0.00    -0.206 N 
ATOM     15  C   UNL     1      38.097 -25.403 -13.146  0.00  0.00    +0.051 C 
ATOM     16  C   UNL     1      37.267 -24.715 -14.221  0.00  0.00    +0.076 C 
ATOM     17  C   UNL     1      39.174 -26.230 -13.829  0.00  0.00    +0.093 C 
ATOM     18  C   UNL     1      38.699 -24.363 -12.199  0.00  0.00    +0.007 C 
ATOM     19  C   UNL     1      39.891 -25.424 -14.877  0.00  0.00    +0.241 C 
ATOM     20  H   UNL     1      39.543 -23.996 -16.271  0.00  0.00    +0.177 HD
ENDBRANCH   3  16
BRANCH   9  21
ATOM     21  C   UNL     1      30.129 -23.420 -15.391  0.00  0.00    +0.015 C 
ATOM     22  C   UNL     1      29.734 -24.023 -16.585  0.00  0.00    +0.002 C 
ATOM     23  C   UNL     1      29.259 -22.556 -14.725  0.00  0.00    +0.002 C 
ATOM     24  C   UNL     1      28.469 -23.763 -17.113  0.00  0.00    +0.037 C 
ATOM     25  C   UNL     1      27.995 -22.296 -15.253  0.00  0.00    +0.037 C 
ATOM     26  C   UNL     1      27.600 -22.900 -16.447  0.00  0.00    +0.139 C 
BRANCH  26  27
ATOM     27  O   UNL     1      26.366 -22.646 -16.961  0.00  0.00    -0.471 OA
ATOM     28  C   UNL     1      26.234 -21.497 -17.797  0.00  0.00    +0.252 C 
ENDBRANCH  26  27
ENDBRANCH   9  21
TORSDOF 3
ENDMDL
