MODEL 1
REMARK VINA RESULT:     -12.2      0.000      0.000
REMARK  Name = 11538992
REMARK  4 active torsions:
REMARK  status: ('A' for Active; 'I' for Inactive)
REMARK    1  A    between atoms: C_1  and  N_7
REMARK    2  A    between atoms: C_3  and  C_24
REMARK    3  A    between atoms: C_4  and  N_30
REMARK    4  A    between atoms: C_15  and  C_20
REMARK                            x       y       z     vdW  Elec       q    Type
REMARK                         _______ _______ _______ _____ _____    ______ ____
ROOT
ATOM      1  C   UNL     1      34.959 -22.198 -19.468  0.00  0.00    -0.059 C 
ATOM      2  C   UNL     1      36.189 -21.288 -19.534  0.00  0.00    -0.042 C 
ATOM      3  C   UNL     1      34.894 -19.639 -20.979  0.00  0.00    +0.005 C 
ATOM      4  C   UNL     1      36.204 -20.455 -20.827  0.00  0.00    -0.064 C 
ATOM      5  C   UNL     1      33.667 -21.385 -19.600  0.00  0.00    -0.021 C 
ATOM      6  C   UNL     1      33.661 -20.559 -20.884  0.00  0.00    +0.000 C 
ENDROOT
BRANCH   1   7
ATOM      7  N   UNL     1      34.953 -22.934 -18.205  0.00  0.00    +0.394 N 
ATOM      8  N   UNL     1      34.734 -23.628 -15.517  0.00  0.00    -0.299 N 
ATOM      9  N   UNL     1      32.587 -24.016 -15.552  0.00  0.00    -0.136 NA
ATOM     10  N   UNL     1      33.097 -24.426 -14.329  0.00  0.00    -0.125 NA
ATOM     11  C   UNL     1      35.932 -22.364 -17.261  0.00  0.00    -0.052 C 
ATOM     12  C   UNL     1      33.596 -22.941 -17.619  0.00  0.00    -0.009 C 
ATOM     13  C   UNL     1      36.037 -23.237 -16.002  0.00  0.00    +0.086 C 
ATOM     14  C   UNL     1      33.590 -23.541 -16.259  0.00  0.00    +0.122 A 
ATOM     15  C   UNL     1      34.390 -24.184 -14.332  0.00  0.00    +0.238 A 
ATOM     16  H   UNL     1      35.225 -23.900 -18.393  0.00  0.00    -0.079 HD
BRANCH  15  20
ATOM     17  F   UNL     1      36.321 -25.380 -13.579  0.00  0.00    -0.163 F 
ATOM     18  F   UNL     1      36.052 -23.366 -12.819  0.00  0.00    -0.163 F 
ATOM     19  F   UNL     1      34.761 -24.971 -12.120  0.00  0.00    -0.163 F 
ATOM     20  C   UNL     1      35.350 -24.465 -13.251  0.00  0.00    +0.452 C 
ENDBRANCH  15  20
ENDBRANCH   1   7
BRANCH   3  24
ATOM     21  F   UNL     1      35.507 -16.870 -21.079  0.00  0.00    -0.204 F 
ATOM     22  F   UNL     1      34.087 -19.269 -25.785  0.00  0.00    -0.202 F 
ATOM     23  F   UNL     1      34.703 -16.607 -25.735  0.00  0.00    -0.202 F 
ATOM     24  C   UNL     1      34.843 -18.819 -22.260  0.00  0.00    +0.005 C 
ATOM     25  C   UNL     1      35.158 -17.464 -22.229  0.00  0.00    +0.138 C 
ATOM     26  C   UNL     1      34.482 -19.432 -23.455  0.00  0.00    +0.030 C 
ATOM     27  C   UNL     1      34.434 -18.684 -24.631  0.00  0.00    +0.167 C 
ATOM     28  C   UNL     1      35.110 -16.716 -23.404  0.00  0.00    +0.061 C 
ATOM     29  C   UNL     1      34.748 -17.325 -24.605  0.00  0.00    +0.170 C 
ENDBRANCH   3  24
BRANCH   4  30
ATOM     30  N   UNL     1      37.372 -19.567 -20.821  0.00  0.00    +0.382 N 
ATOM     31  H   UNL     1      37.884 -19.673 -21.696  0.00  0.00    -0.089 HD
ATOM     32  H   UNL     1      37.980 -19.811 -20.040  0.00  0.00    -0.089 HD
ATOM     33  H   UNL     1      37.062 -18.600 -20.723  0.00  0.00    -0.089 HD
ENDBRANCH   4  30
TORSDOF 4
ENDMDL
MODEL 2
REMARK VINA RESULT:     -11.8      7.499     11.549
REMARK  Name = 11538992
REMARK  4 active torsions:
REMARK  status: ('A' for Active; 'I' for Inactive)
REMARK    1  A    between atoms: C_1  and  N_7
REMARK    2  A    between atoms: C_3  and  C_24
REMARK    3  A    between atoms: C_4  and  N_30
REMARK    4  A    between atoms: C_15  and  C_20
REMARK                            x       y       z     vdW  Elec       q    Type
REMARK                         _______ _______ _______ _____ _____    ______ ____
ROOT
ATOM      1  C   UNL     1      33.231 -12.272 -23.941  0.00  0.00    -0.059 C 
ATOM      2  C   UNL     1      34.324 -11.203 -24.043  0.00  0.00    -0.042 C 
ATOM      3  C   UNL     1      32.985  -9.687 -22.497  0.00  0.00    +0.005 C 
ATOM      4  C   UNL     1      33.749  -9.791 -23.842  0.00  0.00    -0.064 C 
ATOM      5  C   UNL     1      32.493 -12.178 -22.603  0.00  0.00    -0.021 C 
ATOM      6  C   UNL     1      31.906 -10.783 -22.392  0.00  0.00    +0.000 C 
ENDROOT
BRANCH   1   7
ATOM      7  N   UNL     1      33.822 -13.602 -24.086  0.00  0.00    +0.394 N 
ATOM      8  N   UNL     1      34.214 -16.357 -24.173  0.00  0.00    -0.299 N 
ATOM      9  N   UNL     1      33.543 -16.623 -26.231  0.00  0.00    -0.136 NA
ATOM     10  N   UNL     1      34.092 -17.814 -25.782  0.00  0.00    -0.125 NA
ATOM     11  C   UNL     1      33.743 -14.352 -22.819  0.00  0.00    -0.052 C 
ATOM     12  C   UNL     1      33.162 -14.343 -25.182  0.00  0.00    -0.009 C 
ATOM     13  C   UNL     1      34.507 -15.680 -22.931  0.00  0.00    +0.086 C 
ATOM     14  C   UNL     1      33.629 -15.753 -25.248  0.00  0.00    +0.122 A 
ATOM     15  C   UNL     1      34.491 -17.630 -24.541  0.00  0.00    +0.238 A 
ATOM     16  H   UNL     1      34.809 -13.492 -24.323  0.00  0.00    -0.079 HD
BRANCH  15  20
ATOM     17  F   UNL     1      36.413 -18.264 -23.267  0.00  0.00    -0.163 F 
ATOM     18  F   UNL     1      34.477 -18.852 -22.485  0.00  0.00    -0.163 F 
ATOM     19  F   UNL     1      35.288 -19.849 -24.240  0.00  0.00    -0.163 F 
ATOM     20  C   UNL     1      35.145 -18.613 -23.662  0.00  0.00    +0.452 C 
ENDBRANCH  15  20
ENDBRANCH   1   7
BRANCH   3  24
ATOM     21  F   UNL     1      33.123  -8.325 -20.011  0.00  0.00    -0.204 F 
ATOM     22  F   UNL     1      30.485  -5.798 -24.082  0.00  0.00    -0.202 F 
ATOM     23  F   UNL     1      30.695  -4.601 -21.634  0.00  0.00    -0.202 F 
ATOM     24  C   UNL     1      32.368  -8.315 -22.261  0.00  0.00    +0.005 C 
ATOM     25  C   UNL     1      32.478  -7.711 -21.013  0.00  0.00    +0.138 C 
ATOM     26  C   UNL     1      31.698  -7.676 -23.299  0.00  0.00    +0.030 C 
ATOM     27  C   UNL     1      31.131  -6.419 -23.087  0.00  0.00    +0.167 C 
ATOM     28  C   UNL     1      31.911  -6.455 -20.801  0.00  0.00    +0.061 C 
ATOM     29  C   UNL     1      31.238  -5.809 -21.837  0.00  0.00    +0.170 C 
ENDBRANCH   3  24
BRANCH   4  30
ATOM     30  N   UNL     1      34.837  -8.809 -23.899  0.00  0.00    +0.382 N 
ATOM     31  H   UNL     1      35.702  -9.277 -24.169  0.00  0.00    -0.089 HD
ATOM     32  H   UNL     1      34.955  -8.379 -22.982  0.00  0.00    -0.089 HD
ATOM     33  H   UNL     1      34.611  -8.090 -24.586  0.00  0.00    -0.089 HD
ENDBRANCH   4  30
TORSDOF 4
ENDMDL
MODEL 3
REMARK VINA RESULT:     -11.5      7.847     11.882
REMARK  Name = 11538992
REMARK  4 active torsions:
REMARK  status: ('A' for Active; 'I' for Inactive)
REMARK    1  A    between atoms: C_1  and  N_7
REMARK    2  A    between atoms: C_3  and  C_24
REMARK    3  A    between atoms: C_4  and  N_30
REMARK    4  A    between atoms: C_15  and  C_20
REMARK                            x       y       z     vdW  Elec       q    Type
REMARK                         _______ _______ _______ _____ _____    ______ ____
ROOT
ATOM      1  C   UNL     1      33.940 -12.108 -23.189  0.00  0.00    -0.059 C 
ATOM      2  C   UNL     1      32.530 -12.074 -22.591  0.00  0.00    -0.042 C 
ATOM      3  C   UNL     1      32.293  -9.637 -23.290  0.00  0.00    +0.005 C 
ATOM      4  C   UNL     1      32.150 -10.656 -22.130  0.00  0.00    -0.064 C 
ATOM      5  C   UNL     1      34.071 -11.114 -24.346  0.00  0.00    -0.021 C 
ATOM      6  C   UNL     1      33.706  -9.699 -23.903  0.00  0.00    +0.000 C 
ENDROOT
BRANCH   1   7
ATOM      7  N   UNL     1      34.246 -13.459 -23.661  0.00  0.00    +0.394 N 
ATOM      8  N   UNL     1      34.086 -16.159 -24.319  0.00  0.00    -0.299 N 
ATOM      9  N   UNL     1      33.181 -15.867 -26.282  0.00  0.00    -0.136 NA
ATOM     10  N   UNL     1      33.529 -17.201 -26.144  0.00  0.00    -0.125 NA
ATOM     11  C   UNL     1      34.145 -14.434 -22.559  0.00  0.00    -0.052 C 
ATOM     12  C   UNL     1      33.352 -13.828 -24.778  0.00  0.00    -0.009 C 
ATOM     13  C   UNL     1      34.623 -15.819 -23.022  0.00  0.00    +0.086 C 
ATOM     14  C   UNL     1      33.528 -15.251 -25.172  0.00  0.00    +0.122 A 
ATOM     15  C   UNL     1      34.074 -17.353 -24.955  0.00  0.00    +0.238 A 
ATOM     16  H   UNL     1      35.208 -13.471 -24.002  0.00  0.00    -0.079 HD
BRANCH  15  20
ATOM     17  F   UNL     1      35.888 -18.492 -23.890  0.00  0.00    -0.163 F 
ATOM     18  F   UNL     1      33.882 -19.080 -23.311  0.00  0.00    -0.163 F 
ATOM     19  F   UNL     1      34.655 -19.638 -25.266  0.00  0.00    -0.163 F 
ATOM     20  C   UNL     1      34.607 -18.597 -24.374  0.00  0.00    +0.452 C 
ENDBRANCH  15  20
ENDBRANCH   1   7
BRANCH   3  24
ATOM     21  F   UNL     1      30.804  -7.858 -24.924  0.00  0.00    -0.204 F 
ATOM     22  F   UNL     1      32.499  -5.953 -20.085  0.00  0.00    -0.202 F 
ATOM     23  F   UNL     1      31.055  -4.348 -21.760  0.00  0.00    -0.202 F 
ATOM     24  C   UNL     1      31.958  -8.209 -22.880  0.00  0.00    +0.005 C 
ATOM     25  C   UNL     1      31.223  -7.397 -23.737  0.00  0.00    +0.138 C 
ATOM     26  C   UNL     1      32.391  -7.729 -21.649  0.00  0.00    +0.030 C 
ATOM     27  C   UNL     1      32.086  -6.422 -21.269  0.00  0.00    +0.167 C 
ATOM     28  C   UNL     1      30.918  -6.090 -23.358  0.00  0.00    +0.061 C 
ATOM     29  C   UNL     1      31.349  -5.602 -22.125  0.00  0.00    +0.170 C 
ENDBRANCH   3  24
BRANCH   4  30
ATOM     30  N   UNL     1      30.778 -10.664 -21.612  0.00  0.00    +0.382 N 
ATOM     31  H   UNL     1      30.735 -10.112 -20.756  0.00  0.00    -0.089 HD
ATOM     32  H   UNL     1      30.495 -11.623 -21.413  0.00  0.00    -0.089 HD
ATOM     33  H   UNL     1      30.149 -10.262 -22.308  0.00  0.00    -0.089 HD
ENDBRANCH   4  30
TORSDOF 4
ENDMDL
MODEL 4
REMARK VINA RESULT:     -11.2      0.934      1.648
REMARK  Name = 11538992
REMARK  4 active torsions:
REMARK  status: ('A' for Active; 'I' for Inactive)
REMARK    1  A    between atoms: C_1  and  N_7
REMARK    2  A    between atoms: C_3  and  C_24
REMARK    3  A    between atoms: C_4  and  N_30
REMARK    4  A    between atoms: C_15  and  C_20
REMARK                            x       y       z     vdW  Elec       q    Type
REMARK                         _______ _______ _______ _____ _____    ______ ____
ROOT
ATOM      1  C   UNL     1      35.310 -21.873 -19.766  0.00  0.00    -0.059 C 
ATOM      2  C   UNL     1      36.519 -20.936 -19.859  0.00  0.00    -0.042 C 
ATOM      3  C   UNL     1      35.124 -19.269 -21.185  0.00  0.00    +0.005 C 
ATOM      4  C   UNL     1      36.455 -20.061 -21.123  0.00  0.00    -0.064 C 
ATOM      5  C   UNL     1      33.999 -21.084 -19.808  0.00  0.00    -0.021 C 
ATOM      6  C   UNL     1      33.915 -20.217 -21.063  0.00  0.00    +0.000 C 
ENDROOT
BRANCH   1   7
ATOM      7  N   UNL     1      35.380 -22.650 -18.529  0.00  0.00    +0.394 N 
ATOM      8  N   UNL     1      35.268 -23.445 -15.863  0.00  0.00    -0.299 N 
ATOM      9  N   UNL     1      33.149 -23.962 -15.863  0.00  0.00    -0.136 NA
ATOM     10  N   UNL     1      33.712 -24.381 -14.667  0.00  0.00    -0.125 NA
ATOM     11  C   UNL     1      36.346 -22.052 -17.588  0.00  0.00    -0.052 C 
ATOM     12  C   UNL     1      34.041 -22.760 -17.914  0.00  0.00    -0.009 C 
ATOM     13  C   UNL     1      36.533 -22.959 -16.362  0.00  0.00    +0.086 C 
ATOM     14  C   UNL     1      34.104 -23.403 -16.575  0.00  0.00    +0.122 A 
ATOM     15  C   UNL     1      34.988 -24.060 -14.690  0.00  0.00    +0.238 A 
ATOM     16  H   UNL     1      35.706 -23.590 -18.756  0.00  0.00    -0.079 HD
BRANCH  15  20
ATOM     17  F   UNL     1      37.053 -25.084 -14.049  0.00  0.00    -0.163 F 
ATOM     18  F   UNL     1      36.567 -23.185 -13.121  0.00  0.00    -0.163 F 
ATOM     19  F   UNL     1      35.479 -24.981 -12.554  0.00  0.00    -0.163 F 
ATOM     20  C   UNL     1      35.989 -24.318 -13.641  0.00  0.00    +0.452 C 
ENDBRANCH  15  20
ENDBRANCH   1   7
BRANCH   3  24
ATOM     21  F   UNL     1      34.805 -20.347 -23.791  0.00  0.00    -0.204 F 
ATOM     22  F   UNL     1      34.946 -14.896 -23.361  0.00  0.00    -0.202 F 
ATOM     23  F   UNL     1      34.644 -16.070 -25.810  0.00  0.00    -0.202 F 
ATOM     24  C   UNL     1      34.995 -18.408 -22.434  0.00  0.00    +0.005 C 
ATOM     25  C   UNL     1      34.841 -19.012 -23.679  0.00  0.00    +0.138 C 
ATOM     26  C   UNL     1      35.031 -17.022 -22.321  0.00  0.00    +0.030 C 
ATOM     27  C   UNL     1      34.912 -16.231 -23.463  0.00  0.00    +0.167 C 
ATOM     28  C   UNL     1      34.723 -18.220 -24.821  0.00  0.00    +0.061 C 
ATOM     29  C   UNL     1      34.759 -16.830 -24.713  0.00  0.00    +0.170 C 
ENDBRANCH   3  24
BRANCH   4  30
ATOM     30  N   UNL     1      37.604 -19.149 -21.143  0.00  0.00    +0.382 N 
ATOM     31  H   UNL     1      38.355 -19.537 -20.572  0.00  0.00    -0.089 HD
ATOM     32  H   UNL     1      37.325 -18.243 -20.767  0.00  0.00    -0.089 HD
ATOM     33  H   UNL     1      37.931 -19.034 -22.102  0.00  0.00    -0.089 HD
ENDBRANCH   4  30
TORSDOF 4
ENDMDL
MODEL 5
REMARK VINA RESULT:     -10.5      7.271     10.929
REMARK  Name = 11538992
REMARK  4 active torsions:
REMARK  status: ('A' for Active; 'I' for Inactive)
REMARK    1  A    between atoms: C_1  and  N_7
REMARK    2  A    between atoms: C_3  and  C_24
REMARK    3  A    between atoms: C_4  and  N_30
REMARK    4  A    between atoms: C_15  and  C_20
REMARK                            x       y       z     vdW  Elec       q    Type
REMARK                         _______ _______ _______ _____ _____    ______ ____
ROOT
ATOM      1  C   UNL     1      32.705 -12.660 -22.971  0.00  0.00    -0.059 C 
ATOM      2  C   UNL     1      33.861 -11.755 -23.407  0.00  0.00    -0.042 C 
ATOM      3  C   UNL     1      32.751  -9.778 -22.250  0.00  0.00    +0.005 C 
ATOM      4  C   UNL     1      33.405 -10.294 -23.557  0.00  0.00    -0.064 C 
ATOM      5  C   UNL     1      32.074 -12.158 -21.670  0.00  0.00    -0.021 C 
ATOM      6  C   UNL     1      31.606 -10.710 -21.804  0.00  0.00    +0.000 C 
ENDROOT
BRANCH   1   7
ATOM      7  N   UNL     1      33.187 -14.029 -22.790  0.00  0.00    +0.394 N 
ATOM      8  N   UNL     1      34.805 -16.268 -22.443  0.00  0.00    -0.299 N 
ATOM      9  N   UNL     1      34.950 -16.116 -20.271  0.00  0.00    -0.136 NA
ATOM     10  N   UNL     1      35.508 -17.319 -20.674  0.00  0.00    -0.125 NA
ATOM     11  C   UNL     1      34.065 -14.427 -23.905  0.00  0.00    -0.052 C 
ATOM     12  C   UNL     1      33.884 -14.162 -21.494  0.00  0.00    -0.009 C 
ATOM     13  C   UNL     1      34.437 -15.914 -23.793  0.00  0.00    +0.086 C 
ATOM     14  C   UNL     1      34.526 -15.495 -21.352  0.00  0.00    +0.122 A 
ATOM     15  C   UNL     1      35.408 -17.390 -21.984  0.00  0.00    +0.238 A 
ATOM     16  H   UNL     1      32.382 -14.657 -22.786  0.00  0.00    -0.079 HD
BRANCH  15  20
ATOM     17  F   UNL     1      35.298 -19.711 -22.552  0.00  0.00    -0.163 F 
ATOM     18  F   UNL     1      35.576 -18.311 -24.185  0.00  0.00    -0.163 F 
ATOM     19  F   UNL     1      37.210 -18.707 -22.805  0.00  0.00    -0.163 F 
ATOM     20  C   UNL     1      35.855 -18.492 -22.852  0.00  0.00    +0.452 C 
ENDBRANCH  15  20
ENDBRANCH   1   7
BRANCH   3  24
ATOM     21  F   UNL     1      33.062  -7.869 -20.173  0.00  0.00    -0.204 F 
ATOM     22  F   UNL     1      30.533  -6.194 -24.724  0.00  0.00    -0.202 F 
ATOM     23  F   UNL     1      30.901  -4.461 -22.644  0.00  0.00    -0.202 F 
ATOM     24  C   UNL     1      32.252  -8.343 -22.353  0.00  0.00    +0.005 C 
ATOM     25  C   UNL     1      32.442  -7.465 -21.291  0.00  0.00    +0.138 C 
ATOM     26  C   UNL     1      31.610  -7.921 -23.513  0.00  0.00    +0.030 C 
ATOM     27  C   UNL     1      31.152  -6.607 -23.611  0.00  0.00    +0.167 C 
ATOM     28  C   UNL     1      31.984  -6.152 -21.390  0.00  0.00    +0.061 C 
ATOM     29  C   UNL     1      31.339  -5.723 -22.549  0.00  0.00    +0.170 C 
ENDBRANCH   3  24
BRANCH   4  30
ATOM     30  N   UNL     1      34.554  -9.461 -23.927  0.00  0.00    +0.382 N 
ATOM     31  H   UNL     1      35.185  -9.997 -24.522  0.00  0.00    -0.089 HD
ATOM     32  H   UNL     1      35.048  -9.169 -23.084  0.00  0.00    -0.089 HD
ATOM     33  H   UNL     1      34.229  -8.637 -24.432  0.00  0.00    -0.089 HD
ENDBRANCH   4  30
TORSDOF 4
ENDMDL
MODEL 6
REMARK VINA RESULT:     -10.3     10.175     15.631
REMARK  Name = 11538992
REMARK  4 active torsions:
REMARK  status: ('A' for Active; 'I' for Inactive)
REMARK    1  A    between atoms: C_1  and  N_7
REMARK    2  A    between atoms: C_3  and  C_24
REMARK    3  A    between atoms: C_4  and  N_30
REMARK    4  A    between atoms: C_15  and  C_20
REMARK                            x       y       z     vdW  Elec       q    Type
REMARK                         _______ _______ _______ _____ _____    ______ ____
ROOT
ATOM      1  C   UNL     1      33.357  -8.772 -22.731  0.00  0.00    -0.059 C 
ATOM      2  C   UNL     1      34.179  -9.103 -23.980  0.00  0.00    -0.042 C 
ATOM      3  C   UNL     1      33.296 -11.490 -23.931  0.00  0.00    +0.005 C 
ATOM      4  C   UNL     1      34.557 -10.593 -24.027  0.00  0.00    -0.064 C 
ATOM      5  C   UNL     1      32.103  -9.647 -22.651  0.00  0.00    -0.021 C 
ATOM      6  C   UNL     1      32.461 -11.132 -22.686  0.00  0.00    +0.000 C 
ENDROOT
BRANCH   1   7
ATOM      7  N   UNL     1      32.974  -7.361 -22.748  0.00  0.00    +0.394 N 
ATOM      8  N   UNL     1      31.664  -4.953 -23.237  0.00  0.00    -0.299 N 
ATOM      9  N   UNL     1      30.208  -5.148 -21.624  0.00  0.00    -0.136 NA
ATOM     10  N   UNL     1      30.110  -3.876 -22.164  0.00  0.00    -0.125 NA
ATOM     11  C   UNL     1      32.997  -6.828 -24.122  0.00  0.00    -0.052 C 
ATOM     12  C   UNL     1      31.642  -7.181 -22.133  0.00  0.00    -0.009 C 
ATOM     13  C   UNL     1      32.753  -5.311 -24.115  0.00  0.00    +0.086 C 
ATOM     14  C   UNL     1      31.155  -5.785 -22.281  0.00  0.00    +0.122 A 
ATOM     15  C   UNL     1      30.997  -3.780 -23.132  0.00  0.00    +0.238 A 
ATOM     16  H   UNL     1      33.654  -6.836 -22.197  0.00  0.00    -0.079 HD
BRANCH  15  20
ATOM     17  F   UNL     1      31.680  -2.913 -25.255  0.00  0.00    -0.163 F 
ATOM     18  F   UNL     1      30.179  -1.786 -24.168  0.00  0.00    -0.163 F 
ATOM     19  F   UNL     1      32.243  -1.786 -23.483  0.00  0.00    -0.163 F 
ATOM     20  C   UNL     1      31.264  -2.608 -23.982  0.00  0.00    +0.452 C 
ENDBRANCH  15  20
ENDBRANCH   1   7
BRANCH   3  24
ATOM     21  F   UNL     1      32.844 -13.163 -26.179  0.00  0.00    -0.204 F 
ATOM     22  F   UNL     1      34.973 -15.514 -21.723  0.00  0.00    -0.202 F 
ATOM     23  F   UNL     1      34.487 -17.007 -23.960  0.00  0.00    -0.202 F 
ATOM     24  C   UNL     1      33.615 -12.979 -23.941  0.00  0.00    +0.005 C 
ATOM     25  C   UNL     1      33.365 -13.733 -25.083  0.00  0.00    +0.138 C 
ATOM     26  C   UNL     1      34.157 -13.573 -22.806  0.00  0.00    +0.030 C 
ATOM     27  C   UNL     1      34.452 -14.936 -22.812  0.00  0.00    +0.167 C 
ATOM     28  C   UNL     1      33.660 -15.096 -25.089  0.00  0.00    +0.061 C 
ATOM     29  C   UNL     1      34.202 -15.698 -23.954  0.00  0.00    +0.170 C 
ENDBRANCH   3  24
BRANCH   4  30
ATOM     30  N   UNL     1      35.299 -10.869 -25.261  0.00  0.00    +0.382 N 
ATOM     31  H   UNL     1      35.685 -11.812 -25.222  0.00  0.00    -0.089 HD
ATOM     32  H   UNL     1      36.057 -10.195 -25.360  0.00  0.00    -0.089 HD
ATOM     33  H   UNL     1      34.669 -10.793 -26.060  0.00  0.00    -0.089 HD
ENDBRANCH   4  30
TORSDOF 4
ENDMDL
MODEL 7
REMARK VINA RESULT:     -10.2      1.491      1.904
REMARK  Name = 11538992
REMARK  4 active torsions:
REMARK  status: ('A' for Active; 'I' for Inactive)
REMARK    1  A    between atoms: C_1  and  N_7
REMARK    2  A    between atoms: C_3  and  C_24
REMARK    3  A    between atoms: C_4  and  N_30
REMARK    4  A    between atoms: C_15  and  C_20
REMARK                            x       y       z     vdW  Elec       q    Type
REMARK                         _______ _______ _______ _____ _____    ______ ____
ROOT
ATOM      1  C   UNL     1      35.837 -21.448 -18.564  0.00  0.00    -0.059 C 
ATOM      2  C   UNL     1      34.459 -21.621 -19.211  0.00  0.00    -0.042 C 
ATOM      3  C   UNL     1      35.300 -20.461 -21.315  0.00  0.00    +0.005 C 
ATOM      4  C   UNL     1      34.180 -20.516 -20.244  0.00  0.00    -0.064 C 
ATOM      5  C   UNL     1      36.941 -21.413 -19.624  0.00  0.00    -0.021 C 
ATOM      6  C   UNL     1      36.685 -20.315 -20.654  0.00  0.00    +0.000 C 
ENDROOT
BRANCH   1   7
ATOM      7  N   UNL     1      36.086 -22.543 -17.627  0.00  0.00    +0.394 N 
ATOM      8  N   UNL     1      36.374 -24.069 -15.316  0.00  0.00    -0.299 N 
ATOM      9  N   UNL     1      34.275 -24.638 -15.150  0.00  0.00    -0.136 NA
ATOM     10  N   UNL     1      35.009 -25.360 -14.222  0.00  0.00    -0.125 NA
ATOM     11  C   UNL     1      37.189 -22.205 -16.708  0.00  0.00    -0.052 C 
ATOM     12  C   UNL     1      34.855 -22.870 -16.878  0.00  0.00    -0.009 C 
ATOM     13  C   UNL     1      37.553 -23.417 -15.836  0.00  0.00    +0.086 C 
ATOM     14  C   UNL     1      35.116 -23.866 -15.805  0.00  0.00    +0.122 A 
ATOM     15  C   UNL     1      36.270 -25.002 -14.341  0.00  0.00    +0.238 A 
ATOM     16  H   UNL     1      36.365 -23.367 -18.160  0.00  0.00    -0.079 HD
BRANCH  15  20
ATOM     17  F   UNL     1      38.374 -26.141 -14.329  0.00  0.00    -0.163 F 
ATOM     18  F   UNL     1      38.109 -24.547 -12.881  0.00  0.00    -0.163 F 
ATOM     19  F   UNL     1      37.063 -26.437 -12.620  0.00  0.00    -0.163 F 
ATOM     20  C   UNL     1      37.416 -25.513 -13.571  0.00  0.00    +0.452 C 
ENDBRANCH  15  20
ENDBRANCH   1   7
BRANCH   3  24
ATOM     21  F   UNL     1      35.732 -17.710 -20.769  0.00  0.00    -0.204 F 
ATOM     22  F   UNL     1      34.066 -19.007 -25.814  0.00  0.00    -0.202 F 
ATOM     23  F   UNL     1      34.520 -16.395 -25.151  0.00  0.00    -0.202 F 
ATOM     24  C   UNL     1      35.090 -19.362 -22.348  0.00  0.00    +0.005 C 
ATOM     25  C   UNL     1      35.323 -18.034 -22.004  0.00  0.00    +0.138 C 
ATOM     26  C   UNL     1      34.667 -19.696 -23.630  0.00  0.00    +0.030 C 
ATOM     27  C   UNL     1      34.473 -18.692 -24.579  0.00  0.00    +0.167 C 
ATOM     28  C   UNL     1      35.130 -17.031 -22.952  0.00  0.00    +0.061 C 
ATOM     29  C   UNL     1      34.705 -17.359 -24.239  0.00  0.00    +0.170 C 
ENDBRANCH   3  24
BRANCH   4  30
ATOM     30  N   UNL     1      32.875 -20.752 -20.869  0.00  0.00    +0.382 N 
ATOM     31  H   UNL     1      32.638 -19.963 -21.469  0.00  0.00    -0.089 HD
ATOM     32  H   UNL     1      32.164 -20.853 -20.145  0.00  0.00    -0.089 HD
ATOM     33  H   UNL     1      32.915 -21.605 -21.428  0.00  0.00    -0.089 HD
ENDBRANCH   4  30
TORSDOF 4
ENDMDL
MODEL 8
REMARK VINA RESULT:     -10.1      7.611     11.237
REMARK  Name = 11538992
REMARK  4 active torsions:
REMARK  status: ('A' for Active; 'I' for Inactive)
REMARK    1  A    between atoms: C_1  and  N_7
REMARK    2  A    between atoms: C_3  and  C_24
REMARK    3  A    between atoms: C_4  and  N_30
REMARK    4  A    between atoms: C_15  and  C_20
REMARK                            x       y       z     vdW  Elec       q    Type
REMARK                         _______ _______ _______ _____ _____    ______ ____
ROOT
ATOM      1  C   UNL     1      33.739 -13.026 -23.230  0.00  0.00    -0.059 C 
ATOM      2  C   UNL     1      32.504 -12.594 -22.433  0.00  0.00    -0.042 C 
ATOM      3  C   UNL     1      32.566 -10.317 -23.569  0.00  0.00    +0.005 C 
ATOM      4  C   UNL     1      32.478 -11.071 -22.217  0.00  0.00    -0.064 C 
ATOM      5  C   UNL     1      33.810 -12.292 -24.572  0.00  0.00    -0.021 C 
ATOM      6  C   UNL     1      33.796 -10.778 -24.376  0.00  0.00    +0.000 C 
ENDROOT
BRANCH   1   7
ATOM      7  N   UNL     1      33.702 -14.470 -23.458  0.00  0.00    +0.394 N 
ATOM      8  N   UNL     1      34.319 -17.067 -24.250  0.00  0.00    -0.299 N 
ATOM      9  N   UNL     1      35.562 -17.548 -22.523  0.00  0.00    -0.136 NA
ATOM     10  N   UNL     1      35.358 -18.702 -23.263  0.00  0.00    -0.125 NA
ATOM     11  C   UNL     1      33.695 -14.773 -24.901  0.00  0.00    -0.052 C 
ATOM     12  C   UNL     1      34.842 -15.127 -22.785  0.00  0.00    -0.009 C 
ATOM     13  C   UNL     1      33.494 -16.278 -25.134  0.00  0.00    +0.086 C 
ATOM     14  C   UNL     1      34.924 -16.570 -23.131  0.00  0.00    +0.122 A 
ATOM     15  C   UNL     1      34.606 -18.389 -24.296  0.00  0.00    +0.238 A 
ATOM     16  H   UNL     1      32.838 -14.838 -23.058  0.00  0.00    -0.079 HD
BRANCH  15  20
ATOM     17  F   UNL     1      32.754 -19.408 -25.417  0.00  0.00    -0.163 F 
ATOM     18  F   UNL     1      34.494 -18.933 -26.623  0.00  0.00    -0.163 F 
ATOM     19  F   UNL     1      34.571 -20.584 -25.209  0.00  0.00    -0.163 F 
ATOM     20  C   UNL     1      34.122 -19.295 -25.351  0.00  0.00    +0.452 C 
ENDBRANCH  15  20
ENDBRANCH   1   7
BRANCH   3  24
ATOM     21  F   UNL     1      34.949  -8.781 -23.447  0.00  0.00    -0.204 F 
ATOM     22  F   UNL     1      30.220  -6.056 -23.093  0.00  0.00    -0.202 F 
ATOM     23  F   UNL     1      32.592  -4.703 -22.990  0.00  0.00    -0.202 F 
ATOM     24  C   UNL     1      32.576  -8.802 -23.412  0.00  0.00    +0.005 C 
ATOM     25  C   UNL     1      33.787  -8.119 -23.360  0.00  0.00    +0.138 C 
ATOM     26  C   UNL     1      31.371  -8.113 -23.323  0.00  0.00    +0.030 C 
ATOM     27  C   UNL     1      31.376  -6.726 -23.179  0.00  0.00    +0.167 C 
ATOM     28  C   UNL     1      33.792  -6.732 -23.217  0.00  0.00    +0.061 C 
ATOM     29  C   UNL     1      32.588  -6.035 -23.126  0.00  0.00    +0.170 C 
ENDBRANCH   3  24
BRANCH   4  30
ATOM     30  N   UNL     1      31.257 -10.702 -21.495  0.00  0.00    +0.382 N 
ATOM     31  H   UNL     1      31.373  -9.776 -21.083  0.00  0.00    -0.089 HD
ATOM     32  H   UNL     1      31.080 -11.382 -20.756  0.00  0.00    -0.089 HD
ATOM     33  H   UNL     1      30.469 -10.690 -22.143  0.00  0.00    -0.089 HD
ENDBRANCH   4  30
TORSDOF 4
ENDMDL
MODEL 9
REMARK VINA RESULT:      -9.8      8.720     13.958
REMARK  Name = 11538992
REMARK  4 active torsions:
REMARK  status: ('A' for Active; 'I' for Inactive)
REMARK    1  A    between atoms: C_1  and  N_7
REMARK    2  A    between atoms: C_3  and  C_24
REMARK    3  A    between atoms: C_4  and  N_30
REMARK    4  A    between atoms: C_15  and  C_20
REMARK                            x       y       z     vdW  Elec       q    Type
REMARK                         _______ _______ _______ _____ _____    ______ ____
ROOT
ATOM      1  C   UNL     1      32.690 -10.696 -23.563  0.00  0.00    -0.059 C 
ATOM      2  C   UNL     1      32.476 -11.523 -22.291  0.00  0.00    -0.042 C 
ATOM      3  C   UNL     1      34.013 -13.333 -23.209  0.00  0.00    +0.005 C 
ATOM      4  C   UNL     1      32.636 -13.028 -22.565  0.00  0.00    -0.064 C 
ATOM      5  C   UNL     1      34.058 -10.987 -24.184  0.00  0.00    -0.021 C 
ATOM      6  C   UNL     1      34.230 -12.477 -24.472  0.00  0.00    +0.000 C 
ENDROOT
BRANCH   1   7
ATOM      7  N   UNL     1      32.580  -9.271 -23.252  0.00  0.00    +0.394 N 
ATOM      8  N   UNL     1      31.637  -6.771 -22.469  0.00  0.00    -0.299 N 
ATOM      9  N   UNL     1      32.046  -7.024 -20.341  0.00  0.00    -0.136 NA
ATOM     10  N   UNL     1      31.674  -5.709 -20.573  0.00  0.00    -0.125 NA
ATOM     11  C   UNL     1      31.544  -8.632 -24.084  0.00  0.00    -0.052 C 
ATOM     12  C   UNL     1      32.300  -9.077 -21.815  0.00  0.00    -0.009 C 
ATOM     13  C   UNL     1      31.546  -7.110 -23.870  0.00  0.00    +0.086 C 
ATOM     14  C   UNL     1      32.022  -7.651 -21.499  0.00  0.00    +0.122 A 
ATOM     15  C   UNL     1      31.434  -5.580 -21.860  0.00  0.00    +0.238 A 
ATOM     16  H   UNL     1      33.473  -8.825 -23.467  0.00  0.00    -0.079 HD
BRANCH  15  20
ATOM     17  F   UNL     1      32.051  -3.496 -22.860  0.00  0.00    -0.163 F 
ATOM     18  F   UNL     1      30.416  -4.584 -23.782  0.00  0.00    -0.163 F 
ATOM     19  F   UNL     1      30.120  -3.599 -21.866  0.00  0.00    -0.163 F 
ATOM     20  C   UNL     1      31.021  -4.358 -22.569  0.00  0.00    +0.452 C 
ENDBRANCH  15  20
ENDBRANCH   1   7
BRANCH   3  24
ATOM     21  F   UNL     1      35.349 -15.138 -21.474  0.00  0.00    -0.204 F 
ATOM     22  F   UNL     1      33.436 -17.173 -26.176  0.00  0.00    -0.202 F 
ATOM     23  F   UNL     1      34.743 -18.799 -24.411  0.00  0.00    -0.202 F 
ATOM     24  C   UNL     1      34.212 -14.808 -23.531  0.00  0.00    +0.005 C 
ATOM     25  C   UNL     1      34.879 -15.630 -22.628  0.00  0.00    +0.138 C 
ATOM     26  C   UNL     1      33.724 -15.322 -24.728  0.00  0.00    +0.030 C 
ATOM     27  C   UNL     1      33.904 -16.672 -25.026  0.00  0.00    +0.167 C 
ATOM     28  C   UNL     1      35.059 -16.981 -22.927  0.00  0.00    +0.061 C 
ATOM     29  C   UNL     1      34.572 -17.501 -24.125  0.00  0.00    +0.170 C 
ENDBRANCH   3  24
BRANCH   4  30
ATOM     30  N   UNL     1      32.472 -13.772 -21.312  0.00  0.00    +0.382 N 
ATOM     31  H   UNL     1      33.352 -14.226 -21.069  0.00  0.00    -0.089 HD
ATOM     32  H   UNL     1      31.746 -14.478 -21.428  0.00  0.00    -0.089 HD
ATOM     33  H   UNL     1      32.205 -13.128 -20.567  0.00  0.00    -0.089 HD
ENDBRANCH   4  30
TORSDOF 4
ENDMDL
