MODEL 1
REMARK VINA RESULT:     -12.5      0.000      0.000
REMARK  Name = 10407120
REMARK  4 active torsions:
REMARK  status: ('A' for Active; 'I' for Inactive)
REMARK    1  A    between atoms: N_2  and  C_19
REMARK    2  A    between atoms: C_3  and  C_6
REMARK    3  A    between atoms: C_5  and  C_16
REMARK    4  A    between atoms: C_19  and  C_21
REMARK                            x       y       z     vdW  Elec       q    Type
REMARK                         _______ _______ _______ _____ _____    ______ ____
ROOT
ATOM      1  O   UNL     1      34.585 -16.526 -25.904  0.00  0.00    -0.270 OA
ATOM      2  N   UNL     1      33.623 -14.898 -24.551  0.00  0.00    -0.267 N 
ATOM      3  C   UNL     1      34.375 -16.053 -24.786  0.00  0.00    +0.250 C 
ATOM      4  C   UNL     1      33.038 -14.186 -25.679  0.00  0.00    +0.116 C 
ENDROOT
BRANCH   3   6
ATOM      5  C   UNL     1      34.838 -18.091 -23.469  0.00  0.00    +0.006 C 
ATOM      6  C   UNL     1      34.915 -16.743 -23.577  0.00  0.00    +0.058 C 
BRANCH   5  16
ATOM      7  O   UNL     1      36.477 -22.626 -17.463  0.00  0.00    -0.275 OA
ATOM      8  N   UNL     1      36.729 -21.020 -19.085  0.00  0.00    -0.270 N 
ATOM      9  N   UNL     1      37.073 -19.414 -20.787  0.00  0.00    -0.229 NA
ATOM     10  C   UNL     1      34.026 -21.424 -19.833  0.00  0.00    +0.039 C 
ATOM     11  C   UNL     1      34.926 -20.512 -20.609  0.00  0.00    +0.010 C 
ATOM     12  C   UNL     1      34.819 -22.552 -19.193  0.00  0.00    +0.090 C 
ATOM     13  C   UNL     1      36.241 -20.302 -20.194  0.00  0.00    +0.130 C 
ATOM     14  C   UNL     1      34.456 -19.772 -21.694  0.00  0.00    +0.000 C 
ATOM     15  C   UNL     1      36.059 -22.061 -18.473  0.00  0.00    +0.227 C 
ATOM     16  C   UNL     1      35.298 -18.869 -22.334  0.00  0.00    +0.019 C 
ATOM     17  C   UNL     1      36.584 -18.727 -21.844  0.00  0.00    +0.100 C 
ATOM     18  H   UNL     1      37.607 -20.763 -18.722  0.00  0.00    +0.156 HD
ENDBRANCH   5  16
ENDBRANCH   3   6
BRANCH   2  19
ATOM     19  C   UNL     1      33.333 -14.338 -23.233  0.00  0.00    +0.158 C 
BRANCH  19  21
ATOM     20  O   UNL     1      34.286 -12.282 -24.022  0.00  0.00    -0.456 OA
ATOM     21  C   UNL     1      33.336 -12.838 -23.247  0.00  0.00    +0.139 A 
ATOM     22  C   UNL     1      32.559 -11.917 -22.627  0.00  0.00    +0.013 A 
ATOM     23  C   UNL     1      33.060 -10.656 -23.043  0.00  0.00    +0.033 A 
ATOM     24  C   UNL     1      34.121 -10.935 -23.900  0.00  0.00    +0.145 A 
ATOM     25  C   UNL     1      31.429 -12.163 -21.709  0.00  0.00    +0.034 C 
ATOM     26  C   UNL     1      32.735  -9.312 -22.792  0.00  0.00    +0.003 C 
ATOM     27  C   UNL     1      34.891  -9.962 -24.533  0.00  0.00    +0.037 C 
ATOM     28  C   UNL     1      33.493  -8.310 -23.414  0.00  0.00    +0.000 C 
ATOM     29  C   UNL     1      34.551  -8.631 -24.268  0.00  0.00    +0.003 C 
ENDBRANCH  19  21
ENDBRANCH   2  19
TORSDOF 4
ENDMDL
MODEL 2
REMARK VINA RESULT:     -12.1      2.432      9.694
REMARK  Name = 10407120
REMARK  4 active torsions:
REMARK  status: ('A' for Active; 'I' for Inactive)
REMARK    1  A    between atoms: N_2  and  C_19
REMARK    2  A    between atoms: C_3  and  C_6
REMARK    3  A    between atoms: C_5  and  C_16
REMARK    4  A    between atoms: C_19  and  C_21
REMARK                            x       y       z     vdW  Elec       q    Type
REMARK                         _______ _______ _______ _____ _____    ______ ____
ROOT
ATOM      1  O   UNL     1      34.205 -17.107 -25.866  0.00  0.00    -0.270 OA
ATOM      2  N   UNL     1      34.955 -17.873 -23.804  0.00  0.00    -0.267 N 
ATOM      3  C   UNL     1      34.518 -16.889 -24.695  0.00  0.00    +0.250 C 
ATOM      4  C   UNL     1      35.057 -19.254 -24.259  0.00  0.00    +0.116 C 
ENDROOT
BRANCH   3   6
ATOM      5  C   UNL     1      33.328 -14.772 -24.247  0.00  0.00    +0.006 C 
ATOM      6  C   UNL     1      34.470 -15.495 -24.163  0.00  0.00    +0.058 C 
BRANCH   5  16
ATOM      7  O   UNL     1      31.988  -7.837 -21.172  0.00  0.00    -0.275 OA
ATOM      8  N   UNL     1      32.771  -9.441 -22.617  0.00  0.00    -0.270 N 
ATOM      9  N   UNL     1      33.673 -11.058 -24.090  0.00  0.00    -0.229 NA
ATOM     10  C   UNL     1      31.320 -11.391 -21.160  0.00  0.00    +0.039 C 
ATOM     11  C   UNL     1      32.240 -11.772 -22.279  0.00  0.00    +0.010 C 
ATOM     12  C   UNL     1      31.801 -10.123 -20.472  0.00  0.00    +0.090 C 
ATOM     13  C   UNL     1      32.910 -10.788 -23.004  0.00  0.00    +0.130 C 
ATOM     14  C   UNL     1      32.372 -13.098 -22.695  0.00  0.00    +0.000 C 
ATOM     15  C   UNL     1      32.157  -9.024 -21.453  0.00  0.00    +0.227 C 
ATOM     16  C   UNL     1      33.167 -13.402 -23.795  0.00  0.00    +0.019 C 
ATOM     17  C   UNL     1      33.787 -12.355 -24.453  0.00  0.00    +0.100 C 
ATOM     18  H   UNL     1      33.137  -8.752 -23.216  0.00  0.00    +0.156 HD
ENDBRANCH   5  16
ENDBRANCH   3   6
BRANCH   2  19
ATOM     19  C   UNL     1      35.364 -17.633 -22.421  0.00  0.00    +0.158 C 
BRANCH  19  21
ATOM     20  O   UNL     1      33.980 -19.293 -21.376  0.00  0.00    -0.456 OA
ATOM     21  C   UNL     1      35.242 -18.868 -21.577  0.00  0.00    +0.139 A 
ATOM     22  C   UNL     1      36.163 -19.654 -20.969  0.00  0.00    +0.013 A 
ATOM     23  C   UNL     1      35.421 -20.675 -20.319  0.00  0.00    +0.033 A 
ATOM     24  C   UNL     1      34.084 -20.407 -20.599  0.00  0.00    +0.145 A 
ATOM     25  C   UNL     1      37.630 -19.491 -20.975  0.00  0.00    +0.034 C 
ATOM     26  C   UNL     1      35.730 -21.793 -19.526  0.00  0.00    +0.003 C 
ATOM     27  C   UNL     1      33.020 -21.182 -20.143  0.00  0.00    +0.037 C 
ATOM     28  C   UNL     1      34.680 -22.591 -19.051  0.00  0.00    +0.000 C 
ATOM     29  C   UNL     1      33.350 -22.288 -19.355  0.00  0.00    +0.003 C 
ENDBRANCH  19  21
ENDBRANCH   2  19
TORSDOF 4
ENDMDL
MODEL 3
REMARK VINA RESULT:     -11.4      1.368      1.983
REMARK  Name = 10407120
REMARK  4 active torsions:
REMARK  status: ('A' for Active; 'I' for Inactive)
REMARK    1  A    between atoms: N_2  and  C_19
REMARK    2  A    between atoms: C_3  and  C_6
REMARK    3  A    between atoms: C_5  and  C_16
REMARK    4  A    between atoms: C_19  and  C_21
REMARK                            x       y       z     vdW  Elec       q    Type
REMARK                         _______ _______ _______ _____ _____    ______ ____
ROOT
ATOM      1  O   UNL     1      34.213 -18.252 -25.031  0.00  0.00    -0.270 OA
ATOM      2  N   UNL     1      34.442 -16.239 -23.891  0.00  0.00    -0.267 N 
ATOM      3  C   UNL     1      34.529 -17.629 -24.017  0.00  0.00    +0.250 C 
ATOM      4  C   UNL     1      33.951 -15.450 -25.013  0.00  0.00    +0.116 C 
ENDROOT
BRANCH   3   6
ATOM      5  C   UNL     1      34.331 -19.446 -22.355  0.00  0.00    +0.006 C 
ATOM      6  C   UNL     1      35.012 -18.369 -22.813  0.00  0.00    +0.058 C 
BRANCH   5  16
ATOM      7  O   UNL     1      35.338 -23.832 -16.103  0.00  0.00    -0.275 OA
ATOM      8  N   UNL     1      35.818 -22.400 -17.834  0.00  0.00    -0.270 N 
ATOM      9  N   UNL     1      36.384 -20.989 -19.646  0.00  0.00    -0.229 NA
ATOM     10  C   UNL     1      33.061 -22.349 -18.488  0.00  0.00    +0.039 C 
ATOM     11  C   UNL     1      34.083 -21.665 -19.344  0.00  0.00    +0.010 C 
ATOM     12  C   UNL     1      33.661 -23.561 -17.794  0.00  0.00    +0.090 C 
ATOM     13  C   UNL     1      35.428 -21.673 -18.976  0.00  0.00    +0.130 C 
ATOM     14  C   UNL     1      33.716 -20.919 -20.465  0.00  0.00    +0.000 C 
ATOM     15  C   UNL     1      34.993 -23.262 -17.138  0.00  0.00    +0.227 C 
ATOM     16  C   UNL     1      34.683 -20.225 -21.182  0.00  0.00    +0.019 C 
ATOM     17  C   UNL     1      35.990 -20.290 -20.734  0.00  0.00    +0.100 C 
ATOM     18  H   UNL     1      36.740 -22.285 -17.509  0.00  0.00    +0.156 HD
ENDBRANCH   5  16
ENDBRANCH   3   6
BRANCH   2  19
ATOM     19  C   UNL     1      34.779 -15.482 -22.687  0.00  0.00    +0.158 C 
BRANCH  19  21
ATOM     20  O   UNL     1      34.365 -13.288 -23.566  0.00  0.00    -0.456 OA
ATOM     21  C   UNL     1      34.034 -14.181 -22.616  0.00  0.00    +0.139 A 
ATOM     22  C   UNL     1      33.080 -13.721 -21.772  0.00  0.00    +0.013 A 
ATOM     23  C   UNL     1      32.772 -12.411 -22.226  0.00  0.00    +0.033 A 
ATOM     24  C   UNL     1      33.590 -12.193 -23.331  0.00  0.00    +0.145 A 
ATOM     25  C   UNL     1      32.479 -14.424 -20.621  0.00  0.00    +0.034 C 
ATOM     26  C   UNL     1      31.896 -11.388 -21.826  0.00  0.00    +0.003 C 
ATOM     27  C   UNL     1      33.598 -11.016 -24.076  0.00  0.00    +0.037 C 
ATOM     28  C   UNL     1      31.882 -10.192 -22.556  0.00  0.00    +0.000 C 
ATOM     29  C   UNL     1      32.719 -10.011 -23.660  0.00  0.00    +0.003 C 
ENDBRANCH  19  21
ENDBRANCH   2  19
TORSDOF 4
ENDMDL
MODEL 4
REMARK VINA RESULT:     -11.4      1.065      1.988
REMARK  Name = 10407120
REMARK  4 active torsions:
REMARK  status: ('A' for Active; 'I' for Inactive)
REMARK    1  A    between atoms: N_2  and  C_19
REMARK    2  A    between atoms: C_3  and  C_6
REMARK    3  A    between atoms: C_5  and  C_16
REMARK    4  A    between atoms: C_19  and  C_21
REMARK                            x       y       z     vdW  Elec       q    Type
REMARK                         _______ _______ _______ _____ _____    ______ ____
ROOT
ATOM      1  O   UNL     1      33.285 -17.159 -26.250  0.00  0.00    -0.270 OA
ATOM      2  N   UNL     1      33.898 -15.178 -25.198  0.00  0.00    -0.267 N 
ATOM      3  C   UNL     1      33.911 -16.565 -25.370  0.00  0.00    +0.250 C 
ATOM      4  C   UNL     1      33.104 -14.354 -26.100  0.00  0.00    +0.116 C 
ENDROOT
BRANCH   3   6
ATOM      5  C   UNL     1      34.116 -18.032 -23.393  0.00  0.00    +0.006 C 
ATOM      6  C   UNL     1      34.723 -17.342 -24.387  0.00  0.00    +0.058 C 
BRANCH   5  16
ATOM      7  O   UNL     1      36.954 -22.527 -17.818  0.00  0.00    -0.275 OA
ATOM      8  N   UNL     1      36.854 -20.899 -19.436  0.00  0.00    -0.270 N 
ATOM      9  N   UNL     1      36.830 -19.267 -21.147  0.00  0.00    -0.229 NA
ATOM     10  C   UNL     1      34.084 -21.426 -19.723  0.00  0.00    +0.039 C 
ATOM     11  C   UNL     1      34.797 -20.467 -20.625  0.00  0.00    +0.010 C 
ATOM     12  C   UNL     1      35.025 -22.519 -19.243  0.00  0.00    +0.090 C 
ATOM     13  C   UNL     1      36.152 -20.197 -20.435  0.00  0.00    +0.130 C 
ATOM     14  C   UNL     1      34.117 -19.742 -21.605  0.00  0.00    +0.000 C 
ATOM     15  C   UNL     1      36.345 -21.975 -18.735  0.00  0.00    +0.227 C 
ATOM     16  C   UNL     1      34.796 -18.796 -22.364  0.00  0.00    +0.019 C 
ATOM     17  C   UNL     1      36.138 -18.596 -22.096  0.00  0.00    +0.100 C 
ATOM     18  H   UNL     1      37.767 -20.603 -19.222  0.00  0.00    +0.156 HD
ENDBRANCH   5  16
ENDBRANCH   3   6
BRANCH   2  19
ATOM     19  C   UNL     1      34.605 -14.455 -24.142  0.00  0.00    +0.158 C 
BRANCH  19  21
ATOM     20  O   UNL     1      33.000 -13.493 -22.640  0.00  0.00    -0.456 OA
ATOM     21  C   UNL     1      33.835 -13.258 -23.669  0.00  0.00    +0.139 A 
ATOM     22  C   UNL     1      33.813 -11.966 -24.078  0.00  0.00    +0.013 A 
ATOM     23  C   UNL     1      32.877 -11.316 -23.231  0.00  0.00    +0.033 A 
ATOM     24  C   UNL     1      32.406 -12.299 -22.365  0.00  0.00    +0.145 A 
ATOM     25  C   UNL     1      34.593 -11.354 -25.172  0.00  0.00    +0.034 C 
ATOM     26  C   UNL     1      32.377 -10.010 -23.101  0.00  0.00    +0.003 C 
ATOM     27  C   UNL     1      31.462 -12.072 -21.366  0.00  0.00    +0.037 C 
ATOM     28  C   UNL     1      31.425  -9.750 -22.105  0.00  0.00    +0.000 C 
ATOM     29  C   UNL     1      30.977 -10.765 -21.255  0.00  0.00    +0.003 C 
ENDBRANCH  19  21
ENDBRANCH   2  19
TORSDOF 4
ENDMDL
MODEL 5
REMARK VINA RESULT:     -11.2      5.968     12.803
REMARK  Name = 10407120
REMARK  4 active torsions:
REMARK  status: ('A' for Active; 'I' for Inactive)
REMARK    1  A    between atoms: N_2  and  C_19
REMARK    2  A    between atoms: C_3  and  C_6
REMARK    3  A    between atoms: C_5  and  C_16
REMARK    4  A    between atoms: C_19  and  C_21
REMARK                            x       y       z     vdW  Elec       q    Type
REMARK                         _______ _______ _______ _____ _____    ______ ____
ROOT
ATOM      1  O   UNL     1      30.836 -24.841 -16.143  0.00  0.00    -0.270 OA
ATOM      2  N   UNL     1      32.116 -24.305 -14.278  0.00  0.00    -0.267 N 
ATOM      3  C   UNL     1      31.721 -24.169 -15.612  0.00  0.00    +0.250 C 
ATOM      4  C   UNL     1      31.459 -25.296 -13.436  0.00  0.00    +0.116 C 
ENDROOT
BRANCH   3   6
ATOM      5  C   UNL     1      33.370 -23.547 -17.342  0.00  0.00    +0.006 C 
ATOM      6  C   UNL     1      32.463 -23.154 -16.417  0.00  0.00    +0.058 C 
BRANCH   5  16
ATOM      7  O   UNL     1      36.865 -18.595 -22.097  0.00  0.00    -0.275 OA
ATOM      8  N   UNL     1      36.583 -20.165 -20.444  0.00  0.00    -0.270 N 
ATOM      9  N   UNL     1      36.338 -21.718 -18.676  0.00  0.00    -0.229 NA
ATOM     10  C   UNL     1      33.844 -20.340 -21.149  0.00  0.00    +0.039 C 
ATOM     11  C   UNL     1      34.398 -21.073 -19.966  0.00  0.00    +0.010 C 
ATOM     12  C   UNL     1      34.618 -19.056 -21.401  0.00  0.00    +0.090 C 
ATOM     13  C   UNL     1      35.757 -21.000 -19.666  0.00  0.00    +0.130 C 
ATOM     14  C   UNL     1      33.603 -21.926 -19.197  0.00  0.00    +0.000 C 
ATOM     15  C   UNL     1      36.119 -19.264 -21.382  0.00  0.00    +0.227 C 
ATOM     16  C   UNL     1      34.173 -22.657 -18.162  0.00  0.00    +0.019 C 
ATOM     17  C   UNL     1      35.532 -22.521 -17.946  0.00  0.00    +0.100 C 
ATOM     18  H   UNL     1      37.556 -20.228 -20.310  0.00  0.00    +0.156 HD
ENDBRANCH   5  16
ENDBRANCH   3   6
BRANCH   2  19
ATOM     19  C   UNL     1      33.186 -23.542 -13.637  0.00  0.00    +0.158 C 
BRANCH  19  21
ATOM     20  O   UNL     1      34.761 -24.987 -14.727  0.00  0.00    -0.456 OA
ATOM     21  C   UNL     1      34.477 -24.307 -13.601  0.00  0.00    +0.139 A 
ATOM     22  C   UNL     1      35.428 -24.449 -12.647  0.00  0.00    +0.013 A 
ATOM     23  C   UNL     1      36.411 -25.301 -13.216  0.00  0.00    +0.033 A 
ATOM     24  C   UNL     1      35.954 -25.603 -14.495  0.00  0.00    +0.145 A 
ATOM     25  C   UNL     1      35.446 -23.851 -11.297  0.00  0.00    +0.034 C 
ATOM     26  C   UNL     1      37.634 -25.848 -12.793  0.00  0.00    +0.003 C 
ATOM     27  C   UNL     1      36.635 -26.420 -15.395  0.00  0.00    +0.037 C 
ATOM     28  C   UNL     1      38.342 -26.675 -13.676  0.00  0.00    +0.000 C 
ATOM     29  C   UNL     1      37.849 -26.955 -14.953  0.00  0.00    +0.003 C 
ENDBRANCH  19  21
ENDBRANCH   2  19
TORSDOF 4
ENDMDL
MODEL 6
REMARK VINA RESULT:     -11.0      4.111     11.650
REMARK  Name = 10407120
REMARK  4 active torsions:
REMARK  status: ('A' for Active; 'I' for Inactive)
REMARK    1  A    between atoms: N_2  and  C_19
REMARK    2  A    between atoms: C_3  and  C_6
REMARK    3  A    between atoms: C_5  and  C_16
REMARK    4  A    between atoms: C_19  and  C_21
REMARK                            x       y       z     vdW  Elec       q    Type
REMARK                         _______ _______ _______ _____ _____    ______ ____
ROOT
ATOM      1  O   UNL     1      30.888 -11.084 -20.918  0.00  0.00    -0.270 OA
ATOM      2  N   UNL     1      32.511 -12.266 -22.089  0.00  0.00    -0.267 N 
ATOM      3  C   UNL     1      31.735 -11.137 -21.811  0.00  0.00    +0.250 C 
ATOM      4  C   UNL     1      32.331 -13.471 -21.291  0.00  0.00    +0.116 C 
ENDROOT
BRANCH   3   6
ATOM      5  C   UNL     1      31.899  -8.701 -22.181  0.00  0.00    +0.006 C 
ATOM      6  C   UNL     1      31.958  -9.953 -22.692  0.00  0.00    +0.058 C 
BRANCH   5  16
ATOM      7  O   UNL     1      33.563  -2.542 -26.498  0.00  0.00    -0.275 OA
ATOM      8  N   UNL     1      32.429  -3.920 -25.051  0.00  0.00    -0.270 N 
ATOM      9  N   UNL     1      31.181  -5.333 -23.624  0.00  0.00    -0.229 NA
ATOM     10  C   UNL     1      34.621  -5.715 -25.125  0.00  0.00    +0.039 C 
ATOM     11  C   UNL     1      33.355  -6.053 -24.399  0.00  0.00    +0.010 C 
ATOM     12  C   UNL     1      34.340  -4.802 -26.307  0.00  0.00    +0.090 C 
ATOM     13  C   UNL     1      32.308  -5.133 -24.347  0.00  0.00    +0.130 C 
ATOM     14  C   UNL     1      33.223  -7.238 -23.673  0.00  0.00    +0.000 C 
ATOM     15  C   UNL     1      33.442  -3.636 -25.947  0.00  0.00    +0.227 C 
ATOM     16  C   UNL     1      32.066  -7.475 -22.940  0.00  0.00    +0.019 C 
ATOM     17  C   UNL     1      31.086  -6.499 -22.946  0.00  0.00    +0.100 C 
ATOM     18  H   UNL     1      31.747  -3.228 -24.895  0.00  0.00    +0.156 HD
ENDBRANCH   5  16
ENDBRANCH   3   6
BRANCH   2  19
ATOM     19  C   UNL     1      33.498 -12.364 -23.164  0.00  0.00    +0.158 C 
BRANCH  19  21
ATOM     20  O   UNL     1      34.521 -14.437 -22.522  0.00  0.00    -0.456 OA
ATOM     21  C   UNL     1      33.839 -13.790 -23.484  0.00  0.00    +0.139 A 
ATOM     22  C   UNL     1      33.591 -14.567 -24.566  0.00  0.00    +0.013 A 
ATOM     23  C   UNL     1      34.170 -15.828 -24.267  0.00  0.00    +0.033 A 
ATOM     24  C   UNL     1      34.729 -15.696 -23.000  0.00  0.00    +0.145 A 
ATOM     25  C   UNL     1      32.873 -14.191 -25.800  0.00  0.00    +0.034 C 
ATOM     26  C   UNL     1      34.283 -17.064 -24.926  0.00  0.00    +0.003 C 
ATOM     27  C   UNL     1      35.401 -16.718 -22.332  0.00  0.00    +0.037 C 
ATOM     28  C   UNL     1      34.954 -18.112 -24.280  0.00  0.00    +0.000 C 
ATOM     29  C   UNL     1      35.502 -17.939 -23.006  0.00  0.00    +0.003 C 
ENDBRANCH  19  21
ENDBRANCH   2  19
TORSDOF 4
ENDMDL
MODEL 7
REMARK VINA RESULT:     -10.6      3.922      7.286
REMARK  Name = 10407120
REMARK  4 active torsions:
REMARK  status: ('A' for Active; 'I' for Inactive)
REMARK    1  A    between atoms: N_2  and  C_19
REMARK    2  A    between atoms: C_3  and  C_6
REMARK    3  A    between atoms: C_5  and  C_16
REMARK    4  A    between atoms: C_19  and  C_21
REMARK                            x       y       z     vdW  Elec       q    Type
REMARK                         _______ _______ _______ _____ _____    ______ ____
ROOT
ATOM      1  O   UNL     1      32.341 -22.118 -18.761  0.00  0.00    -0.270 OA
ATOM      2  N   UNL     1      33.682 -20.942 -20.251  0.00  0.00    -0.267 N 
ATOM      3  C   UNL     1      33.457 -21.822 -19.189  0.00  0.00    +0.250 C 
ATOM      4  C   UNL     1      32.544 -20.318 -20.914  0.00  0.00    +0.116 C 
ENDROOT
BRANCH   3   6
ATOM      5  C   UNL     1      34.638 -22.789 -17.247  0.00  0.00    +0.006 C 
ATOM      6  C   UNL     1      34.674 -22.396 -18.542  0.00  0.00    +0.058 C 
BRANCH   5  16
ATOM      7  O   UNL     1      40.076 -26.381 -13.140  0.00  0.00    -0.275 OA
ATOM      8  N   UNL     1      39.036 -24.759 -14.390  0.00  0.00    -0.270 N 
ATOM      9  N   UNL     1      38.042 -23.093 -15.744  0.00  0.00    -0.229 NA
ATOM     10  C   UNL     1      36.656 -26.296 -14.312  0.00  0.00    +0.039 C 
ATOM     11  C   UNL     1      36.754 -25.043 -15.126  0.00  0.00    +0.010 C 
ATOM     12  C   UNL     1      38.012 -26.977 -14.203  0.00  0.00    +0.090 C 
ATOM     13  C   UNL     1      37.924 -24.286 -15.115  0.00  0.00    +0.130 C 
ATOM     14  C   UNL     1      35.657 -24.543 -15.830  0.00  0.00    +0.000 C 
ATOM     15  C   UNL     1      39.121 -26.016 -13.827  0.00  0.00    +0.227 C 
ATOM     16  C   UNL     1      35.760 -23.330 -16.502  0.00  0.00    +0.019 C 
ATOM     17  C   UNL     1      36.962 -22.650 -16.426  0.00  0.00    +0.100 C 
ATOM     18  H   UNL     1      39.803 -24.152 -14.279  0.00  0.00    +0.156 HD
ENDBRANCH   5  16
ENDBRANCH   3   6
BRANCH   2  19
ATOM     19  C   UNL     1      34.997 -20.549 -20.754  0.00  0.00    +0.158 C 
BRANCH  19  21
ATOM     20  O   UNL     1      34.931 -18.158 -20.564  0.00  0.00    -0.456 OA
ATOM     21  C   UNL     1      34.967 -19.202 -21.413  0.00  0.00    +0.139 A 
ATOM     22  C   UNL     1      34.970 -18.821 -22.713  0.00  0.00    +0.013 A 
ATOM     23  C   UNL     1      34.932 -17.401 -22.692  0.00  0.00    +0.033 A 
ATOM     24  C   UNL     1      34.909 -17.044 -21.348  0.00  0.00    +0.145 A 
ATOM     25  C   UNL     1      35.006 -19.689 -23.906  0.00  0.00    +0.034 C 
ATOM     26  C   UNL     1      34.915 -16.382 -23.659  0.00  0.00    +0.003 C 
ATOM     27  C   UNL     1      34.870 -15.729 -20.889  0.00  0.00    +0.037 C 
ATOM     28  C   UNL     1      34.875 -15.048 -23.229  0.00  0.00    +0.000 C 
ATOM     29  C   UNL     1      34.852 -14.730 -21.868  0.00  0.00    +0.003 C 
ENDBRANCH  19  21
ENDBRANCH   2  19
TORSDOF 4
ENDMDL
MODEL 8
REMARK VINA RESULT:     -10.5      3.940      6.304
REMARK  Name = 10407120
REMARK  4 active torsions:
REMARK  status: ('A' for Active; 'I' for Inactive)
REMARK    1  A    between atoms: N_2  and  C_19
REMARK    2  A    between atoms: C_3  and  C_6
REMARK    3  A    between atoms: C_5  and  C_16
REMARK    4  A    between atoms: C_19  and  C_21
REMARK                            x       y       z     vdW  Elec       q    Type
REMARK                         _______ _______ _______ _____ _____    ______ ____
ROOT
ATOM      1  O   UNL     1      32.388 -10.963 -19.311  0.00  0.00    -0.270 OA
ATOM      2  N   UNL     1      31.663  -9.693 -21.118  0.00  0.00    -0.267 N 
ATOM      3  C   UNL     1      32.063 -10.879 -20.497  0.00  0.00    +0.250 C 
ATOM      4  C   UNL     1      31.617  -8.460 -20.343  0.00  0.00    +0.116 C 
ENDROOT
BRANCH   3   6
ATOM      5  C   UNL     1      33.224 -12.367 -22.090  0.00  0.00    +0.006 C 
ATOM      6  C   UNL     1      32.113 -12.092 -21.366  0.00  0.00    +0.058 C 
BRANCH   5  16
ATOM      7  O   UNL     1      34.530 -18.740 -26.216  0.00  0.00    -0.275 OA
ATOM      8  N   UNL     1      33.766 -16.644 -25.666  0.00  0.00    -0.270 N 
ATOM      9  N   UNL     1      32.885 -14.518 -25.122  0.00  0.00    -0.229 NA
ATOM     10  C   UNL     1      35.190 -16.822 -23.222  0.00  0.00    +0.039 C 
ATOM     11  C   UNL     1      34.287 -15.665 -23.522  0.00  0.00    +0.010 C 
ATOM     12  C   UNL     1      34.701 -18.083 -23.917  0.00  0.00    +0.090 C 
ATOM     13  C   UNL     1      33.630 -15.584 -24.749  0.00  0.00    +0.130 C 
ATOM     14  C   UNL     1      34.159 -14.592 -22.638  0.00  0.00    +0.000 C 
ATOM     15  C   UNL     1      34.363 -17.855 -25.376  0.00  0.00    +0.227 C 
ATOM     16  C   UNL     1      33.381 -13.495 -22.991  0.00  0.00    +0.019 C 
ATOM     17  C   UNL     1      32.773 -13.506 -24.233  0.00  0.00    +0.100 C 
ATOM     18  H   UNL     1      33.412 -16.513 -26.575  0.00  0.00    +0.156 HD
ENDBRANCH   5  16
ENDBRANCH   3   6
BRANCH   2  19
ATOM     19  C   UNL     1      31.306  -9.563 -22.530  0.00  0.00    +0.158 C 
BRANCH  19  21
ATOM     20  O   UNL     1      31.299  -7.313 -23.366  0.00  0.00    -0.456 OA
ATOM     21  C   UNL     1      32.033  -8.428 -23.190  0.00  0.00    +0.139 A 
ATOM     22  C   UNL     1      33.300  -8.301 -23.651  0.00  0.00    +0.013 A 
ATOM     23  C   UNL     1      33.385  -6.982 -24.170  0.00  0.00    +0.033 A 
ATOM     24  C   UNL     1      32.128  -6.417 -23.971  0.00  0.00    +0.145 A 
ATOM     25  C   UNL     1      34.374  -9.313 -23.625  0.00  0.00    +0.034 C 
ATOM     26  C   UNL     1      34.381  -6.204 -24.784  0.00  0.00    +0.003 C 
ATOM     27  C   UNL     1      31.788  -5.118 -24.342  0.00  0.00    +0.037 C 
ATOM     28  C   UNL     1      34.068  -4.894 -25.170  0.00  0.00    +0.000 C 
ATOM     29  C   UNL     1      32.794  -4.363 -24.953  0.00  0.00    +0.003 C 
ENDBRANCH  19  21
ENDBRANCH   2  19
TORSDOF 4
ENDMDL
MODEL 9
REMARK VINA RESULT:     -10.3      5.599      8.248
REMARK  Name = 10407120
REMARK  4 active torsions:
REMARK  status: ('A' for Active; 'I' for Inactive)
REMARK    1  A    between atoms: N_2  and  C_19
REMARK    2  A    between atoms: C_3  and  C_6
REMARK    3  A    between atoms: C_5  and  C_16
REMARK    4  A    between atoms: C_19  and  C_21
REMARK                            x       y       z     vdW  Elec       q    Type
REMARK                         _______ _______ _______ _____ _____    ______ ____
ROOT
ATOM      1  O   UNL     1      32.395  -8.106 -19.783  0.00  0.00    -0.270 OA
ATOM      2  N   UNL     1      31.740  -7.114 -21.781  0.00  0.00    -0.267 N 
ATOM      3  C   UNL     1      32.046  -8.204 -20.961  0.00  0.00    +0.250 C 
ATOM      4  C   UNL     1      31.831  -5.765 -21.239  0.00  0.00    +0.116 C 
ENDROOT
BRANCH   3   6
ATOM      5  C   UNL     1      33.010 -10.046 -22.293  0.00  0.00    +0.006 C 
ATOM      6  C   UNL     1      31.959  -9.551 -21.598  0.00  0.00    +0.058 C 
BRANCH   5  16
ATOM      7  O   UNL     1      33.347 -16.368 -26.682  0.00  0.00    -0.275 OA
ATOM      8  N   UNL     1      33.061 -15.041 -24.829  0.00  0.00    -0.270 N 
ATOM      9  N   UNL     1      32.838 -13.730 -22.873  0.00  0.00    -0.229 NA
ATOM     10  C   UNL     1      33.399 -12.758 -26.475  0.00  0.00    +0.039 C 
ATOM     11  C   UNL     1      33.270 -12.641 -24.987  0.00  0.00    +0.010 C 
ATOM     12  C   UNL     1      34.043 -14.081 -26.859  0.00  0.00    +0.090 C 
ATOM     13  C   UNL     1      33.065 -13.778 -24.207  0.00  0.00    +0.130 C 
ATOM     14  C   UNL     1      33.245 -11.398 -24.353  0.00  0.00    +0.000 C 
ATOM     15  C   UNL     1      33.424 -15.264 -26.143  0.00  0.00    +0.227 C 
ATOM     16  C   UNL     1      33.034 -11.325 -22.980  0.00  0.00    +0.019 C 
ATOM     17  C   UNL     1      32.835 -12.509 -22.294  0.00  0.00    +0.100 C 
ATOM     18  H   UNL     1      32.781 -15.816 -24.292  0.00  0.00    +0.156 HD
ENDBRANCH   5  16
ENDBRANCH   3   6
BRANCH   2  19
ATOM     19  C   UNL     1      31.356  -7.203 -23.189  0.00  0.00    +0.158 C 
BRANCH  19  21
ATOM     20  O   UNL     1      31.775  -5.475 -24.801  0.00  0.00    -0.456 OA
ATOM     21  C   UNL     1      32.319  -6.474 -24.080  0.00  0.00    +0.139 A 
ATOM     22  C   UNL     1      33.646  -6.621 -24.305  0.00  0.00    +0.013 A 
ATOM     23  C   UNL     1      33.982  -5.625 -25.260  0.00  0.00    +0.033 A 
ATOM     24  C   UNL     1      32.797  -4.948 -25.531  0.00  0.00    +0.145 A 
ATOM     25  C   UNL     1      34.559  -7.607 -23.694  0.00  0.00    +0.034 C 
ATOM     26  C   UNL     1      35.153  -5.221 -25.922  0.00  0.00    +0.003 C 
ATOM     27  C   UNL     1      32.692  -3.884 -26.425  0.00  0.00    +0.037 C 
ATOM     28  C   UNL     1      35.079  -4.155 -26.828  0.00  0.00    +0.000 C 
ATOM     29  C   UNL     1      33.869  -3.500 -27.074  0.00  0.00    +0.003 C 
ENDBRANCH  19  21
ENDBRANCH   2  19
TORSDOF 4
ENDMDL
