MODEL 1
REMARK VINA RESULT:     -12.5      0.000      0.000
REMARK  Name = 46926973
REMARK  4 active torsions:
REMARK  status: ('A' for Active; 'I' for Inactive)
REMARK    1  A    between atoms: C_4  and  C_17
REMARK    2  A    between atoms: C_6  and  C_13
REMARK    3  A    between atoms: C_17  and  C_19
REMARK    4  A    between atoms: C_21  and  C_26
REMARK                            x       y       z     vdW  Elec       q    Type
REMARK                         _______ _______ _______ _____ _____    ______ ____
ROOT
ATOM      1  O   UNL     1      33.775 -19.808 -22.284  0.00  0.00    -0.274 OA
ATOM      2  N   UNL     1      35.899 -19.951 -21.284  0.00  0.00    -0.269 N 
ATOM      3  N   UNL     1      36.724 -21.056 -19.363  0.00  0.00    -0.229 NA
ATOM      4  C   UNL     1      34.970 -19.530 -22.245  0.00  0.00    +0.232 C 
ATOM      5  C   UNL     1      35.678 -20.770 -20.170  0.00  0.00    +0.134 C 
ATOM      6  C   UNL     1      35.211 -22.373 -18.012  0.00  0.00    +0.038 C 
ATOM      7  C   UNL     1      34.390 -21.240 -19.968  0.00  0.00    +0.035 C 
ATOM      8  C   UNL     1      34.161 -22.055 -18.866  0.00  0.00    +0.006 C 
ATOM      9  C   UNL     1      36.462 -21.852 -18.301  0.00  0.00    +0.102 C 
ATOM     10  H   UNL     1      36.822 -19.631 -21.408  0.00  0.00    +0.156 HD
ENDROOT
BRANCH   6  13
ATOM     11  N   UNL     1      36.120 -23.689 -16.266  0.00  0.00    -0.241 NA
ATOM     12  N   UNL     1      33.556 -24.310 -15.315  0.00  0.00    -0.239 NA
ATOM     13  C   UNL     1      35.005 -23.217 -16.859  0.00  0.00    +0.102 C 
ATOM     14  C   UNL     1      33.745 -23.522 -16.391  0.00  0.00    +0.118 C 
ATOM     15  C   UNL     1      35.930 -24.476 -15.189  0.00  0.00    +0.119 C 
ATOM     16  C   UNL     1      34.671 -24.783 -14.722  0.00  0.00    +0.120 C 
ENDBRANCH   6  13
BRANCH   4  17
ATOM     17  C   UNL     1      35.633 -18.647 -23.291  0.00  0.00    +0.113 C 
BRANCH  17  19
ATOM     18  N   UNL     1      34.736 -15.125 -22.230  0.00  0.00    -0.244 NA
ATOM     19  C   UNL     1      35.075 -17.248 -23.335  0.00  0.00    +0.006 C 
ATOM     20  C   UNL     1      33.899 -15.483 -24.471  0.00  0.00    -0.004 C 
ATOM     21  C   UNL     1      34.090 -14.704 -23.341  0.00  0.00    +0.077 C 
ATOM     22  C   UNL     1      34.404 -16.779 -24.459  0.00  0.00    -0.005 C 
ATOM     23  C   UNL     1      35.213 -16.389 -22.256  0.00  0.00    +0.095 C 
ATOM     24  C   UNL     1      33.180 -14.983 -25.676  0.00  0.00    +0.033 C 
BRANCH  21  26
ATOM     25  N   UNL     1      32.654 -10.720 -23.101  0.00  0.00    -0.248 NA
ATOM     26  C   UNL     1      33.600 -13.346 -23.259  0.00  0.00    +0.020 C 
ATOM     27  C   UNL     1      32.587 -13.022 -22.363  0.00  0.00    +0.016 C 
ATOM     28  C   UNL     1      34.141 -12.358 -24.076  0.00  0.00    +0.022 C 
ATOM     29  C   UNL     1      32.153 -11.706 -22.324  0.00  0.00    +0.059 C 
ATOM     30  C   UNL     1      33.637 -11.073 -23.959  0.00  0.00    +0.098 C 
ATOM     31  C   UNL     1      31.067 -11.322 -21.375  0.00  0.00    +0.052 C 
ENDBRANCH  21  26
ENDBRANCH  17  19
ENDBRANCH   4  17
TORSDOF 4
ENDMDL
MODEL 2
REMARK VINA RESULT:     -12.4      1.335      1.978
REMARK  Name = 46926973
REMARK  4 active torsions:
REMARK  status: ('A' for Active; 'I' for Inactive)
REMARK    1  A    between atoms: C_4  and  C_17
REMARK    2  A    between atoms: C_6  and  C_13
REMARK    3  A    between atoms: C_17  and  C_19
REMARK    4  A    between atoms: C_21  and  C_26
REMARK                            x       y       z     vdW  Elec       q    Type
REMARK                         _______ _______ _______ _____ _____    ______ ____
ROOT
ATOM      1  O   UNL     1      36.625 -19.012 -22.887  0.00  0.00    -0.274 OA
ATOM      2  N   UNL     1      34.352 -19.453 -22.476  0.00  0.00    -0.269 N 
ATOM      3  N   UNL     1      33.207 -20.686 -20.814  0.00  0.00    -0.229 NA
ATOM      4  C   UNL     1      35.436 -18.897 -23.169  0.00  0.00    +0.232 C 
ATOM      5  C   UNL     1      34.380 -20.251 -21.326  0.00  0.00    +0.134 C 
ATOM      6  C   UNL     1      34.473 -21.800 -19.082  0.00  0.00    +0.038 C 
ATOM      7  C   UNL     1      35.620 -20.543 -20.781  0.00  0.00    +0.035 C 
ATOM      8  C   UNL     1      35.659 -21.334 -19.638  0.00  0.00    +0.006 C 
ATOM      9  C   UNL     1      33.284 -21.452 -19.703  0.00  0.00    +0.102 C 
ATOM     10  H   UNL     1      33.460 -19.257 -22.844  0.00  0.00    +0.156 HD
ENDROOT
BRANCH   6  13
ATOM     11  N   UNL     1      35.673 -22.766 -17.284  0.00  0.00    -0.241 NA
ATOM     12  N   UNL     1      33.349 -23.997 -16.311  0.00  0.00    -0.239 NA
ATOM     13  C   UNL     1      34.480 -22.624 -17.896  0.00  0.00    +0.102 C 
ATOM     14  C   UNL     1      33.339 -23.229 -17.418  0.00  0.00    +0.118 C 
ATOM     15  C   UNL     1      35.683 -23.533 -16.176  0.00  0.00    +0.119 C 
ATOM     16  C   UNL     1      34.542 -24.139 -15.698  0.00  0.00    +0.120 C 
ENDBRANCH   6  13
BRANCH   4  17
ATOM     17  C   UNL     1      34.960 -18.092 -24.368  0.00  0.00    +0.113 C 
BRANCH  17  19
ATOM     18  N   UNL     1      33.376 -14.664 -24.642  0.00  0.00    -0.244 NA
ATOM     19  C   UNL     1      34.545 -16.686 -24.019  0.00  0.00    +0.006 C 
ATOM     20  C   UNL     1      34.522 -14.807 -22.518  0.00  0.00    -0.004 C 
ATOM     21  C   UNL     1      33.759 -14.135 -23.458  0.00  0.00    +0.077 C 
ATOM     22  C   UNL     1      34.919 -16.108 -22.812  0.00  0.00    -0.005 C 
ATOM     23  C   UNL     1      33.780 -15.929 -24.892  0.00  0.00    +0.095 C 
ATOM     24  C   UNL     1      34.925 -14.189 -21.223  0.00  0.00    +0.033 C 
BRANCH  21  26
ATOM     25  N   UNL     1      32.415 -10.162 -22.824  0.00  0.00    -0.248 NA
ATOM     26  C   UNL     1      33.300 -12.781 -23.242  0.00  0.00    +0.020 C 
ATOM     27  C   UNL     1      32.344 -12.514 -22.267  0.00  0.00    +0.016 C 
ATOM     28  C   UNL     1      33.814 -11.740 -24.007  0.00  0.00    +0.022 C 
ATOM     29  C   UNL     1      31.939 -11.199 -22.100  0.00  0.00    +0.059 C 
ATOM     30  C   UNL     1      33.342 -10.460 -23.762  0.00  0.00    +0.098 C 
ATOM     31  C   UNL     1      30.914 -10.876 -21.064  0.00  0.00    +0.052 C 
ENDBRANCH  21  26
ENDBRANCH  17  19
ENDBRANCH   4  17
TORSDOF 4
ENDMDL
MODEL 3
REMARK VINA RESULT:     -11.6      1.276      2.118
REMARK  Name = 46926973
REMARK  4 active torsions:
REMARK  status: ('A' for Active; 'I' for Inactive)
REMARK    1  A    between atoms: C_4  and  C_17
REMARK    2  A    between atoms: C_6  and  C_13
REMARK    3  A    between atoms: C_17  and  C_19
REMARK    4  A    between atoms: C_21  and  C_26
REMARK                            x       y       z     vdW  Elec       q    Type
REMARK                         _______ _______ _______ _____ _____    ______ ____
ROOT
ATOM      1  O   UNL     1      36.760 -18.687 -22.818  0.00  0.00    -0.274 OA
ATOM      2  N   UNL     1      34.651 -19.629 -22.372  0.00  0.00    -0.269 N 
ATOM      3  N   UNL     1      33.821 -21.023 -20.651  0.00  0.00    -0.229 NA
ATOM      4  C   UNL     1      35.578 -18.866 -23.096  0.00  0.00    +0.232 C 
ATOM      5  C   UNL     1      34.862 -20.348 -21.189  0.00  0.00    +0.134 C 
ATOM      6  C   UNL     1      35.307 -21.733 -18.881  0.00  0.00    +0.038 C 
ATOM      7  C   UNL     1      36.134 -20.318 -20.641  0.00  0.00    +0.035 C 
ATOM      8  C   UNL     1      36.353 -21.028 -19.466  0.00  0.00    +0.006 C 
ATOM      9  C   UNL     1      34.072 -21.700 -19.508  0.00  0.00    +0.102 C 
ATOM     10  H   UNL     1      33.739 -19.664 -22.741  0.00  0.00    +0.156 HD
ENDROOT
BRANCH   6  13
ATOM     11  N   UNL     1      34.469 -23.252 -17.269  0.00  0.00    -0.241 NA
ATOM     12  N   UNL     1      36.854 -23.106 -15.800  0.00  0.00    -0.239 NA
ATOM     13  C   UNL     1      35.503 -22.480 -17.661  0.00  0.00    +0.102 C 
ATOM     14  C   UNL     1      36.674 -22.409 -16.939  0.00  0.00    +0.118 C 
ATOM     15  C   UNL     1      34.650 -23.950 -16.131  0.00  0.00    +0.119 C 
ATOM     16  C   UNL     1      35.820 -23.878 -15.408  0.00  0.00    +0.120 C 
ENDBRANCH   6  13
BRANCH   4  17
ATOM     17  C   UNL     1      34.930 -18.249 -24.325  0.00  0.00    +0.113 C 
BRANCH  17  19
ATOM     18  N   UNL     1      34.441 -14.865 -22.697  0.00  0.00    -0.244 NA
ATOM     19  C   UNL     1      34.517 -16.813 -24.127  0.00  0.00    +0.006 C 
ATOM     20  C   UNL     1      33.485 -14.789 -24.917  0.00  0.00    -0.004 C 
ATOM     21  C   UNL     1      33.799 -14.217 -23.695  0.00  0.00    +0.077 C 
ATOM     22  C   UNL     1      33.854 -16.113 -25.129  0.00  0.00    -0.005 C 
ATOM     23  C   UNL     1      34.784 -16.149 -22.940  0.00  0.00    +0.095 C 
ATOM     24  C   UNL     1      32.774 -14.041 -25.992  0.00  0.00    +0.033 C 
BRANCH  21  26
ATOM     25  N   UNL     1      32.789 -10.200 -22.777  0.00  0.00    -0.248 NA
ATOM     26  C   UNL     1      33.455 -12.848 -23.382  0.00  0.00    +0.020 C 
ATOM     27  C   UNL     1      34.155 -11.800 -23.970  0.00  0.00    +0.016 C 
ATOM     28  C   UNL     1      32.422 -12.573 -22.492  0.00  0.00    +0.022 C 
ATOM     29  C   UNL     1      33.786 -10.506 -23.637  0.00  0.00    +0.059 C 
ATOM     30  C   UNL     1      32.131 -11.245 -22.226  0.00  0.00    +0.098 C 
ATOM     31  C   UNL     1      34.517  -9.356 -24.248  0.00  0.00    +0.052 C 
ENDBRANCH  21  26
ENDBRANCH  17  19
ENDBRANCH   4  17
TORSDOF 4
ENDMDL
MODEL 4
REMARK VINA RESULT:     -11.5      2.748     11.508
REMARK  Name = 46926973
REMARK  4 active torsions:
REMARK  status: ('A' for Active; 'I' for Inactive)
REMARK    1  A    between atoms: C_4  and  C_17
REMARK    2  A    between atoms: C_6  and  C_13
REMARK    3  A    between atoms: C_17  and  C_19
REMARK    4  A    between atoms: C_21  and  C_26
REMARK                            x       y       z     vdW  Elec       q    Type
REMARK                         _______ _______ _______ _____ _____    ______ ____
ROOT
ATOM      1  O   UNL     1      32.820 -14.117 -22.962  0.00  0.00    -0.274 OA
ATOM      2  N   UNL     1      34.153 -12.505 -24.037  0.00  0.00    -0.269 N 
ATOM      3  N   UNL     1      34.159 -10.139 -24.045  0.00  0.00    -0.229 NA
ATOM      4  C   UNL     1      33.744 -13.804 -23.707  0.00  0.00    +0.232 C 
ATOM      5  C   UNL     1      33.608 -11.291 -23.600  0.00  0.00    +0.134 C 
ATOM      6  C   UNL     1      32.522  -8.945 -22.725  0.00  0.00    +0.038 C 
ATOM      7  C   UNL     1      32.530 -11.350 -22.731  0.00  0.00    +0.035 C 
ATOM      8  C   UNL     1      31.982 -10.151 -22.291  0.00  0.00    +0.006 C 
ATOM      9  C   UNL     1      33.600  -8.993 -23.595  0.00  0.00    +0.102 C 
ATOM     10  H   UNL     1      34.919 -12.437 -24.652  0.00  0.00    +0.156 HD
ENDROOT
BRANCH   6  13
ATOM     11  N   UNL     1      31.217  -7.024 -23.185  0.00  0.00    -0.241 NA
ATOM     12  N   UNL     1      31.701  -6.003 -20.619  0.00  0.00    -0.239 NA
ATOM     13  C   UNL     1      31.975  -7.683 -22.286  0.00  0.00    +0.102 C 
ATOM     14  C   UNL     1      32.213  -7.181 -21.026  0.00  0.00    +0.118 C 
ATOM     15  C   UNL     1      30.705  -5.846 -22.778  0.00  0.00    +0.119 C 
ATOM     16  C   UNL     1      30.943  -5.344 -21.518  0.00  0.00    +0.120 C 
ENDBRANCH   6  13
BRANCH   4  17
ATOM     17  C   UNL     1      34.614 -14.840 -24.401  0.00  0.00    +0.113 C 
BRANCH  17  19
ATOM     18  N   UNL     1      35.287 -17.110 -21.447  0.00  0.00    -0.244 NA
ATOM     19  C   UNL     1      34.819 -16.092 -23.589  0.00  0.00    +0.006 C 
ATOM     20  C   UNL     1      34.933 -18.488 -23.403  0.00  0.00    -0.004 C 
ATOM     21  C   UNL     1      35.202 -18.315 -22.055  0.00  0.00    +0.077 C 
ATOM     22  C   UNL     1      34.739 -17.349 -24.178  0.00  0.00    -0.005 C 
ATOM     23  C   UNL     1      35.093 -16.028 -22.232  0.00  0.00    +0.095 C 
ATOM     24  C   UNL     1      34.848 -19.834 -24.036  0.00  0.00    +0.033 C 
BRANCH  21  26
ATOM     25  N   UNL     1      35.838 -21.609 -19.459  0.00  0.00    -0.248 NA
ATOM     26  C   UNL     1      35.419 -19.438 -21.170  0.00  0.00    +0.020 C 
ATOM     27  C   UNL     1      34.339 -20.193 -20.722  0.00  0.00    +0.016 C 
ATOM     28  C   UNL     1      36.707 -19.768 -20.764  0.00  0.00    +0.022 C 
ATOM     29  C   UNL     1      34.601 -21.259 -19.875  0.00  0.00    +0.059 C 
ATOM     30  C   UNL     1      36.862 -20.852 -19.915  0.00  0.00    +0.098 C 
ATOM     31  C   UNL     1      33.467 -22.090 -19.374  0.00  0.00    +0.052 C 
ENDBRANCH  21  26
ENDBRANCH  17  19
ENDBRANCH   4  17
TORSDOF 4
ENDMDL
MODEL 5
REMARK VINA RESULT:     -11.3      1.810      3.081
REMARK  Name = 46926973
REMARK  4 active torsions:
REMARK  status: ('A' for Active; 'I' for Inactive)
REMARK    1  A    between atoms: C_4  and  C_17
REMARK    2  A    between atoms: C_6  and  C_13
REMARK    3  A    between atoms: C_17  and  C_19
REMARK    4  A    between atoms: C_21  and  C_26
REMARK                            x       y       z     vdW  Elec       q    Type
REMARK                         _______ _______ _______ _____ _____    ______ ____
ROOT
ATOM      1  O   UNL     1      33.466 -20.719 -20.799  0.00  0.00    -0.274 OA
ATOM      2  N   UNL     1      35.193 -21.528 -19.424  0.00  0.00    -0.269 N 
ATOM      3  N   UNL     1      35.227 -22.786 -17.420  0.00  0.00    -0.229 NA
ATOM      4  C   UNL     1      34.655 -20.852 -20.527  0.00  0.00    +0.232 C 
ATOM      5  C   UNL     1      34.507 -22.193 -18.399  0.00  0.00    +0.134 C 
ATOM      6  C   UNL     1      33.138 -23.482 -16.423  0.00  0.00    +0.038 C 
ATOM      7  C   UNL     1      33.123 -22.202 -18.459  0.00  0.00    +0.035 C 
ATOM      8  C   UNL     1      32.433 -22.860 -17.447  0.00  0.00    +0.006 C 
ATOM      9  C   UNL     1      34.521 -23.416 -16.455  0.00  0.00    +0.102 C 
ATOM     10  H   UNL     1      36.176 -21.537 -19.361  0.00  0.00    +0.156 HD
ENDROOT
BRANCH   6  13
ATOM     11  N   UNL     1      31.183 -24.552 -15.623  0.00  0.00    -0.241 NA
ATOM     12  N   UNL     1      32.404 -25.077 -13.154  0.00  0.00    -0.239 NA
ATOM     13  C   UNL     1      32.450 -24.174 -15.359  0.00  0.00    +0.102 C 
ATOM     14  C   UNL     1      33.049 -24.432 -14.146  0.00  0.00    +0.118 C 
ATOM     15  C   UNL     1      30.538 -25.198 -14.632  0.00  0.00    +0.119 C 
ATOM     16  C   UNL     1      31.137 -25.455 -13.419  0.00  0.00    +0.120 C 
ENDBRANCH   6  13
BRANCH   4  17
ATOM     17  C   UNL     1      35.757 -20.272 -21.399  0.00  0.00    +0.113 C 
BRANCH  17  19
ATOM     18  N   UNL     1      35.014 -16.717 -22.470  0.00  0.00    -0.244 NA
ATOM     19  C   UNL     1      35.305 -19.106 -22.240  0.00  0.00    +0.006 C 
ATOM     20  C   UNL     1      34.369 -18.205 -24.264  0.00  0.00    -0.004 C 
ATOM     21  C   UNL     1      34.507 -16.946 -23.703  0.00  0.00    +0.077 C 
ATOM     22  C   UNL     1      34.779 -19.301 -23.511  0.00  0.00    -0.005 C 
ATOM     23  C   UNL     1      35.401 -17.806 -21.769  0.00  0.00    +0.095 C 
ATOM     24  C   UNL     1      33.804 -18.417 -25.626  0.00  0.00    +0.033 C 
BRANCH  21  26
ATOM     25  N   UNL     1      33.338 -13.433 -25.771  0.00  0.00    -0.248 NA
ATOM     26  C   UNL     1      34.108 -15.748 -24.408  0.00  0.00    +0.020 C 
ATOM     27  C   UNL     1      34.098 -14.522 -23.751  0.00  0.00    +0.016 C 
ATOM     28  C   UNL     1      33.734 -15.818 -25.745  0.00  0.00    +0.022 C 
ATOM     29  C   UNL     1      33.708 -13.404 -24.472  0.00  0.00    +0.059 C 
ATOM     30  C   UNL     1      33.360 -14.642 -26.376  0.00  0.00    +0.098 C 
ATOM     31  C   UNL     1      33.685 -12.072 -23.799  0.00  0.00    +0.052 C 
ENDBRANCH  21  26
ENDBRANCH  17  19
ENDBRANCH   4  17
TORSDOF 4
ENDMDL
MODEL 6
REMARK VINA RESULT:     -11.2      2.260     10.879
REMARK  Name = 46926973
REMARK  4 active torsions:
REMARK  status: ('A' for Active; 'I' for Inactive)
REMARK    1  A    between atoms: C_4  and  C_17
REMARK    2  A    between atoms: C_6  and  C_13
REMARK    3  A    between atoms: C_17  and  C_19
REMARK    4  A    between atoms: C_21  and  C_26
REMARK                            x       y       z     vdW  Elec       q    Type
REMARK                         _______ _______ _______ _____ _____    ______ ____
ROOT
ATOM      1  O   UNL     1      35.821 -22.123 -20.950  0.00  0.00    -0.274 OA
ATOM      2  N   UNL     1      36.123 -19.957 -20.086  0.00  0.00    -0.269 N 
ATOM      3  N   UNL     1      35.708 -17.790 -20.939  0.00  0.00    -0.229 NA
ATOM      4  C   UNL     1      36.173 -21.357 -20.059  0.00  0.00    +0.232 C 
ATOM      5  C   UNL     1      35.669 -19.129 -21.121  0.00  0.00    +0.134 C 
ATOM      6  C   UNL     1      34.772 -17.548 -23.156  0.00  0.00    +0.038 C 
ATOM      7  C   UNL     1      35.203 -19.743 -22.272  0.00  0.00    +0.035 C 
ATOM      8  C   UNL     1      34.749 -18.930 -23.305  0.00  0.00    +0.006 C 
ATOM      9  C   UNL     1      35.258 -17.032 -21.965  0.00  0.00    +0.102 C 
ATOM     10  H   UNL     1      36.448 -19.497 -19.278  0.00  0.00    +0.156 HD
ENDROOT
BRANCH   6  13
ATOM     11  N   UNL     1      34.151 -15.380 -23.877  0.00  0.00    -0.241 NA
ATOM     12  N   UNL     1      33.608 -16.327 -26.460  0.00  0.00    -0.239 NA
ATOM     13  C   UNL     1      34.308 -16.677 -24.210  0.00  0.00    +0.102 C 
ATOM     14  C   UNL     1      34.041 -17.142 -25.479  0.00  0.00    +0.118 C 
ATOM     15  C   UNL     1      33.718 -14.565 -24.859  0.00  0.00    +0.119 C 
ATOM     16  C   UNL     1      33.450 -15.030 -26.128  0.00  0.00    +0.120 C 
ENDBRANCH   6  13
BRANCH   4  17
ATOM     17  C   UNL     1      36.735 -21.854 -18.736  0.00  0.00    +0.113 C 
BRANCH  17  19
ATOM     18  N   UNL     1      33.408 -23.161 -17.487  0.00  0.00    -0.244 NA
ATOM     19  C   UNL     1      35.687 -22.423 -17.815  0.00  0.00    +0.006 C 
ATOM     20  C   UNL     1      34.997 -23.255 -15.666  0.00  0.00    -0.004 C 
ATOM     21  C   UNL     1      33.736 -23.449 -16.207  0.00  0.00    +0.077 C 
ATOM     22  C   UNL     1      35.985 -22.732 -16.493  0.00  0.00    -0.005 C 
ATOM     23  C   UNL     1      34.395 -22.654 -18.260  0.00  0.00    +0.095 C 
ATOM     24  C   UNL     1      35.319 -23.584 -14.249  0.00  0.00    +0.033 C 
BRANCH  21  26
ATOM     25  N   UNL     1      30.535 -25.027 -13.915  0.00  0.00    -0.248 NA
ATOM     26  C   UNL     1      32.645 -23.987 -15.426  0.00  0.00    +0.020 C 
ATOM     27  C   UNL     1      31.330 -23.783 -15.830  0.00  0.00    +0.016 C 
ATOM     28  C   UNL     1      32.906 -24.710 -14.268  0.00  0.00    +0.022 C 
ATOM     29  C   UNL     1      30.320 -24.319 -15.046  0.00  0.00    +0.059 C 
ATOM     30  C   UNL     1      31.826 -25.204 -13.554  0.00  0.00    +0.098 C 
ATOM     31  C   UNL     1      28.897 -24.120 -15.449  0.00  0.00    +0.052 C 
ENDBRANCH  21  26
ENDBRANCH  17  19
ENDBRANCH   4  17
TORSDOF 4
ENDMDL
MODEL 7
REMARK VINA RESULT:     -11.1      1.863     10.814
REMARK  Name = 46926973
REMARK  4 active torsions:
REMARK  status: ('A' for Active; 'I' for Inactive)
REMARK    1  A    between atoms: C_4  and  C_17
REMARK    2  A    between atoms: C_6  and  C_13
REMARK    3  A    between atoms: C_17  and  C_19
REMARK    4  A    between atoms: C_21  and  C_26
REMARK                            x       y       z     vdW  Elec       q    Type
REMARK                         _______ _______ _______ _____ _____    ______ ____
ROOT
ATOM      1  O   UNL     1      36.850 -19.074 -20.020  0.00  0.00    -0.274 OA
ATOM      2  N   UNL     1      35.799 -19.813 -21.990  0.00  0.00    -0.269 N 
ATOM      3  N   UNL     1      34.698 -18.702 -23.765  0.00  0.00    -0.229 NA
ATOM      4  C   UNL     1      36.495 -19.967 -20.784  0.00  0.00    +0.232 C 
ATOM      5  C   UNL     1      35.358 -18.626 -22.587  0.00  0.00    +0.134 C 
ATOM      6  C   UNL     1      34.516 -16.292 -23.722  0.00  0.00    +0.038 C 
ATOM      7  C   UNL     1      35.630 -17.439 -21.926  0.00  0.00    +0.035 C 
ATOM      8  C   UNL     1      35.197 -16.254 -22.510  0.00  0.00    +0.006 C 
ATOM      9  C   UNL     1      34.293 -17.530 -24.303  0.00  0.00    +0.102 C 
ATOM     10  H   UNL     1      35.596 -20.643 -22.479  0.00  0.00    +0.156 HD
ENDROOT
BRANCH   6  13
ATOM     11  N   UNL     1      34.192 -13.948 -23.633  0.00  0.00    -0.241 NA
ATOM     12  N   UNL     1      33.072 -13.941 -26.204  0.00  0.00    -0.239 NA
ATOM     13  C   UNL     1      34.054 -15.079 -24.354  0.00  0.00    +0.102 C 
ATOM     14  C   UNL     1      33.504 -15.075 -25.617  0.00  0.00    +0.118 C 
ATOM     15  C   UNL     1      33.761 -12.814 -24.221  0.00  0.00    +0.119 C 
ATOM     16  C   UNL     1      33.211 -12.811 -25.483  0.00  0.00    +0.120 C 
ENDBRANCH   6  13
BRANCH   4  17
ATOM     17  C   UNL     1      36.783 -21.434 -20.506  0.00  0.00    +0.113 C 
BRANCH  17  19
ATOM     18  N   UNL     1      34.028 -22.959 -18.404  0.00  0.00    -0.244 NA
ATOM     19  C   UNL     1      36.041 -21.975 -19.312  0.00  0.00    +0.006 C 
ATOM     20  C   UNL     1      35.920 -22.506 -16.969  0.00  0.00    -0.004 C 
ATOM     21  C   UNL     1      34.634 -22.968 -17.196  0.00  0.00    +0.077 C 
ATOM     22  C   UNL     1      36.630 -22.002 -18.054  0.00  0.00    -0.005 C 
ATOM     23  C   UNL     1      34.749 -22.461 -19.433  0.00  0.00    +0.095 C 
ATOM     24  C   UNL     1      36.554 -22.533 -15.621  0.00  0.00    +0.033 C 
BRANCH  21  26
ATOM     25  N   UNL     1      32.242 -24.556 -14.073  0.00  0.00    -0.248 NA
ATOM     26  C   UNL     1      33.819 -23.509 -16.132  0.00  0.00    +0.020 C 
ATOM     27  C   UNL     1      32.436 -23.362 -16.167  0.00  0.00    +0.016 C 
ATOM     28  C   UNL     1      34.414 -24.180 -15.068  0.00  0.00    +0.022 C 
ATOM     29  C   UNL     1      31.700 -23.899 -15.122  0.00  0.00    +0.059 C 
ATOM     30  C   UNL     1      33.589 -24.679 -14.073  0.00  0.00    +0.098 C 
ATOM     31  C   UNL     1      30.214 -23.759 -15.127  0.00  0.00    +0.052 C 
ENDBRANCH  21  26
ENDBRANCH  17  19
ENDBRANCH   4  17
TORSDOF 4
ENDMDL
MODEL 8
REMARK VINA RESULT:     -11.1      2.303      4.490
REMARK  Name = 46926973
REMARK  4 active torsions:
REMARK  status: ('A' for Active; 'I' for Inactive)
REMARK    1  A    between atoms: C_4  and  C_17
REMARK    2  A    between atoms: C_6  and  C_13
REMARK    3  A    between atoms: C_17  and  C_19
REMARK    4  A    between atoms: C_21  and  C_26
REMARK                            x       y       z     vdW  Elec       q    Type
REMARK                         _______ _______ _______ _____ _____    ______ ____
ROOT
ATOM      1  O   UNL     1      33.074 -17.558 -26.133  0.00  0.00    -0.274 OA
ATOM      2  N   UNL     1      34.451 -16.435 -24.593  0.00  0.00    -0.269 N 
ATOM      3  N   UNL     1      35.470 -17.069 -22.554  0.00  0.00    -0.229 NA
ATOM      4  C   UNL     1      33.683 -16.561 -25.758  0.00  0.00    +0.232 C 
ATOM      5  C   UNL     1      34.692 -17.402 -23.609  0.00  0.00    +0.134 C 
ATOM      6  C   UNL     1      35.144 -19.313 -21.714  0.00  0.00    +0.038 C 
ATOM      7  C   UNL     1      34.114 -18.649 -23.784  0.00  0.00    +0.035 C 
ATOM      8  C   UNL     1      34.348 -19.616 -22.814  0.00  0.00    +0.006 C 
ATOM      9  C   UNL     1      35.676 -18.036 -21.632  0.00  0.00    +0.102 C 
ATOM     10  H   UNL     1      34.874 -15.557 -24.447  0.00  0.00    +0.156 HD
ENDROOT
BRANCH   6  13
ATOM     11  N   UNL     1      36.688 -20.401 -20.287  0.00  0.00    -0.241 NA
ATOM     12  N   UNL     1      34.654 -21.996 -19.199  0.00  0.00    -0.239 NA
ATOM     13  C   UNL     1      35.406 -20.296 -20.690  0.00  0.00    +0.102 C 
ATOM     14  C   UNL     1      34.407 -21.079 -20.155  0.00  0.00    +0.118 C 
ATOM     15  C   UNL     1      36.935 -21.318 -19.331  0.00  0.00    +0.119 C 
ATOM     16  C   UNL     1      35.937 -22.102 -18.796  0.00  0.00    +0.120 C 
ENDBRANCH   6  13
BRANCH   4  17
ATOM     17  C   UNL     1      33.687 -15.264 -26.553  0.00  0.00    +0.113 C 
BRANCH  17  19
ATOM     18  N   UNL     1      33.603 -11.626 -25.507  0.00  0.00    -0.244 NA
ATOM     19  C   UNL     1      33.529 -14.035 -25.696  0.00  0.00    +0.006 C 
ATOM     20  C   UNL     1      33.043 -12.986 -23.587  0.00  0.00    -0.004 C 
ATOM     21  C   UNL     1      33.263 -11.766 -24.205  0.00  0.00    +0.077 C 
ATOM     22  C   UNL     1      33.181 -14.138 -24.354  0.00  0.00    -0.005 C 
ATOM     23  C   UNL     1      33.727 -12.767 -26.220  0.00  0.00    +0.095 C 
ATOM     24  C   UNL     1      32.671 -13.098 -22.148  0.00  0.00    +0.033 C 
BRANCH  21  26
ATOM     25  N   UNL     1      32.915  -8.096 -22.107  0.00  0.00    -0.248 NA
ATOM     26  C   UNL     1      33.144 -10.515 -23.490  0.00  0.00    +0.020 C 
ATOM     27  C   UNL     1      34.040  -9.480 -23.739  0.00  0.00    +0.016 C 
ATOM     28  C   UNL     1      32.134 -10.341 -22.550  0.00  0.00    +0.022 C 
ATOM     29  C   UNL     1      33.883  -8.301 -23.027  0.00  0.00    +0.059 C 
ATOM     30  C   UNL     1      32.063  -9.124 -21.891  0.00  0.00    +0.098 C 
ATOM     31  C   UNL     1      34.826  -7.170 -23.268  0.00  0.00    +0.052 C 
ENDBRANCH  21  26
ENDBRANCH  17  19
ENDBRANCH   4  17
TORSDOF 4
ENDMDL
MODEL 9
REMARK VINA RESULT:     -11.0      2.257     10.717
REMARK  Name = 46926973
REMARK  4 active torsions:
REMARK  status: ('A' for Active; 'I' for Inactive)
REMARK    1  A    between atoms: C_4  and  C_17
REMARK    2  A    between atoms: C_6  and  C_13
REMARK    3  A    between atoms: C_17  and  C_19
REMARK    4  A    between atoms: C_21  and  C_26
REMARK                            x       y       z     vdW  Elec       q    Type
REMARK                         _______ _______ _______ _____ _____    ______ ____
ROOT
ATOM      1  O   UNL     1      36.768 -19.233 -20.048  0.00  0.00    -0.274 OA
ATOM      2  N   UNL     1      35.523 -20.140 -21.825  0.00  0.00    -0.269 N 
ATOM      3  N   UNL     1      34.393 -19.192 -23.674  0.00  0.00    -0.229 NA
ATOM      4  C   UNL     1      36.288 -20.188 -20.651  0.00  0.00    +0.232 C 
ATOM      5  C   UNL     1      35.139 -19.012 -22.560  0.00  0.00    +0.134 C 
ATOM      6  C   UNL     1      34.414 -16.792 -23.971  0.00  0.00    +0.038 C 
ATOM      7  C   UNL     1      35.554 -17.775 -22.095  0.00  0.00    +0.035 C 
ATOM      8  C   UNL     1      35.180 -16.648 -22.819  0.00  0.00    +0.006 C 
ATOM      9  C   UNL     1      34.049 -18.073 -24.352  0.00  0.00    +0.102 C 
ATOM     10  H   UNL     1      35.217 -21.008 -22.175  0.00  0.00    +0.156 HD
ENDROOT
BRANCH   6  13
ATOM     11  N   UNL     1      33.850 -15.846 -26.067  0.00  0.00    -0.241 NA
ATOM     12  N   UNL     1      33.419 -13.338 -24.891  0.00  0.00    -0.239 NA
ATOM     13  C   UNL     1      34.009 -15.642 -24.744  0.00  0.00    +0.102 C 
ATOM     14  C   UNL     1      33.796 -14.409 -24.166  0.00  0.00    +0.118 C 
ATOM     15  C   UNL     1      33.472 -14.775 -26.791  0.00  0.00    +0.119 C 
ATOM     16  C   UNL     1      33.261 -13.542 -26.214  0.00  0.00    +0.120 C 
ENDBRANCH   6  13
BRANCH   4  17
ATOM     17  C   UNL     1      36.473 -21.622 -20.182  0.00  0.00    +0.113 C 
BRANCH  17  19
ATOM     18  N   UNL     1      33.090 -22.557 -18.761  0.00  0.00    -0.244 NA
ATOM     19  C   UNL     1      35.417 -22.075 -19.207  0.00  0.00    +0.006 C 
ATOM     20  C   UNL     1      34.749 -22.832 -17.024  0.00  0.00    -0.004 C 
ATOM     21  C   UNL     1      33.449 -22.884 -17.499  0.00  0.00    +0.077 C 
ATOM     22  C   UNL     1      35.746 -22.418 -17.901  0.00  0.00    -0.005 C 
ATOM     23  C   UNL     1      34.086 -22.160 -19.584  0.00  0.00    +0.095 C 
ATOM     24  C   UNL     1      35.105 -23.199 -15.624  0.00  0.00    +0.033 C 
BRANCH  21  26
ATOM     25  N   UNL     1      30.214 -24.104 -15.042  0.00  0.00    -0.248 NA
ATOM     26  C   UNL     1      32.346 -23.300 -16.662  0.00  0.00    +0.020 C 
ATOM     27  C   UNL     1      32.581 -24.078 -15.533  0.00  0.00    +0.016 C 
ATOM     28  C   UNL     1      31.046 -22.923 -16.981  0.00  0.00    +0.022 C 
ATOM     29  C   UNL     1      31.490 -24.450 -14.763  0.00  0.00    +0.059 C 
ATOM     30  C   UNL     1      30.025 -23.348 -16.147  0.00  0.00    +0.098 C 
ATOM     31  C   UNL     1      31.705 -25.286 -13.545  0.00  0.00    +0.052 C 
ENDBRANCH  21  26
ENDBRANCH  17  19
ENDBRANCH   4  17
TORSDOF 4
ENDMDL
