MODEL 1
REMARK VINA RESULT:     -12.1      0.000      0.000
REMARK  Name = 24779724
REMARK  3 active torsions:
REMARK  status: ('A' for Active; 'I' for Inactive)
REMARK    1  A    between atoms: C_5  and  C_12
REMARK    2  A    between atoms: C_7  and  S_16
REMARK    3  A    between atoms: S_16  and  C_19
REMARK                            x       y       z     vdW  Elec       q    Type
REMARK                         _______ _______ _______ _____ _____    ______ ____
ROOT
ATOM      1  N   UNL     1      34.581 -22.177 -18.537  0.00  0.00    -0.186 N 
ATOM      2  N   UNL     1      35.570 -22.582 -17.702  0.00  0.00    -0.162 NA
ATOM      3  N   UNL     1      32.597 -21.844 -19.420  0.00  0.00    -0.126 NA
ATOM      4  N   UNL     1      33.542 -21.245 -20.228  0.00  0.00    -0.120 NA
ATOM      5  C   UNL     1      35.144 -23.253 -16.670  0.00  0.00    +0.104 C 
ATOM      6  C   UNL     1      33.230 -22.400 -18.408  0.00  0.00    +0.187 A 
ATOM      7  C   UNL     1      34.721 -21.455 -19.687  0.00  0.00    +0.217 A 
ATOM      8  C   UNL     1      33.705 -23.587 -16.409  0.00  0.00    +0.024 C 
ATOM      9  C   UNL     1      32.801 -23.144 -17.291  0.00  0.00    +0.042 C 
ENDROOT
BRANCH   5  12
ATOM     10  N   UNL     1      37.175 -24.980 -14.203  0.00  0.00    -0.208 N 
ATOM     11  N   UNL     1      37.952 -23.888 -14.303  0.00  0.00    -0.176 NA
ATOM     12  C   UNL     1      36.131 -23.748 -15.676  0.00  0.00    +0.056 C 
ATOM     13  C   UNL     1      36.071 -24.945 -15.005  0.00  0.00    +0.087 C 
ATOM     14  C   UNL     1      37.310 -23.139 -15.204  0.00  0.00    +0.121 C 
ATOM     15  C   UNL     1      37.547 -26.046 -13.304  0.00  0.00    +0.140 C 
ENDBRANCH   5  12
BRANCH   7  16
ATOM     16  S   UNL     1      36.298 -20.900 -20.317  0.00  0.00    -0.051 S 
BRANCH  16  19
ATOM     17  N   UNL     1      34.638 -16.437 -23.883  0.00  0.00    -0.248 NA
ATOM     18  C   UNL     1      34.835 -18.806 -23.484  0.00  0.00    -0.003 C 
ATOM     19  C   UNL     1      35.797 -19.571 -21.392  0.00  0.00    +0.011 C 
ATOM     20  C   UNL     1      35.006 -17.462 -23.091  0.00  0.00    +0.060 C 
ATOM     21  C   UNL     1      35.231 -19.850 -22.632  0.00  0.00    +0.060 C 
ATOM     22  C   UNL     1      35.969 -18.251 -20.998  0.00  0.00    -0.017 C 
ATOM     23  C   UNL     1      35.575 -17.212 -21.845  0.00  0.00    +0.072 C 
ATOM     24  C   UNL     1      34.262 -19.057 -24.738  0.00  0.00    -0.001 C 
ATOM     25  C   UNL     1      33.881 -18.004 -25.557  0.00  0.00    +0.020 C 
ATOM     26  C   UNL     1      34.089 -16.723 -25.085  0.00  0.00    +0.098 C 
ENDBRANCH  16  19
ENDBRANCH   7  16
TORSDOF 3
ENDMDL
MODEL 2
REMARK VINA RESULT:     -12.0      0.913      1.782
REMARK  Name = 24779724
REMARK  3 active torsions:
REMARK  status: ('A' for Active; 'I' for Inactive)
REMARK    1  A    between atoms: C_5  and  C_12
REMARK    2  A    between atoms: C_7  and  S_16
REMARK    3  A    between atoms: S_16  and  C_19
REMARK                            x       y       z     vdW  Elec       q    Type
REMARK                         _______ _______ _______ _____ _____    ______ ____
ROOT
ATOM      1  N   UNL     1      34.672 -22.029 -18.769  0.00  0.00    -0.186 N 
ATOM      2  N   UNL     1      35.660 -22.411 -17.923  0.00  0.00    -0.162 NA
ATOM      3  N   UNL     1      32.694 -21.765 -19.688  0.00  0.00    -0.126 NA
ATOM      4  N   UNL     1      33.628 -21.101 -20.459  0.00  0.00    -0.120 NA
ATOM      5  C   UNL     1      35.244 -23.129 -16.918  0.00  0.00    +0.104 C 
ATOM      6  C   UNL     1      33.331 -22.318 -18.677  0.00  0.00    +0.187 A 
ATOM      7  C   UNL     1      34.803 -21.270 -19.897  0.00  0.00    +0.217 A 
ATOM      8  C   UNL     1      33.818 -23.536 -16.700  0.00  0.00    +0.024 C 
ATOM      9  C   UNL     1      32.912 -23.111 -17.590  0.00  0.00    +0.042 C 
ENDROOT
BRANCH   5  12
ATOM     10  N   UNL     1      37.197 -24.704 -14.293  0.00  0.00    -0.208 N 
ATOM     11  N   UNL     1      38.140 -23.828 -14.679  0.00  0.00    -0.176 NA
ATOM     12  C   UNL     1      36.232 -23.604 -15.916  0.00  0.00    +0.056 C 
ATOM     13  C   UNL     1      36.035 -24.611 -15.002  0.00  0.00    +0.087 C 
ATOM     14  C   UNL     1      37.545 -23.159 -15.670  0.00  0.00    +0.121 C 
ATOM     15  C   UNL     1      37.471 -25.626 -13.217  0.00  0.00    +0.140 C 
ENDBRANCH   5  12
BRANCH   7  16
ATOM     16  S   UNL     1      36.365 -20.626 -20.476  0.00  0.00    -0.051 S 
BRANCH  16  19
ATOM     17  N   UNL     1      34.569 -16.056 -23.833  0.00  0.00    -0.248 NA
ATOM     18  C   UNL     1      35.178 -16.921 -21.668  0.00  0.00    -0.003 C 
ATOM     19  C   UNL     1      35.828 -19.251 -21.472  0.00  0.00    +0.011 C 
ATOM     20  C   UNL     1      34.976 -17.077 -23.056  0.00  0.00    +0.060 C 
ATOM     21  C   UNL     1      35.603 -18.009 -20.887  0.00  0.00    +0.060 C 
ATOM     22  C   UNL     1      35.630 -19.412 -22.837  0.00  0.00    -0.017 C 
ATOM     23  C   UNL     1      35.208 -18.331 -23.614  0.00  0.00    +0.072 C 
ATOM     24  C   UNL     1      34.944 -15.659 -21.106  0.00  0.00    -0.001 C 
ATOM     25  C   UNL     1      34.525 -14.605 -21.904  0.00  0.00    +0.020 C 
ATOM     26  C   UNL     1      34.354 -14.854 -23.251  0.00  0.00    +0.098 C 
ENDBRANCH  16  19
ENDBRANCH   7  16
TORSDOF 3
ENDMDL
MODEL 3
REMARK VINA RESULT:     -11.2      2.916      9.854
REMARK  Name = 24779724
REMARK  3 active torsions:
REMARK  status: ('A' for Active; 'I' for Inactive)
REMARK    1  A    between atoms: C_5  and  C_12
REMARK    2  A    between atoms: C_7  and  S_16
REMARK    3  A    between atoms: S_16  and  C_19
REMARK                            x       y       z     vdW  Elec       q    Type
REMARK                         _______ _______ _______ _____ _____    ______ ____
ROOT
ATOM      1  N   UNL     1      34.481 -17.474 -24.234  0.00  0.00    -0.186 N 
ATOM      2  N   UNL     1      34.432 -16.241 -23.673  0.00  0.00    -0.162 NA
ATOM      3  N   UNL     1      34.184 -19.151 -25.621  0.00  0.00    -0.126 NA
ATOM      4  N   UNL     1      34.948 -19.591 -24.559  0.00  0.00    -0.120 NA
ATOM      5  C   UNL     1      33.759 -15.371 -24.372  0.00  0.00    +0.104 C 
ATOM      6  C   UNL     1      33.909 -17.880 -25.417  0.00  0.00    +0.187 A 
ATOM      7  C   UNL     1      35.115 -18.577 -23.740  0.00  0.00    +0.217 A 
ATOM      8  C   UNL     1      33.068 -15.675 -25.667  0.00  0.00    +0.024 C 
ATOM      9  C   UNL     1      33.173 -16.923 -26.142  0.00  0.00    +0.042 C 
ENDROOT
BRANCH   5  12
ATOM     10  N   UNL     1      33.705 -11.802 -23.704  0.00  0.00    -0.208 N 
ATOM     11  N   UNL     1      33.202 -12.186 -22.519  0.00  0.00    -0.176 NA
ATOM     12  C   UNL     1      33.637 -13.980 -23.865  0.00  0.00    +0.056 C 
ATOM     13  C   UNL     1      33.983 -12.839 -24.546  0.00  0.00    +0.087 C 
ATOM     14  C   UNL     1      33.162 -13.517 -22.622  0.00  0.00    +0.121 C 
ATOM     15  C   UNL     1      33.901 -10.399 -23.979  0.00  0.00    +0.140 C 
ENDBRANCH   5  12
BRANCH   7  16
ATOM     16  S   UNL     1      36.024 -18.586 -22.202  0.00  0.00    -0.051 S 
BRANCH  16  19
ATOM     17  N   UNL     1      32.718 -22.311 -18.950  0.00  0.00    -0.248 NA
ATOM     18  C   UNL     1      34.884 -21.419 -19.513  0.00  0.00    -0.003 C 
ATOM     19  C   UNL     1      35.044 -19.704 -21.223  0.00  0.00    +0.011 C 
ATOM     20  C   UNL     1      33.484 -21.475 -19.675  0.00  0.00    +0.060 C 
ATOM     21  C   UNL     1      35.653 -20.535 -20.287  0.00  0.00    +0.060 C 
ATOM     22  C   UNL     1      33.665 -19.754 -21.388  0.00  0.00    -0.017 C 
ATOM     23  C   UNL     1      32.900 -20.633 -20.618  0.00  0.00    +0.072 C 
ATOM     24  C   UNL     1      35.472 -22.266 -18.564  0.00  0.00    -0.001 C 
ATOM     25  C   UNL     1      34.685 -23.129 -17.815  0.00  0.00    +0.020 C 
ATOM     26  C   UNL     1      33.324 -23.112 -18.044  0.00  0.00    +0.098 C 
ENDBRANCH  16  19
ENDBRANCH   7  16
TORSDOF 3
ENDMDL
MODEL 4
REMARK VINA RESULT:     -10.8      2.280      9.395
REMARK  Name = 24779724
REMARK  3 active torsions:
REMARK  status: ('A' for Active; 'I' for Inactive)
REMARK    1  A    between atoms: C_5  and  C_12
REMARK    2  A    between atoms: C_7  and  S_16
REMARK    3  A    between atoms: S_16  and  C_19
REMARK                            x       y       z     vdW  Elec       q    Type
REMARK                         _______ _______ _______ _____ _____    ______ ____
ROOT
ATOM      1  N   UNL     1      35.366 -20.307 -20.838  0.00  0.00    -0.186 N 
ATOM      2  N   UNL     1      34.654 -19.830 -21.890  0.00  0.00    -0.162 NA
ATOM      3  N   UNL     1      36.999 -20.675 -19.416  0.00  0.00    -0.126 NA
ATOM      4  N   UNL     1      35.899 -21.408 -19.020  0.00  0.00    -0.120 NA
ATOM      5  C   UNL     1      35.321 -19.002 -22.644  0.00  0.00    +0.104 C 
ATOM      6  C   UNL     1      36.670 -20.018 -20.508  0.00  0.00    +0.187 A 
ATOM      7  C   UNL     1      34.934 -21.178 -19.881  0.00  0.00    +0.217 A 
ATOM      8  C   UNL     1      36.750 -18.610 -22.416  0.00  0.00    +0.024 C 
ATOM      9  C   UNL     1      37.370 -19.133 -21.351  0.00  0.00    +0.042 C 
ENDROOT
BRANCH   5  12
ATOM     10  N   UNL     1      33.876 -16.981 -25.292  0.00  0.00    -0.208 N 
ATOM     11  N   UNL     1      33.471 -18.171 -25.770  0.00  0.00    -0.176 NA
ATOM     12  C   UNL     1      34.648 -18.406 -23.826  0.00  0.00    +0.056 C 
ATOM     13  C   UNL     1      34.584 -17.068 -24.129  0.00  0.00    +0.087 C 
ATOM     14  C   UNL     1      33.946 -19.036 -24.872  0.00  0.00    +0.121 C 
ATOM     15  C   UNL     1      33.547 -15.771 -26.007  0.00  0.00    +0.140 C 
ENDBRANCH   5  12
BRANCH   7  16
ATOM     16  S   UNL     1      33.287 -21.870 -19.849  0.00  0.00    -0.051 S 
BRANCH  16  19
ATOM     17  N   UNL     1      33.186 -24.299 -14.419  0.00  0.00    -0.248 NA
ATOM     18  C   UNL     1      32.000 -23.297 -16.262  0.00  0.00    -0.003 C 
ATOM     19  C   UNL     1      33.246 -22.597 -18.223  0.00  0.00    +0.011 C 
ATOM     20  C   UNL     1      33.187 -23.747 -15.647  0.00  0.00    +0.060 C 
ATOM     21  C   UNL     1      32.038 -22.726 -17.545  0.00  0.00    +0.060 C 
ATOM     22  C   UNL     1      34.419 -23.037 -17.623  0.00  0.00    -0.017 C 
ATOM     23  C   UNL     1      34.382 -23.605 -16.348  0.00  0.00    +0.072 C 
ATOM     24  C   UNL     1      30.797 -23.440 -15.556  0.00  0.00    -0.001 C 
ATOM     25  C   UNL     1      30.793 -24.008 -14.291  0.00  0.00    +0.020 C 
ATOM     26  C   UNL     1      32.005 -24.418 -13.772  0.00  0.00    +0.098 C 
ENDBRANCH  16  19
ENDBRANCH   7  16
TORSDOF 3
ENDMDL
MODEL 5
REMARK VINA RESULT:     -10.4      6.749     12.526
REMARK  Name = 24779724
REMARK  3 active torsions:
REMARK  status: ('A' for Active; 'I' for Inactive)
REMARK    1  A    between atoms: C_5  and  C_12
REMARK    2  A    between atoms: C_7  and  S_16
REMARK    3  A    between atoms: S_16  and  C_19
REMARK                            x       y       z     vdW  Elec       q    Type
REMARK                         _______ _______ _______ _____ _____    ______ ____
ROOT
ATOM      1  N   UNL     1      32.469 -11.546 -22.292  0.00  0.00    -0.186 N 
ATOM      2  N   UNL     1      32.632 -10.329 -22.869  0.00  0.00    -0.162 NA
ATOM      3  N   UNL     1      31.948 -13.124 -20.856  0.00  0.00    -0.126 NA
ATOM      4  N   UNL     1      32.490 -13.715 -21.979  0.00  0.00    -0.120 NA
ATOM      5  C   UNL     1      32.221  -9.337 -22.130  0.00  0.00    +0.104 C 
ATOM      6  C   UNL     1      31.940 -11.822 -21.054  0.00  0.00    +0.187 A 
ATOM      7  C   UNL     1      32.798 -12.758 -22.826  0.00  0.00    +0.217 A 
ATOM      8  C   UNL     1      31.641  -9.487 -20.756  0.00  0.00    +0.024 C 
ATOM      9  C   UNL     1      31.520 -10.729 -20.270  0.00  0.00    +0.042 C 
ENDROOT
BRANCH   5  12
ATOM     10  N   UNL     1      31.883  -5.912 -23.286  0.00  0.00    -0.208 N 
ATOM     11  N   UNL     1      33.198  -6.027 -23.535  0.00  0.00    -0.176 NA
ATOM     12  C   UNL     1      32.341  -7.952 -22.653  0.00  0.00    +0.056 C 
ATOM     13  C   UNL     1      31.322  -7.038 -22.758  0.00  0.00    +0.087 C 
ATOM     14  C   UNL     1      33.473  -7.275 -23.146  0.00  0.00    +0.121 C 
ATOM     15  C   UNL     1      31.203  -4.673 -23.581  0.00  0.00    +0.140 C 
ENDBRANCH   5  12
BRANCH   7  16
ATOM     16  S   UNL     1      33.531 -12.958 -24.442  0.00  0.00    -0.051 S 
BRANCH  16  19
ATOM     17  N   UNL     1      34.579 -18.813 -24.557  0.00  0.00    -0.248 NA
ATOM     18  C   UNL     1      34.812 -16.689 -23.442  0.00  0.00    -0.003 C 
ATOM     19  C   UNL     1      33.850 -14.710 -24.466  0.00  0.00    +0.011 C 
ATOM     20  C   UNL     1      34.353 -17.487 -24.511  0.00  0.00    +0.060 C 
ATOM     21  C   UNL     1      34.557 -15.308 -23.427  0.00  0.00    +0.060 C 
ATOM     22  C   UNL     1      33.395 -15.489 -25.522  0.00  0.00    -0.017 C 
ATOM     23  C   UNL     1      33.648 -16.863 -25.538  0.00  0.00    +0.072 C 
ATOM     24  C   UNL     1      35.521 -17.317 -22.409  0.00  0.00    -0.001 C 
ATOM     25  C   UNL     1      35.756 -18.683 -22.453  0.00  0.00    +0.020 C 
ATOM     26  C   UNL     1      35.268 -19.380 -23.540  0.00  0.00    +0.098 C 
ENDBRANCH  16  19
ENDBRANCH   7  16
TORSDOF 3
ENDMDL
MODEL 6
REMARK VINA RESULT:     -10.4      2.451      3.551
REMARK  Name = 24779724
REMARK  3 active torsions:
REMARK  status: ('A' for Active; 'I' for Inactive)
REMARK    1  A    between atoms: C_5  and  C_12
REMARK    2  A    between atoms: C_7  and  S_16
REMARK    3  A    between atoms: S_16  and  C_19
REMARK                            x       y       z     vdW  Elec       q    Type
REMARK                         _______ _______ _______ _____ _____    ______ ____
ROOT
ATOM      1  N   UNL     1      32.998 -23.610 -16.040  0.00  0.00    -0.186 N 
ATOM      2  N   UNL     1      34.080 -24.103 -15.389  0.00  0.00    -0.162 NA
ATOM      3  N   UNL     1      31.012 -22.765 -16.451  0.00  0.00    -0.126 NA
ATOM      4  N   UNL     1      31.673 -22.936 -17.651  0.00  0.00    -0.120 NA
ATOM      5  C   UNL     1      33.941 -24.143 -14.093  0.00  0.00    +0.104 C 
ATOM      6  C   UNL     1      31.816 -23.172 -15.491  0.00  0.00    +0.187 A 
ATOM      7  C   UNL     1      32.856 -23.443 -17.388  0.00  0.00    +0.217 A 
ATOM      8  C   UNL     1      32.705 -23.716 -13.360  0.00  0.00    +0.024 C 
ATOM      9  C   UNL     1      31.687 -23.243 -14.090  0.00  0.00    +0.042 C 
ENDROOT
BRANCH   5  12
ATOM     10  N   UNL     1      36.965 -25.524 -12.633  0.00  0.00    -0.208 N 
ATOM     11  N   UNL     1      36.342 -25.259 -11.472  0.00  0.00    -0.176 NA
ATOM     12  C   UNL     1      35.061 -24.658 -13.265  0.00  0.00    +0.056 C 
ATOM     13  C   UNL     1      36.239 -25.183 -13.737  0.00  0.00    +0.087 C 
ATOM     14  C   UNL     1      35.181 -24.730 -11.864  0.00  0.00    +0.121 C 
ATOM     15  C   UNL     1      38.281 -26.117 -12.622  0.00  0.00    +0.140 C 
ENDBRANCH   5  12
BRANCH   7  16
ATOM     16  S   UNL     1      34.124 -23.866 -18.573  0.00  0.00    -0.051 S 
BRANCH  16  19
ATOM     17  N   UNL     1      34.592 -18.769 -21.605  0.00  0.00    -0.248 NA
ATOM     18  C   UNL     1      35.656 -20.590 -20.439  0.00  0.00    -0.003 C 
ATOM     19  C   UNL     1      34.275 -22.341 -19.480  0.00  0.00    +0.011 C 
ATOM     20  C   UNL     1      34.508 -19.924 -20.918  0.00  0.00    +0.060 C 
ATOM     21  C   UNL     1      35.531 -21.793 -19.724  0.00  0.00    +0.060 C 
ATOM     22  C   UNL     1      33.141 -21.690 -19.948  0.00  0.00    -0.017 C 
ATOM     23  C   UNL     1      33.265 -20.494 -20.659  0.00  0.00    +0.072 C 
ATOM     24  C   UNL     1      36.907 -20.016 -20.699  0.00  0.00    -0.001 C 
ATOM     25  C   UNL     1      36.997 -18.827 -21.408  0.00  0.00    +0.020 C 
ATOM     26  C   UNL     1      35.819 -18.249 -21.835  0.00  0.00    +0.098 C 
ENDBRANCH  16  19
ENDBRANCH   7  16
TORSDOF 3
ENDMDL
MODEL 7
REMARK VINA RESULT:     -10.3      2.577      3.809
REMARK  Name = 24779724
REMARK  3 active torsions:
REMARK  status: ('A' for Active; 'I' for Inactive)
REMARK    1  A    between atoms: C_5  and  C_12
REMARK    2  A    between atoms: C_7  and  S_16
REMARK    3  A    between atoms: S_16  and  C_19
REMARK                            x       y       z     vdW  Elec       q    Type
REMARK                         _______ _______ _______ _____ _____    ______ ____
ROOT
ATOM      1  N   UNL     1      34.113 -24.045 -16.033  0.00  0.00    -0.186 N 
ATOM      2  N   UNL     1      35.283 -24.730 -16.035  0.00  0.00    -0.162 NA
ATOM      3  N   UNL     1      32.350 -22.923 -15.355  0.00  0.00    -0.126 NA
ATOM      4  N   UNL     1      32.284 -23.056 -16.727  0.00  0.00    -0.120 NA
ATOM      5  C   UNL     1      35.807 -24.879 -14.851  0.00  0.00    +0.104 C 
ATOM      6  C   UNL     1      33.451 -23.519 -14.948  0.00  0.00    +0.187 A 
ATOM      7  C   UNL     1      33.343 -23.729 -17.115  0.00  0.00    +0.217 A 
ATOM      8  C   UNL     1      35.190 -24.377 -13.581  0.00  0.00    +0.024 C 
ATOM      9  C   UNL     1      34.032 -23.711 -13.679  0.00  0.00    +0.042 C 
ENDROOT
BRANCH   5  12
ATOM     10  N   UNL     1      39.212 -26.078 -14.455  0.00  0.00    -0.208 N 
ATOM     11  N   UNL     1      38.645 -27.285 -14.626  0.00  0.00    -0.176 NA
ATOM     12  C   UNL     1      37.095 -25.609 -14.722  0.00  0.00    +0.056 C 
ATOM     13  C   UNL     1      38.326 -25.042 -14.504  0.00  0.00    +0.087 C 
ATOM     14  C   UNL     1      37.352 -26.992 -14.788  0.00  0.00    +0.121 C 
ATOM     15  C   UNL     1      40.636 -25.979 -14.245  0.00  0.00    +0.140 C 
ENDBRANCH   5  12
BRANCH   7  16
ATOM     16  S   UNL     1      33.762 -24.188 -18.790  0.00  0.00    -0.051 S 
BRANCH  16  19
ATOM     17  N   UNL     1      34.805 -18.859 -21.220  0.00  0.00    -0.248 NA
ATOM     18  C   UNL     1      35.655 -20.896 -20.255  0.00  0.00    -0.003 C 
ATOM     19  C   UNL     1      34.085 -22.594 -19.517  0.00  0.00    +0.011 C 
ATOM     20  C   UNL     1      34.591 -20.068 -20.669  0.00  0.00    +0.060 C 
ATOM     21  C   UNL     1      35.395 -22.153 -19.683  0.00  0.00    +0.060 C 
ATOM     22  C   UNL     1      33.033 -21.784 -19.922  0.00  0.00    -0.017 C 
ATOM     23  C   UNL     1      33.291 -20.535 -20.491  0.00  0.00    +0.072 C 
ATOM     24  C   UNL     1      36.963 -20.427 -20.434  0.00  0.00    -0.001 C 
ATOM     25  C   UNL     1      37.187 -19.181 -21.002  0.00  0.00    +0.020 C 
ATOM     26  C   UNL     1      36.082 -18.443 -21.375  0.00  0.00    +0.098 C 
ENDBRANCH  16  19
ENDBRANCH   7  16
TORSDOF 3
ENDMDL
MODEL 8
REMARK VINA RESULT:     -10.3      3.393      5.911
REMARK  Name = 24779724
REMARK  3 active torsions:
REMARK  status: ('A' for Active; 'I' for Inactive)
REMARK    1  A    between atoms: C_5  and  C_12
REMARK    2  A    between atoms: C_7  and  S_16
REMARK    3  A    between atoms: S_16  and  C_19
REMARK                            x       y       z     vdW  Elec       q    Type
REMARK                         _______ _______ _______ _____ _____    ______ ____
ROOT
ATOM      1  N   UNL     1      32.818 -23.437 -16.333  0.00  0.00    -0.186 N 
ATOM      2  N   UNL     1      31.531 -23.366 -16.757  0.00  0.00    -0.162 NA
ATOM      3  N   UNL     1      34.594 -23.455 -15.042  0.00  0.00    -0.126 NA
ATOM      4  N   UNL     1      34.999 -23.649 -16.347  0.00  0.00    -0.120 NA
ATOM      5  C   UNL     1      30.671 -23.179 -15.795  0.00  0.00    +0.104 C 
ATOM      6  C   UNL     1      33.284 -23.329 -15.044  0.00  0.00    +0.187 A 
ATOM      7  C   UNL     1      33.927 -23.634 -17.105  0.00  0.00    +0.217 A 
ATOM      8  C   UNL     1      31.035 -23.026 -14.349  0.00  0.00    +0.024 C 
ATOM      9  C   UNL     1      32.333 -23.109 -14.028  0.00  0.00    +0.042 C 
ENDROOT
BRANCH   5  12
ATOM     10  N   UNL     1      27.093 -22.622 -16.067  0.00  0.00    -0.208 N 
ATOM     11  N   UNL     1      27.223 -23.332 -17.201  0.00  0.00    -0.176 NA
ATOM     12  C   UNL     1      29.227 -23.089 -16.130  0.00  0.00    +0.056 C 
ATOM     13  C   UNL     1      28.264 -22.449 -15.388  0.00  0.00    +0.087 C 
ATOM     14  C   UNL     1      28.528 -23.614 -17.235  0.00  0.00    +0.121 C 
ATOM     15  C   UNL     1      25.795 -22.126 -15.676  0.00  0.00    +0.140 C 
ENDBRANCH   5  12
BRANCH   7  16
ATOM     16  S   UNL     1      33.870 -23.837 -18.879  0.00  0.00    -0.051 S 
BRANCH  16  19
ATOM     17  N   UNL     1      37.020 -19.120 -20.673  0.00  0.00    -0.248 NA
ATOM     18  C   UNL     1      35.004 -20.433 -20.800  0.00  0.00    -0.003 C 
ATOM     19  C   UNL     1      34.805 -22.421 -19.422  0.00  0.00    +0.011 C 
ATOM     20  C   UNL     1      36.291 -20.181 -20.280  0.00  0.00    +0.060 C 
ATOM     21  C   UNL     1      34.270 -21.551 -20.368  0.00  0.00    +0.060 C 
ATOM     22  C   UNL     1      36.071 -22.180 -18.907  0.00  0.00    -0.017 C 
ATOM     23  C   UNL     1      36.801 -21.069 -19.336  0.00  0.00    +0.072 C 
ATOM     24  C   UNL     1      34.491 -19.541 -21.750  0.00  0.00    -0.001 C 
ATOM     25  C   UNL     1      35.240 -18.446 -22.157  0.00  0.00    +0.020 C 
ATOM     26  C   UNL     1      36.488 -18.283 -21.592  0.00  0.00    +0.098 C 
ENDBRANCH  16  19
ENDBRANCH   7  16
TORSDOF 3
ENDMDL
MODEL 9
REMARK VINA RESULT:     -10.1      6.827     12.560
REMARK  Name = 24779724
REMARK  3 active torsions:
REMARK  status: ('A' for Active; 'I' for Inactive)
REMARK    1  A    between atoms: C_5  and  C_12
REMARK    2  A    between atoms: C_7  and  S_16
REMARK    3  A    between atoms: S_16  and  C_19
REMARK                            x       y       z     vdW  Elec       q    Type
REMARK                         _______ _______ _______ _____ _____    ______ ____
ROOT
ATOM      1  N   UNL     1      32.539 -11.418 -22.477  0.00  0.00    -0.186 N 
ATOM      2  N   UNL     1      32.901 -10.287 -23.132  0.00  0.00    -0.162 NA
ATOM      3  N   UNL     1      31.710 -12.787 -20.972  0.00  0.00    -0.126 NA
ATOM      4  N   UNL     1      32.260 -13.537 -21.992  0.00  0.00    -0.120 NA
ATOM      5  C   UNL     1      32.561  -9.191 -22.514  0.00  0.00    +0.104 C 
ATOM      6  C   UNL     1      31.882 -11.517 -21.273  0.00  0.00    +0.187 A 
ATOM      7  C   UNL     1      32.752 -12.705 -22.881  0.00  0.00    +0.217 A 
ATOM      8  C   UNL     1      31.859  -9.146 -21.190  0.00  0.00    +0.024 C 
ATOM      9  C   UNL     1      31.544 -10.315 -20.620  0.00  0.00    +0.042 C 
ENDROOT
BRANCH   5  12
ATOM     10  N   UNL     1      32.760  -5.853 -23.932  0.00  0.00    -0.208 N 
ATOM     11  N   UNL     1      34.050  -6.177 -24.123  0.00  0.00    -0.176 NA
ATOM     12  C   UNL     1      32.897  -7.883 -23.134  0.00  0.00    +0.056 C 
ATOM     13  C   UNL     1      32.026  -6.841 -23.343  0.00  0.00    +0.087 C 
ATOM     14  C   UNL     1      34.128  -7.417 -23.634  0.00  0.00    +0.121 C 
ATOM     15  C   UNL     1      32.277  -4.557 -24.342  0.00  0.00    +0.140 C 
ENDBRANCH   5  12
BRANCH   7  16
ATOM     16  S   UNL     1      33.581 -13.136 -24.403  0.00  0.00    -0.051 S 
BRANCH  16  19
ATOM     17  N   UNL     1      35.271 -18.720 -23.241  0.00  0.00    -0.248 NA
ATOM     18  C   UNL     1      34.132 -17.159 -24.680  0.00  0.00    -0.003 C 
ATOM     19  C   UNL     1      34.082 -14.811 -24.065  0.00  0.00    +0.011 C 
ATOM     20  C   UNL     1      34.879 -17.464 -23.523  0.00  0.00    +0.060 C 
ATOM     21  C   UNL     1      33.740 -15.836 -24.943  0.00  0.00    +0.060 C 
ATOM     22  C   UNL     1      34.817 -15.104 -22.923  0.00  0.00    -0.017 C 
ATOM     23  C   UNL     1      35.208 -16.420 -22.662  0.00  0.00    +0.072 C 
ATOM     24  C   UNL     1      33.802 -18.209 -25.546  0.00  0.00    -0.001 C 
ATOM     25  C   UNL     1      34.204 -19.505 -25.259  0.00  0.00    +0.020 C 
ATOM     26  C   UNL     1      34.931 -19.705 -24.103  0.00  0.00    +0.098 C 
ENDBRANCH  16  19
ENDBRANCH   7  16
TORSDOF 3
ENDMDL
