MODEL 1
REMARK VINA RESULT:     -11.5      0.000      0.000
REMARK  Name = 447359
REMARK  5 active torsions:
REMARK  status: ('A' for Active; 'I' for Inactive)
REMARK    1  A    between atoms: N_2  and  S_8
REMARK    2  A    between atoms: N_3  and  C_21
REMARK    3  A    between atoms: S_8  and  C_13
REMARK    4  A    between atoms: C_21  and  C_22
REMARK    5  A    between atoms: C_25  and  C_30
REMARK                            x       y       z     vdW  Elec       q    Type
REMARK                         _______ _______ _______ _____ _____    ______ ____
ROOT
ATOM      1  O   UNL     1      37.426 -20.693 -20.303  0.00  0.00    -0.273 OA
ATOM      2  N   UNL     1      34.165 -21.804 -19.191  0.00  0.00    -0.144 NA
ATOM      3  N   UNL     1      35.327 -19.890 -20.871  0.00  0.00    -0.273 N 
ATOM      4  C   UNL     1      33.367 -21.297 -20.329  0.00  0.00    +0.118 C 
ATOM      5  C   UNL     1      33.884 -19.911 -20.650  0.00  0.00    +0.113 C 
ATOM      6  C   UNL     1      35.583 -21.976 -19.560  0.00  0.00    +0.181 C 
ATOM      7  C   UNL     1      36.195 -20.786 -20.254  0.00  0.00    +0.244 C 
ENDROOT
BRANCH   2   8
ATOM      8  S   UNL     1      33.467 -23.092 -18.305  0.00  0.00    +0.069 S 
ATOM      9  O   UNL     1      33.730 -24.330 -19.010  0.00  0.00    -0.152 OA
ATOM     10  O   UNL     1      32.134 -22.714 -17.889  0.00  0.00    -0.152 OA
BRANCH   8  13
ATOM     11 CL   UNL     1      36.069 -24.357 -10.667  0.00  0.00    -0.082 Cl
ATOM     12  S   UNL     1      33.448 -23.830 -15.483  0.00  0.00    -0.067 S 
ATOM     13  C   UNL     1      34.373 -23.240 -16.769  0.00  0.00    +0.152 C 
ATOM     14  C   UNL     1      35.659 -22.968 -16.445  0.00  0.00    +0.027 C 
ATOM     15  C   UNL     1      35.933 -23.251 -15.065  0.00  0.00    +0.008 C 
ATOM     16  C   UNL     1      34.796 -23.735 -14.411  0.00  0.00    +0.032 C 
ATOM     17  C   UNL     1      37.128 -23.115 -14.317  0.00  0.00    +0.001 C 
ATOM     18  C   UNL     1      34.823 -24.083 -13.046  0.00  0.00    +0.018 C 
ATOM     19  C   UNL     1      37.158 -23.459 -12.963  0.00  0.00    +0.011 C 
ATOM     20  C   UNL     1      36.016 -23.937 -12.336  0.00  0.00    +0.058 C 
ENDBRANCH   8  13
ENDBRANCH   2   8
BRANCH   3  21
ATOM     21  C   UNL     1      35.851 -18.734 -21.587  0.00  0.00    +0.120 C 
BRANCH  21  22
ATOM     22  C   UNL     1      35.225 -18.659 -22.945  0.00  0.00    -0.002 C 
ATOM     23  C   UNL     1      34.819 -17.427 -23.450  0.00  0.00    +0.000 C 
ATOM     24  C   UNL     1      35.053 -19.820 -23.693  0.00  0.00    -0.003 C 
ATOM     25  C   UNL     1      34.235 -17.357 -24.715  0.00  0.00    +0.030 C 
ATOM     26  C   UNL     1      34.469 -19.749 -24.957  0.00  0.00    -0.000 C 
ATOM     27  C   UNL     1      34.059 -18.518 -25.469  0.00  0.00    +0.003 C 
BRANCH  25  30
ATOM     28  N   UNL     1      33.757 -14.935 -24.447  0.00  0.00    -0.343 N 
ATOM     29  N   UNL     1      33.455 -15.974 -26.519  0.00  0.00    -0.285 NA
ATOM     30  C   UNL     1      33.807 -16.073 -25.250  0.00  0.00    +0.117 C 
ATOM     31  H   UNL     1      33.464 -14.076 -24.829  0.00  0.00    +0.144 HD
ATOM     32  H   UNL     1      34.012 -14.989 -23.499  0.00  0.00    +0.144 HD
ATOM     33  H   UNL     1      33.165 -15.105 -26.883  0.00  0.00    +0.188 HD
ENDBRANCH  25  30
ENDBRANCH  21  22
ENDBRANCH   3  21
TORSDOF 5
ENDMDL
MODEL 2
REMARK VINA RESULT:     -10.3     10.251     15.140
REMARK  Name = 447359
REMARK  5 active torsions:
REMARK  status: ('A' for Active; 'I' for Inactive)
REMARK    1  A    between atoms: N_2  and  S_8
REMARK    2  A    between atoms: N_3  and  C_21
REMARK    3  A    between atoms: S_8  and  C_13
REMARK    4  A    between atoms: C_21  and  C_22
REMARK    5  A    between atoms: C_25  and  C_30
REMARK                            x       y       z     vdW  Elec       q    Type
REMARK                         _______ _______ _______ _____ _____    ______ ____
ROOT
ATOM      1  O   UNL     1      34.938 -11.349 -25.341  0.00  0.00    -0.273 OA
ATOM      2  N   UNL     1      32.836  -9.507 -23.040  0.00  0.00    -0.144 NA
ATOM      3  N   UNL     1      33.347 -12.138 -23.851  0.00  0.00    -0.273 N 
ATOM      4  C   UNL     1      32.560 -10.600 -22.081  0.00  0.00    +0.118 C 
ATOM      5  C   UNL     1      32.282 -11.844 -22.897  0.00  0.00    +0.113 C 
ATOM      6  C   UNL     1      34.064  -9.766 -23.815  0.00  0.00    +0.181 C 
ATOM      7  C   UNL     1      34.139 -11.145 -24.421  0.00  0.00    +0.244 C 
ENDROOT
BRANCH   2   8
ATOM      8  S   UNL     1      32.666  -7.917 -22.429  0.00  0.00    +0.069 S 
ATOM      9  O   UNL     1      33.632  -7.727 -21.366  0.00  0.00    -0.152 OA
ATOM     10  O   UNL     1      31.260  -7.625 -22.249  0.00  0.00    -0.152 OA
BRANCH   8  13
ATOM     11 CL   UNL     1      33.343  -2.213 -28.236  0.00  0.00    -0.082 Cl
ATOM     12  S   UNL     1      31.949  -5.764 -24.263  0.00  0.00    -0.067 S 
ATOM     13  C   UNL     1      33.180  -6.788 -23.719  0.00  0.00    +0.152 C 
ATOM     14  C   UNL     1      34.368  -6.601 -24.340  0.00  0.00    +0.027 C 
ATOM     15  C   UNL     1      34.297  -5.561 -25.326  0.00  0.00    +0.008 C 
ATOM     16  C   UNL     1      33.014  -5.010 -25.391  0.00  0.00    +0.032 C 
ATOM     17  C   UNL     1      35.291  -5.046 -26.193  0.00  0.00    +0.001 C 
ATOM     18  C   UNL     1      32.703  -3.971 -26.289  0.00  0.00    +0.018 C 
ATOM     19  C   UNL     1      34.986  -4.015 -27.085  0.00  0.00    +0.011 C 
ATOM     20  C   UNL     1      33.704  -3.485 -27.131  0.00  0.00    +0.058 C 
ENDBRANCH   8  13
ENDBRANCH   2   8
BRANCH   3  21
ATOM     21  C   UNL     1      33.392 -13.500 -24.366  0.00  0.00    +0.120 C 
BRANCH  21  22
ATOM     22  C   UNL     1      33.992 -14.406 -23.335  0.00  0.00    -0.002 C 
ATOM     23  C   UNL     1      34.434 -15.673 -23.703  0.00  0.00    +0.000 C 
ATOM     24  C   UNL     1      34.100 -13.976 -22.016  0.00  0.00    -0.003 C 
ATOM     25  C   UNL     1      34.991 -16.518 -22.743  0.00  0.00    +0.030 C 
ATOM     26  C   UNL     1      34.656 -14.822 -21.056  0.00  0.00    -0.000 C 
ATOM     27  C   UNL     1      35.102 -16.092 -21.419  0.00  0.00    +0.003 C 
BRANCH  25  30
ATOM     28  N   UNL     1      34.695 -18.671 -23.944  0.00  0.00    -0.343 N 
ATOM     29  N   UNL     1      36.621 -18.283 -22.678  0.00  0.00    -0.285 NA
ATOM     30  C   UNL     1      35.456 -17.843 -23.121  0.00  0.00    +0.117 C 
ATOM     31  H   UNL     1      35.029 -19.564 -24.187  0.00  0.00    +0.144 HD
ATOM     32  H   UNL     1      33.824 -18.363 -24.282  0.00  0.00    +0.144 HD
ATOM     33  H   UNL     1      36.938 -19.180 -22.933  0.00  0.00    +0.188 HD
ENDBRANCH  25  30
ENDBRANCH  21  22
ENDBRANCH   3  21
TORSDOF 5
ENDMDL
MODEL 3
REMARK VINA RESULT:     -10.2      1.367      2.103
REMARK  Name = 447359
REMARK  5 active torsions:
REMARK  status: ('A' for Active; 'I' for Inactive)
REMARK    1  A    between atoms: N_2  and  S_8
REMARK    2  A    between atoms: N_3  and  C_21
REMARK    3  A    between atoms: S_8  and  C_13
REMARK    4  A    between atoms: C_21  and  C_22
REMARK    5  A    between atoms: C_25  and  C_30
REMARK                            x       y       z     vdW  Elec       q    Type
REMARK                         _______ _______ _______ _____ _____    ______ ____
ROOT
ATOM      1  O   UNL     1      37.799 -20.650 -20.321  0.00  0.00    -0.273 OA
ATOM      2  N   UNL     1      34.411 -21.582 -19.452  0.00  0.00    -0.144 NA
ATOM      3  N   UNL     1      35.804 -19.597 -20.851  0.00  0.00    -0.273 N 
ATOM      4  C   UNL     1      33.708 -20.874 -20.544  0.00  0.00    +0.118 C 
ATOM      5  C   UNL     1      34.357 -19.512 -20.677  0.00  0.00    +0.113 C 
ATOM      6  C   UNL     1      35.823 -21.839 -19.796  0.00  0.00    +0.181 C 
ATOM      7  C   UNL     1      36.564 -20.635 -20.321  0.00  0.00    +0.244 C 
ENDROOT
BRANCH   2   8
ATOM      8  S   UNL     1      33.569 -22.897 -18.751  0.00  0.00    +0.069 S 
ATOM      9  O   UNL     1      33.904 -24.101 -19.482  0.00  0.00    -0.152 OA
ATOM     10  O   UNL     1      32.197 -22.506 -18.506  0.00  0.00    -0.152 OA
BRANCH   8  13
ATOM     11 CL   UNL     1      38.088 -23.353 -11.962  0.00  0.00    -0.082 Cl
ATOM     12  S   UNL     1      35.843 -22.641 -16.941  0.00  0.00    -0.067 S 
ATOM     13  C   UNL     1      34.242 -23.155 -17.113  0.00  0.00    +0.152 C 
ATOM     14  C   UNL     1      33.709 -23.684 -15.987  0.00  0.00    +0.027 C 
ATOM     15  C   UNL     1      34.646 -23.681 -14.900  0.00  0.00    +0.008 C 
ATOM     16  C   UNL     1      35.871 -23.131 -15.289  0.00  0.00    +0.032 C 
ATOM     17  C   UNL     1      34.508 -24.132 -13.565  0.00  0.00    +0.001 C 
ATOM     18  C   UNL     1      36.949 -23.023 -14.388  0.00  0.00    +0.018 C 
ATOM     19  C   UNL     1      35.575 -24.026 -12.669  0.00  0.00    +0.011 C 
ATOM     20  C   UNL     1      36.782 -23.477 -13.078  0.00  0.00    +0.058 C 
ENDBRANCH   8  13
ENDBRANCH   2   8
BRANCH   3  21
ATOM     21  C   UNL     1      36.456 -18.418 -21.404  0.00  0.00    +0.120 C 
BRANCH  21  22
ATOM     22  C   UNL     1      35.621 -17.857 -22.514  0.00  0.00    -0.002 C 
ATOM     23  C   UNL     1      35.034 -18.716 -23.438  0.00  0.00    +0.000 C 
ATOM     24  C   UNL     1      35.439 -16.481 -22.616  0.00  0.00    -0.003 C 
ATOM     25  C   UNL     1      34.257 -18.194 -24.473  0.00  0.00    +0.030 C 
ATOM     26  C   UNL     1      34.662 -15.960 -23.650  0.00  0.00    -0.000 C 
ATOM     27  C   UNL     1      34.071 -16.816 -24.579  0.00  0.00    +0.003 C 
BRANCH  25  30
ATOM     28  N   UNL     1      34.238 -20.294 -25.798  0.00  0.00    -0.343 N 
ATOM     29  N   UNL     1      32.491 -18.755 -26.004  0.00  0.00    -0.285 NA
ATOM     30  C   UNL     1      33.640 -19.087 -25.442  0.00  0.00    +0.117 C 
ATOM     31  H   UNL     1      33.803 -20.883 -26.457  0.00  0.00    +0.144 HD
ATOM     32  H   UNL     1      35.095 -20.558 -25.393  0.00  0.00    +0.144 HD
ATOM     33  H   UNL     1      32.072 -19.358 -26.660  0.00  0.00    +0.188 HD
ENDBRANCH  25  30
ENDBRANCH  21  22
ENDBRANCH   3  21
TORSDOF 5
ENDMDL
MODEL 4
REMARK VINA RESULT:      -9.7      4.422      7.053
REMARK  Name = 447359
REMARK  5 active torsions:
REMARK  status: ('A' for Active; 'I' for Inactive)
REMARK    1  A    between atoms: N_2  and  S_8
REMARK    2  A    between atoms: N_3  and  C_21
REMARK    3  A    between atoms: S_8  and  C_13
REMARK    4  A    between atoms: C_21  and  C_22
REMARK    5  A    between atoms: C_25  and  C_30
REMARK                            x       y       z     vdW  Elec       q    Type
REMARK                         _______ _______ _______ _____ _____    ______ ____
ROOT
ATOM      1  O   UNL     1      34.113 -14.169 -20.972  0.00  0.00    -0.273 OA
ATOM      2  N   UNL     1      34.832 -17.003 -23.107  0.00  0.00    -0.144 NA
ATOM      3  N   UNL     1      33.529 -14.526 -23.187  0.00  0.00    -0.273 N 
ATOM      4  C   UNL     1      34.704 -16.323 -24.415  0.00  0.00    +0.118 C 
ATOM      5  C   UNL     1      33.484 -15.431 -24.332  0.00  0.00    +0.113 C 
ATOM      6  C   UNL     1      35.108 -16.041 -22.023  0.00  0.00    +0.181 C 
ATOM      7  C   UNL     1      34.189 -14.846 -22.003  0.00  0.00    +0.244 C 
ENDROOT
BRANCH   2   8
ATOM      8  S   UNL     1      35.784 -18.425 -23.095  0.00  0.00    +0.069 S 
ATOM      9  O   UNL     1      37.112 -18.087 -22.624  0.00  0.00    -0.152 OA
ATOM     10  O   UNL     1      35.570 -19.151 -24.329  0.00  0.00    -0.152 OA
BRANCH   8  13
ATOM     11 CL   UNL     1      34.424 -23.615 -16.936  0.00  0.00    -0.082 Cl
ATOM     12  S   UNL     1      36.292 -20.242 -20.869  0.00  0.00    -0.067 S 
ATOM     13  C   UNL     1      35.116 -19.509 -21.837  0.00  0.00    +0.152 C 
ATOM     14  C   UNL     1      33.847 -19.851 -21.517  0.00  0.00    +0.027 C 
ATOM     15  C   UNL     1      33.803 -20.768 -20.414  0.00  0.00    +0.008 C 
ATOM     16  C   UNL     1      35.088 -21.072 -19.956  0.00  0.00    +0.032 C 
ATOM     17  C   UNL     1      32.701 -21.373 -19.763  0.00  0.00    +0.001 C 
ATOM     18  C   UNL     1      35.297 -21.954 -18.877  0.00  0.00    +0.018 C 
ATOM     19  C   UNL     1      32.903 -22.248 -18.693  0.00  0.00    +0.011 C 
ATOM     20  C   UNL     1      34.189 -22.534 -18.257  0.00  0.00    +0.058 C 
ENDBRANCH   8  13
ENDBRANCH   2   8
BRANCH   3  21
ATOM     21  C   UNL     1      32.651 -13.366 -23.248  0.00  0.00    +0.120 C 
BRANCH  21  22
ATOM     22  C   UNL     1      33.406 -12.192 -23.791  0.00  0.00    -0.002 C 
ATOM     23  C   UNL     1      33.284 -10.949 -23.177  0.00  0.00    +0.000 C 
ATOM     24  C   UNL     1      34.224 -12.352 -24.905  0.00  0.00    -0.003 C 
ATOM     25  C   UNL     1      33.987  -9.855 -23.683  0.00  0.00    +0.030 C 
ATOM     26  C   UNL     1      34.927 -11.258 -25.411  0.00  0.00    -0.000 C 
ATOM     27  C   UNL     1      34.808 -10.010 -24.800  0.00  0.00    +0.003 C 
BRANCH  25  30
ATOM     28  N   UNL     1      34.794  -7.542 -23.279  0.00  0.00    -0.343 N 
ATOM     29  N   UNL     1      32.855  -8.315 -22.227  0.00  0.00    -0.285 NA
ATOM     30  C   UNL     1      33.864  -8.553 -23.047  0.00  0.00    +0.117 C 
ATOM     31  H   UNL     1      34.692  -6.668 -22.837  0.00  0.00    +0.144 HD
ATOM     32  H   UNL     1      35.554  -7.702 -23.883  0.00  0.00    +0.144 HD
ATOM     33  H   UNL     1      32.770  -7.434 -21.795  0.00  0.00    +0.188 HD
ENDBRANCH  25  30
ENDBRANCH  21  22
ENDBRANCH   3  21
TORSDOF 5
ENDMDL
MODEL 5
REMARK VINA RESULT:      -9.6      6.608     10.854
REMARK  Name = 447359
REMARK  5 active torsions:
REMARK  status: ('A' for Active; 'I' for Inactive)
REMARK    1  A    between atoms: N_2  and  S_8
REMARK    2  A    between atoms: N_3  and  C_21
REMARK    3  A    between atoms: S_8  and  C_13
REMARK    4  A    between atoms: C_21  and  C_22
REMARK    5  A    between atoms: C_25  and  C_30
REMARK                            x       y       z     vdW  Elec       q    Type
REMARK                         _______ _______ _______ _____ _____    ______ ____
ROOT
ATOM      1  O   UNL     1      35.334 -16.179 -20.886  0.00  0.00    -0.273 OA
ATOM      2  N   UNL     1      34.281 -15.132 -24.187  0.00  0.00    -0.144 NA
ATOM      3  N   UNL     1      35.370 -17.357 -22.882  0.00  0.00    -0.273 N 
ATOM      4  C   UNL     1      34.038 -16.470 -24.768  0.00  0.00    +0.118 C 
ATOM      5  C   UNL     1      35.184 -17.357 -24.330  0.00  0.00    +0.113 C 
ATOM      6  C   UNL     1      34.226 -15.165 -22.713  0.00  0.00    +0.181 C 
ATOM      7  C   UNL     1      35.046 -16.263 -22.084  0.00  0.00    +0.244 C 
ENDROOT
BRANCH   2   8
ATOM      8  S   UNL     1      33.450 -13.833 -24.930  0.00  0.00    +0.069 S 
ATOM      9  O   UNL     1      32.204 -14.334 -25.473  0.00  0.00    -0.152 OA
ATOM     10  O   UNL     1      34.382 -13.069 -25.731  0.00  0.00    -0.152 OA
BRANCH   8  13
ATOM     11 CL   UNL     1      31.962  -7.442 -20.066  0.00  0.00    -0.082 Cl
ATOM     12  S   UNL     1      33.388 -11.090 -23.940  0.00  0.00    -0.067 S 
ATOM     13  C   UNL     1      32.961 -12.697 -23.637  0.00  0.00    +0.152 C 
ATOM     14  C   UNL     1      32.315 -12.884 -22.463  0.00  0.00    +0.027 C 
ATOM     15  C   UNL     1      32.142 -11.653 -21.745  0.00  0.00    +0.008 C 
ATOM     16  C   UNL     1      32.691 -10.576 -22.448  0.00  0.00    +0.032 C 
ATOM     17  C   UNL     1      31.530 -11.394 -20.496  0.00  0.00    +0.001 C 
ATOM     18  C   UNL     1      32.643  -9.263 -21.940  0.00  0.00    +0.018 C 
ATOM     19  C   UNL     1      31.479 -10.093 -19.988  0.00  0.00    +0.011 C 
ATOM     20  C   UNL     1      32.032  -9.041 -20.704  0.00  0.00    +0.058 C 
ENDBRANCH   8  13
ENDBRANCH   2   8
BRANCH   3  21
ATOM     21  C   UNL     1      36.133 -18.468 -22.330  0.00  0.00    +0.120 C 
BRANCH  21  22
ATOM     22  C   UNL     1      35.213 -19.392 -21.593  0.00  0.00    -0.002 C 
ATOM     23  C   UNL     1      35.728 -20.255 -20.631  0.00  0.00    +0.000 C 
ATOM     24  C   UNL     1      33.851 -19.381 -21.875  0.00  0.00    -0.003 C 
ATOM     25  C   UNL     1      34.872 -21.117 -19.944  0.00  0.00    +0.030 C 
ATOM     26  C   UNL     1      32.995 -20.243 -21.189  0.00  0.00    -0.000 C 
ATOM     27  C   UNL     1      33.505 -21.111 -20.224  0.00  0.00    +0.003 C 
BRANCH  25  30
ATOM     28  N   UNL     1      36.643 -21.798 -18.343  0.00  0.00    -0.343 N 
ATOM     29  N   UNL     1      34.705 -23.084 -18.574  0.00  0.00    -0.285 NA
ATOM     30  C   UNL     1      35.403 -22.022 -18.937  0.00  0.00    +0.117 C 
ATOM     31  H   UNL     1      36.984 -22.423 -17.664  0.00  0.00    +0.144 HD
ATOM     32  H   UNL     1      37.179 -21.014 -18.602  0.00  0.00    +0.144 HD
ATOM     33  H   UNL     1      35.063 -23.698 -17.893  0.00  0.00    +0.188 HD
ENDBRANCH  25  30
ENDBRANCH  21  22
ENDBRANCH   3  21
TORSDOF 5
ENDMDL
MODEL 6
REMARK VINA RESULT:      -9.5      8.999     12.592
REMARK  Name = 447359
REMARK  5 active torsions:
REMARK  status: ('A' for Active; 'I' for Inactive)
REMARK    1  A    between atoms: N_2  and  S_8
REMARK    2  A    between atoms: N_3  and  C_21
REMARK    3  A    between atoms: S_8  and  C_13
REMARK    4  A    between atoms: C_21  and  C_22
REMARK    5  A    between atoms: C_25  and  C_30
REMARK                            x       y       z     vdW  Elec       q    Type
REMARK                         _______ _______ _______ _____ _____    ______ ____
ROOT
ATOM      1  O   UNL     1      34.962  -9.307 -24.923  0.00  0.00    -0.273 OA
ATOM      2  N   UNL     1      32.848 -10.372 -22.184  0.00  0.00    -0.144 NA
ATOM      3  N   UNL     1      34.076  -8.062 -23.180  0.00  0.00    -0.273 N 
ATOM      4  C   UNL     1      32.236  -9.064 -21.865  0.00  0.00    +0.118 C 
ATOM      5  C   UNL     1      33.344  -8.033 -21.917  0.00  0.00    +0.113 C 
ATOM      6  C   UNL     1      33.365 -10.404 -23.566  0.00  0.00    +0.181 C 
ATOM      7  C   UNL     1      34.224  -9.221 -23.936  0.00  0.00    +0.244 C 
ENDROOT
BRANCH   2   8
ATOM      8  S   UNL     1      31.960 -11.751 -21.694  0.00  0.00    +0.069 S 
ATOM      9  O   UNL     1      30.694 -11.757 -22.398  0.00  0.00    -0.152 OA
ATOM     10  O   UNL     1      32.037 -11.878 -20.254  0.00  0.00    -0.152 OA
BRANCH   8  13
ATOM     11 CL   UNL     1      36.412 -18.511 -22.789  0.00  0.00    -0.082 Cl
ATOM     12  S   UNL     1      33.677 -14.035 -21.107  0.00  0.00    -0.067 S 
ATOM     13  C   UNL     1      32.827 -13.193 -22.301  0.00  0.00    +0.152 C 
ATOM     14  C   UNL     1      32.930 -13.736 -23.537  0.00  0.00    +0.027 C 
ATOM     15  C   UNL     1      33.748 -14.915 -23.537  0.00  0.00    +0.008 C 
ATOM     16  C   UNL     1      34.230 -15.197 -22.255  0.00  0.00    +0.032 C 
ATOM     17  C   UNL     1      34.114 -15.781 -24.595  0.00  0.00    +0.001 C 
ATOM     18  C   UNL     1      35.058 -16.310 -22.007  0.00  0.00    +0.018 C 
ATOM     19  C   UNL     1      34.935 -16.886 -24.353  0.00  0.00    +0.011 C 
ATOM     20  C   UNL     1      35.401 -17.145 -23.072  0.00  0.00    +0.058 C 
ENDBRANCH   8  13
ENDBRANCH   2   8
BRANCH   3  21
ATOM     21  C   UNL     1      34.851  -6.871 -23.502  0.00  0.00    +0.120 C 
BRANCH  21  22
ATOM     22  C   UNL     1      34.012  -5.931 -24.312  0.00  0.00    -0.002 C 
ATOM     23  C   UNL     1      32.916  -5.305 -23.727  0.00  0.00    +0.000 C 
ATOM     24  C   UNL     1      34.334  -5.690 -25.645  0.00  0.00    -0.003 C 
ATOM     25  C   UNL     1      32.134  -4.429 -24.482  0.00  0.00    +0.030 C 
ATOM     26  C   UNL     1      33.552  -4.816 -26.399  0.00  0.00    -0.000 C 
ATOM     27  C   UNL     1      32.452  -4.185 -25.818  0.00  0.00    +0.003 C 
BRANCH  25  30
ATOM     28  N   UNL     1      30.479  -4.186 -22.646  0.00  0.00    -0.343 N 
ATOM     29  N   UNL     1      30.405  -2.761 -24.498  0.00  0.00    -0.285 NA
ATOM     30  C   UNL     1      30.987  -3.771 -23.876  0.00  0.00    +0.117 C 
ATOM     31  H   UNL     1      29.702  -3.726 -22.255  0.00  0.00    +0.144 HD
ATOM     32  H   UNL     1      30.898  -4.938 -22.170  0.00  0.00    +0.144 HD
ATOM     33  H   UNL     1      29.628  -2.314 -24.089  0.00  0.00    +0.188 HD
ENDBRANCH  25  30
ENDBRANCH  21  22
ENDBRANCH   3  21
TORSDOF 5
ENDMDL
MODEL 7
REMARK VINA RESULT:      -9.4      6.146     10.925
REMARK  Name = 447359
REMARK  5 active torsions:
REMARK  status: ('A' for Active; 'I' for Inactive)
REMARK    1  A    between atoms: N_2  and  S_8
REMARK    2  A    between atoms: N_3  and  C_21
REMARK    3  A    between atoms: S_8  and  C_13
REMARK    4  A    between atoms: C_21  and  C_22
REMARK    5  A    between atoms: C_25  and  C_30
REMARK                            x       y       z     vdW  Elec       q    Type
REMARK                         _______ _______ _______ _____ _____    ______ ____
ROOT
ATOM      1  O   UNL     1      35.624 -16.709 -21.131  0.00  0.00    -0.273 OA
ATOM      2  N   UNL     1      34.478 -16.573 -24.562  0.00  0.00    -0.144 NA
ATOM      3  N   UNL     1      35.474 -18.410 -22.699  0.00  0.00    -0.273 N 
ATOM      4  C   UNL     1      34.112 -17.998 -24.721  0.00  0.00    +0.118 C 
ATOM      5  C   UNL     1      35.214 -18.812 -24.078  0.00  0.00    +0.113 C 
ATOM      6  C   UNL     1      34.496 -16.176 -23.141  0.00  0.00    +0.181 C 
ATOM      7  C   UNL     1      35.269 -17.110 -22.244  0.00  0.00    +0.244 C 
ENDROOT
BRANCH   2   8
ATOM      8  S   UNL     1      33.702 -15.480 -25.627  0.00  0.00    +0.069 S 
ATOM      9  O   UNL     1      32.402 -16.017 -25.971  0.00  0.00    -0.152 OA
ATOM     10  O   UNL     1      34.646 -15.050 -26.636  0.00  0.00    -0.152 OA
BRANCH   8  13
ATOM     11 CL   UNL     1      32.892  -7.875 -22.758  0.00  0.00    -0.082 Cl
ATOM     12  S   UNL     1      33.889 -12.574 -25.455  0.00  0.00    -0.067 S 
ATOM     13  C   UNL     1      33.350 -13.989 -24.703  0.00  0.00    +0.152 C 
ATOM     14  C   UNL     1      32.734 -13.782 -23.516  0.00  0.00    +0.027 C 
ATOM     15  C   UNL     1      32.684 -12.389 -23.175  0.00  0.00    +0.008 C 
ATOM     16  C   UNL     1      33.289 -11.604 -24.162  0.00  0.00    +0.032 C 
ATOM     17  C   UNL     1      32.139 -11.737 -22.043  0.00  0.00    +0.001 C 
ATOM     18  C   UNL     1      33.361 -10.202 -24.046  0.00  0.00    +0.018 C 
ATOM     19  C   UNL     1      32.208 -10.347 -21.925  0.00  0.00    +0.011 C 
ATOM     20  C   UNL     1      32.814  -9.589 -22.917  0.00  0.00    +0.058 C 
ENDBRANCH   8  13
ENDBRANCH   2   8
BRANCH   3  21
ATOM     21  C   UNL     1      36.186 -19.374 -21.870  0.00  0.00    +0.120 C 
BRANCH  21  22
ATOM     22  C   UNL     1      35.204 -20.144 -21.041  0.00  0.00    -0.002 C 
ATOM     23  C   UNL     1      35.660 -20.957 -20.008  0.00  0.00    +0.000 C 
ATOM     24  C   UNL     1      33.842 -20.044 -21.311  0.00  0.00    -0.003 C 
ATOM     25  C   UNL     1      34.747 -21.675 -19.237  0.00  0.00    +0.030 C 
ATOM     26  C   UNL     1      32.929 -20.763 -20.540  0.00  0.00    -0.000 C 
ATOM     27  C   UNL     1      33.380 -21.579 -19.503  0.00  0.00    +0.003 C 
BRANCH  25  30
ATOM     28  N   UNL     1      36.461 -22.322 -17.561  0.00  0.00    -0.343 N 
ATOM     29  N   UNL     1      34.459 -23.519 -17.722  0.00  0.00    -0.285 NA
ATOM     30  C   UNL     1      35.217 -22.527 -18.155  0.00  0.00    +0.117 C 
ATOM     31  H   UNL     1      36.759 -22.911 -16.830  0.00  0.00    +0.144 HD
ATOM     32  H   UNL     1      37.041 -21.591 -17.871  0.00  0.00    +0.144 HD
ATOM     33  H   UNL     1      34.776 -24.096 -16.990  0.00  0.00    +0.188 HD
ENDBRANCH  25  30
ENDBRANCH  21  22
ENDBRANCH   3  21
TORSDOF 5
ENDMDL
MODEL 8
REMARK VINA RESULT:      -9.3      8.032     12.466
REMARK  Name = 447359
REMARK  5 active torsions:
REMARK  status: ('A' for Active; 'I' for Inactive)
REMARK    1  A    between atoms: N_2  and  S_8
REMARK    2  A    between atoms: N_3  and  C_21
REMARK    3  A    between atoms: S_8  and  C_13
REMARK    4  A    between atoms: C_21  and  C_22
REMARK    5  A    between atoms: C_25  and  C_30
REMARK                            x       y       z     vdW  Elec       q    Type
REMARK                         _______ _______ _______ _____ _____    ______ ____
ROOT
ATOM      1  O   UNL     1      35.107 -15.331 -20.971  0.00  0.00    -0.273 OA
ATOM      2  N   UNL     1      32.841 -12.746 -22.104  0.00  0.00    -0.144 NA
ATOM      3  N   UNL     1      34.459 -14.788 -23.129  0.00  0.00    -0.273 N 
ATOM      4  C   UNL     1      32.473 -13.341 -23.408  0.00  0.00    +0.118 C 
ATOM      5  C   UNL     1      33.746 -13.880 -24.023  0.00  0.00    +0.113 C 
ATOM      6  C   UNL     1      33.342 -13.768 -21.166  0.00  0.00    +0.181 C 
ATOM      7  C   UNL     1      34.397 -14.678 -21.742  0.00  0.00    +0.244 C 
ENDROOT
BRANCH   2   8
ATOM      8  S   UNL     1      31.722 -11.626 -21.452  0.00  0.00    +0.069 S 
ATOM      9  O   UNL     1      31.959 -11.515 -20.028  0.00  0.00    -0.152 OA
ATOM     10  O   UNL     1      30.407 -11.900 -21.991  0.00  0.00    -0.152 OA
BRANCH   8  13
ATOM     11 CL   UNL     1      34.726  -5.164 -25.443  0.00  0.00    -0.082 Cl
ATOM     12  S   UNL     1      33.336 -10.041 -23.295  0.00  0.00    -0.067 S 
ATOM     13  C   UNL     1      32.130 -10.013 -22.111  0.00  0.00    +0.152 C 
ATOM     14  C   UNL     1      31.653  -8.776 -21.839  0.00  0.00    +0.027 C 
ATOM     15  C   UNL     1      32.296  -7.769 -22.633  0.00  0.00    +0.008 C 
ATOM     16  C   UNL     1      33.253  -8.330 -23.485  0.00  0.00    +0.032 C 
ATOM     17  C   UNL     1      32.107  -6.366 -22.671  0.00  0.00    +0.001 C 
ATOM     18  C   UNL     1      34.015  -7.533 -24.362  0.00  0.00    +0.018 C 
ATOM     19  C   UNL     1      32.860  -5.573 -23.541  0.00  0.00    +0.011 C 
ATOM     20  C   UNL     1      33.805  -6.153 -24.376  0.00  0.00    +0.058 C 
ENDBRANCH   8  13
ENDBRANCH   2   8
BRANCH   3  21
ATOM     21  C   UNL     1      35.433 -15.673 -23.753  0.00  0.00    +0.120 C 
BRANCH  21  22
ATOM     22  C   UNL     1      35.053 -17.098 -23.496  0.00  0.00    -0.002 C 
ATOM     23  C   UNL     1      35.537 -17.749 -22.366  0.00  0.00    +0.000 C 
ATOM     24  C   UNL     1      34.219 -17.763 -24.391  0.00  0.00    -0.003 C 
ATOM     25  C   UNL     1      35.183 -19.078 -22.127  0.00  0.00    +0.030 C 
ATOM     26  C   UNL     1      33.866 -19.091 -24.152  0.00  0.00    -0.000 C 
ATOM     27  C   UNL     1      34.348 -19.749 -23.020  0.00  0.00    +0.003 C 
BRANCH  25  30
ATOM     28  N   UNL     1      34.998 -20.839 -20.386  0.00  0.00    -0.343 N 
ATOM     29  N   UNL     1      36.813 -19.366 -20.385  0.00  0.00    -0.285 NA
ATOM     30  C   UNL     1      35.685 -19.764 -20.947  0.00  0.00    +0.117 C 
ATOM     31  H   UNL     1      35.356 -21.289 -19.587  0.00  0.00    +0.144 HD
ATOM     32  H   UNL     1      34.155 -21.148 -20.788  0.00  0.00    +0.144 HD
ATOM     33  H   UNL     1      37.155 -19.829 -19.586  0.00  0.00    +0.188 HD
ENDBRANCH  25  30
ENDBRANCH  21  22
ENDBRANCH   3  21
TORSDOF 5
ENDMDL
MODEL 9
REMARK VINA RESULT:      -9.3      1.211      1.942
REMARK  Name = 447359
REMARK  5 active torsions:
REMARK  status: ('A' for Active; 'I' for Inactive)
REMARK    1  A    between atoms: N_2  and  S_8
REMARK    2  A    between atoms: N_3  and  C_21
REMARK    3  A    between atoms: S_8  and  C_13
REMARK    4  A    between atoms: C_21  and  C_22
REMARK    5  A    between atoms: C_25  and  C_30
REMARK                            x       y       z     vdW  Elec       q    Type
REMARK                         _______ _______ _______ _____ _____    ______ ____
ROOT
ATOM      1  O   UNL     1      33.811 -19.768 -21.934  0.00  0.00    -0.273 OA
ATOM      2  N   UNL     1      34.480 -22.214 -19.351  0.00  0.00    -0.144 NA
ATOM      3  N   UNL     1      35.798 -20.241 -20.837  0.00  0.00    -0.273 N 
ATOM      4  C   UNL     1      35.678 -21.579 -18.761  0.00  0.00    +0.118 C 
ATOM      5  C   UNL     1      36.535 -21.096 -19.911  0.00  0.00    +0.113 C 
ATOM      6  C   UNL     1      33.656 -21.235 -20.085  0.00  0.00    +0.181 C 
ATOM      7  C   UNL     1      34.428 -20.370 -21.050  0.00  0.00    +0.244 C 
ENDROOT
BRANCH   2   8
ATOM      8  S   UNL     1      33.622 -23.286 -18.328  0.00  0.00    +0.069 S 
ATOM      9  O   UNL     1      33.716 -24.622 -18.879  0.00  0.00    -0.152 OA
ATOM     10  O   UNL     1      32.352 -22.690 -17.975  0.00  0.00    -0.152 OA
BRANCH   8  13
ATOM     11 CL   UNL     1      36.121 -24.239 -10.611  0.00  0.00    -0.082 Cl
ATOM     12  S   UNL     1      33.567 -23.914 -15.480  0.00  0.00    -0.067 S 
ATOM     13  C   UNL     1      34.507 -23.369 -16.775  0.00  0.00    +0.152 C 
ATOM     14  C   UNL     1      35.786 -23.077 -16.443  0.00  0.00    +0.027 C 
ATOM     15  C   UNL     1      36.042 -23.305 -15.050  0.00  0.00    +0.008 C 
ATOM     16  C   UNL     1      34.899 -23.770 -14.394  0.00  0.00    +0.032 C 
ATOM     17  C   UNL     1      37.225 -23.133 -14.292  0.00  0.00    +0.001 C 
ATOM     18  C   UNL     1      34.908 -24.064 -13.016  0.00  0.00    +0.018 C 
ATOM     19  C   UNL     1      37.238 -23.424 -12.925  0.00  0.00    +0.011 C 
ATOM     20  C   UNL     1      36.090 -23.884 -12.296  0.00  0.00    +0.058 C 
ENDBRANCH   8  13
ENDBRANCH   2   8
BRANCH   3  21
ATOM     21  C   UNL     1      36.600 -19.397 -21.712  0.00  0.00    +0.120 C 
BRANCH  21  22
ATOM     22  C   UNL     1      35.877 -18.110 -21.968  0.00  0.00    -0.002 C 
ATOM     23  C   UNL     1      35.447 -17.804 -23.255  0.00  0.00    +0.000 C 
ATOM     24  C   UNL     1      35.642 -17.228 -20.917  0.00  0.00    -0.003 C 
ATOM     25  C   UNL     1      34.775 -16.605 -23.494  0.00  0.00    +0.030 C 
ATOM     26  C   UNL     1      34.971 -16.029 -21.157  0.00  0.00    -0.000 C 
ATOM     27  C   UNL     1      34.537 -15.717 -22.445  0.00  0.00    +0.003 C 
BRANCH  25  30
ATOM     28  N   UNL     1      33.557 -15.142 -25.089  0.00  0.00    -0.343 N 
ATOM     29  N   UNL     1      34.636 -17.072 -25.848  0.00  0.00    -0.285 NA
ATOM     30  C   UNL     1      34.323 -16.279 -24.838  0.00  0.00    +0.117 C 
ATOM     31  H   UNL     1      33.262 -14.941 -26.006  0.00  0.00    +0.144 HD
ATOM     32  H   UNL     1      33.312 -14.541 -24.350  0.00  0.00    +0.144 HD
ATOM     33  H   UNL     1      34.331 -16.853 -26.758  0.00  0.00    +0.188 HD
ENDBRANCH  25  30
ENDBRANCH  21  22
ENDBRANCH   3  21
TORSDOF 5
ENDMDL
