MODEL 1
REMARK VINA RESULT:     -12.2      0.000      0.000
REMARK  Name = 447655
REMARK  6 active torsions:
REMARK  status: ('A' for Active; 'I' for Inactive)
REMARK    1  A    between atoms: N_4  and  C_14
REMARK    2  A    between atoms: C_6  and  O_26
REMARK    3  A    between atoms: C_15  and  S_20
REMARK    4  A    between atoms: S_20  and  N_23
REMARK    5  A    between atoms: O_26  and  C_27
REMARK    6  A    between atoms: C_27  and  C_28
REMARK                            x       y       z     vdW  Elec       q    Type
REMARK                         _______ _______ _______ _____ _____    ______ ____
ROOT
ATOM      1  N   UNL     1      32.509 -23.663 -15.901  0.00  0.00    -0.293 NA
ATOM      2  N   UNL     1      29.200 -22.799 -17.255  0.00  0.00    -0.266 NA
ATOM      3  N   UNL     1      30.649 -24.224 -14.425  0.00  0.00    -0.316 NA
ATOM      4  N   UNL     1      32.864 -24.664 -13.814  0.00  0.00    -0.238 N 
ATOM      5  N   UNL     1      28.467 -23.649 -15.330  0.00  0.00    -0.296 N 
ATOM      6  C   UNL     1      31.670 -23.167 -16.839  0.00  0.00    +0.288 C 
ATOM      7  C   UNL     1      30.316 -23.195 -16.576  0.00  0.00    +0.215 C 
ATOM      8  C   UNL     1      29.836 -23.719 -15.384  0.00  0.00    +0.196 C 
ATOM      9  C   UNL     1      31.953 -24.155 -14.768  0.00  0.00    +0.207 C 
ATOM     10  C   UNL     1      28.116 -23.091 -16.469  0.00  0.00    +0.164 C 
ATOM     11  H   UNL     1      29.177 -22.381 -18.146  0.00  0.00    +0.126 HD
ATOM     12  H   UNL     1      32.433 -25.015 -13.002  0.00  0.00    +0.166 HD
ATOM     13  H   UNL     1      27.877 -23.948 -14.600  0.00  0.00    +0.150 HD
ENDROOT
BRANCH   4  14
ATOM     14  C   UNL     1      34.267 -24.769 -13.801  0.00  0.00    +0.060 C 
ATOM     15  C   UNL     1      36.382 -24.454 -12.670  0.00  0.00    +0.123 C 
ATOM     16  C   UNL     1      34.991 -24.349 -12.683  0.00  0.00    +0.035 C 
ATOM     17  C   UNL     1      34.941 -25.296 -14.906  0.00  0.00    +0.015 C 
ATOM     18  C   UNL     1      37.052 -24.980 -13.775  0.00  0.00    +0.020 C 
ATOM     19  C   UNL     1      36.331 -25.400 -14.893  0.00  0.00    +0.003 C 
BRANCH  15  20
ATOM     20  S   UNL     1      37.285 -23.929 -11.271  0.00  0.00    +0.057 S 
ATOM     21  O   UNL     1      38.495 -24.733 -11.177  0.00  0.00    -0.153 OA
ATOM     22  O   UNL     1      37.383 -22.476 -11.303  0.00  0.00    -0.153 OA
BRANCH  20  23
ATOM     23  N   UNL     1      36.224 -24.379 -10.010  0.00  0.00    -0.203 NA
ATOM     24  H   UNL     1      36.709 -25.002  -9.364  0.00  0.00    +0.144 HD
ATOM     25  H   UNL     1      35.414 -24.859 -10.403  0.00  0.00    +0.144 HD
ENDBRANCH  20  23
ENDBRANCH  15  20
ENDBRANCH   4  14
BRANCH   6  26
ATOM     26  O   UNL     1      32.201 -22.661 -18.000  0.00  0.00    -0.453 OA
BRANCH  26  27
ATOM     27  C   UNL     1      33.561 -22.950 -18.265  0.00  0.00    +0.208 C 
BRANCH  27  28
ATOM     28  C   UNL     1      33.973 -22.211 -19.537  0.00  0.00    +0.044 C 
ATOM     29  C   UNL     1      32.974 -21.093 -19.863  0.00  0.00    +0.004 C 
ATOM     30  C   UNL     1      35.395 -21.650 -19.401  0.00  0.00    +0.004 C 
ATOM     31  C   UNL     1      33.393 -20.305 -21.101  0.00  0.00    +0.000 C 
ATOM     32  C   UNL     1      35.810 -20.861 -20.640  0.00  0.00    +0.000 C 
ATOM     33  C   UNL     1      34.810 -19.756 -20.966  0.00  0.00    +0.000 C 
ENDBRANCH  27  28
ENDBRANCH  26  27
ENDBRANCH   6  26
TORSDOF 6
ENDMDL
MODEL 2
REMARK VINA RESULT:     -12.2      2.113      2.601
REMARK  Name = 447655
REMARK  6 active torsions:
REMARK  status: ('A' for Active; 'I' for Inactive)
REMARK    1  A    between atoms: N_4  and  C_14
REMARK    2  A    between atoms: C_6  and  O_26
REMARK    3  A    between atoms: C_15  and  S_20
REMARK    4  A    between atoms: S_20  and  N_23
REMARK    5  A    between atoms: O_26  and  C_27
REMARK    6  A    between atoms: C_27  and  C_28
REMARK                            x       y       z     vdW  Elec       q    Type
REMARK                         _______ _______ _______ _____ _____    ______ ____
ROOT
ATOM      1  N   UNL     1      33.484 -24.061 -14.742  0.00  0.00    -0.293 NA
ATOM      2  N   UNL     1      30.067 -24.170 -16.100  0.00  0.00    -0.266 NA
ATOM      3  N   UNL     1      31.878 -25.212 -13.312  0.00  0.00    -0.316 NA
ATOM      4  N   UNL     1      34.123 -24.995 -12.692  0.00  0.00    -0.238 N 
ATOM      5  N   UNL     1      29.623 -25.279 -14.218  0.00  0.00    -0.296 N 
ATOM      6  C   UNL     1      32.535 -23.800 -15.669  0.00  0.00    +0.288 C 
ATOM      7  C   UNL     1      31.251 -24.241 -15.424  0.00  0.00    +0.215 C 
ATOM      8  C   UNL     1      30.950 -24.934 -14.259  0.00  0.00    +0.196 C 
ATOM      9  C   UNL     1      33.101 -24.743 -13.636  0.00  0.00    +0.207 C 
ATOM     10  C   UNL     1      29.121 -24.804 -15.338  0.00  0.00    +0.164 C 
ATOM     11  H   UNL     1      29.920 -23.741 -16.974  0.00  0.00    +0.126 HD
ATOM     12  H   UNL     1      33.817 -25.493 -11.900  0.00  0.00    +0.166 HD
ATOM     13  H   UNL     1      29.150 -25.770 -13.508  0.00  0.00    +0.150 HD
ENDROOT
BRANCH   4  14
ATOM     14  C   UNL     1      35.493 -24.676 -12.666  0.00  0.00    +0.060 C 
ATOM     15  C   UNL     1      37.750 -25.055 -13.452  0.00  0.00    +0.123 C 
ATOM     16  C   UNL     1      36.392 -25.372 -13.478  0.00  0.00    +0.035 C 
ATOM     17  C   UNL     1      35.960 -23.659 -11.829  0.00  0.00    +0.015 C 
ATOM     18  C   UNL     1      38.213 -24.039 -12.615  0.00  0.00    +0.020 C 
ATOM     19  C   UNL     1      37.317 -23.342 -11.803  0.00  0.00    +0.003 C 
BRANCH  15  20
ATOM     20  S   UNL     1      38.871 -25.926 -14.468  0.00  0.00    +0.057 S 
ATOM     21  O   UNL     1      39.952 -26.428 -13.632  0.00  0.00    -0.153 OA
ATOM     22  O   UNL     1      38.115 -26.848 -15.304  0.00  0.00    -0.153 OA
BRANCH  20  23
ATOM     23  N   UNL     1      39.472 -24.663 -15.449  0.00  0.00    -0.203 NA
ATOM     24  H   UNL     1      39.567 -24.995 -16.409  0.00  0.00    +0.144 HD
ATOM     25  H   UNL     1      40.383 -24.366 -15.100  0.00  0.00    +0.144 HD
ENDBRANCH  20  23
ENDBRANCH  15  20
ENDBRANCH   4  14
BRANCH   6  26
ATOM     26  O   UNL     1      32.889 -23.110 -16.803  0.00  0.00    -0.453 OA
BRANCH  26  27
ATOM     27  C   UNL     1      34.176 -23.364 -17.335  0.00  0.00    +0.208 C 
BRANCH  27  28
ATOM     28  C   UNL     1      34.253 -22.748 -18.730  0.00  0.00    +0.044 C 
ATOM     29  C   UNL     1      33.054 -21.824 -18.982  0.00  0.00    +0.004 C 
ATOM     30  C   UNL     1      35.575 -21.989 -18.915  0.00  0.00    +0.004 C 
ATOM     31  C   UNL     1      33.137 -21.153 -20.351  0.00  0.00    +0.000 C 
ATOM     32  C   UNL     1      35.653 -21.319 -20.284  0.00  0.00    +0.000 C 
ATOM     33  C   UNL     1      34.455 -20.408 -20.534  0.00  0.00    +0.000 C 
ENDBRANCH  27  28
ENDBRANCH  26  27
ENDBRANCH   6  26
TORSDOF 6
ENDMDL
MODEL 3
REMARK VINA RESULT:     -12.0      2.322      2.756
REMARK  Name = 447655
REMARK  6 active torsions:
REMARK  status: ('A' for Active; 'I' for Inactive)
REMARK    1  A    between atoms: N_4  and  C_14
REMARK    2  A    between atoms: C_6  and  O_26
REMARK    3  A    between atoms: C_15  and  S_20
REMARK    4  A    between atoms: S_20  and  N_23
REMARK    5  A    between atoms: O_26  and  C_27
REMARK    6  A    between atoms: C_27  and  C_28
REMARK                            x       y       z     vdW  Elec       q    Type
REMARK                         _______ _______ _______ _____ _____    ______ ____
ROOT
ATOM      1  N   UNL     1      33.429 -23.217 -16.594  0.00  0.00    -0.293 NA
ATOM      2  N   UNL     1      29.804 -22.856 -17.097  0.00  0.00    -0.266 NA
ATOM      3  N   UNL     1      32.088 -23.806 -14.643  0.00  0.00    -0.316 NA
ATOM      4  N   UNL     1      34.422 -23.943 -14.601  0.00  0.00    -0.238 N 
ATOM      5  N   UNL     1      29.693 -23.564 -14.987  0.00  0.00    -0.296 N 
ATOM      6  C   UNL     1      32.326 -22.916 -17.315  0.00  0.00    +0.288 C 
ATOM      7  C   UNL     1      31.096 -23.057 -16.706  0.00  0.00    +0.215 C 
ATOM      8  C   UNL     1      31.002 -23.496 -15.392  0.00  0.00    +0.196 C 
ATOM      9  C   UNL     1      33.244 -23.638 -15.320  0.00  0.00    +0.207 C 
ATOM     10  C   UNL     1      28.999 -23.173 -16.035  0.00  0.00    +0.164 C 
ATOM     11  H   UNL     1      29.505 -22.542 -17.981  0.00  0.00    +0.126 HD
ATOM     12  H   UNL     1      34.257 -24.247 -13.679  0.00  0.00    +0.166 HD
ATOM     13  H   UNL     1      29.348 -23.843 -14.108  0.00  0.00    +0.150 HD
ENDROOT
BRANCH   4  14
ATOM     14  C   UNL     1      35.785 -23.897 -14.947  0.00  0.00    +0.060 C 
ATOM     15  C   UNL     1      37.972 -24.932 -14.996  0.00  0.00    +0.123 C 
ATOM     16  C   UNL     1      36.620 -24.977 -14.652  0.00  0.00    +0.035 C 
ATOM     17  C   UNL     1      36.308 -22.771 -15.589  0.00  0.00    +0.015 C 
ATOM     18  C   UNL     1      38.490 -23.806 -15.637  0.00  0.00    +0.020 C 
ATOM     19  C   UNL     1      37.658 -22.726 -15.933  0.00  0.00    +0.003 C 
BRANCH  15  20
ATOM     20  S   UNL     1      39.013 -26.283 -14.627  0.00  0.00    +0.057 S 
ATOM     21  O   UNL     1      39.540 -26.102 -13.282  0.00  0.00    -0.153 OA
ATOM     22  O   UNL     1      38.313 -27.513 -14.971  0.00  0.00    -0.153 OA
BRANCH  20  23
ATOM     23  N   UNL     1      40.276 -26.038 -15.752  0.00  0.00    -0.203 NA
ATOM     24  H   UNL     1      40.482 -26.917 -16.227  0.00  0.00    +0.144 HD
ATOM     25  H   UNL     1      41.109 -25.713 -15.261  0.00  0.00    +0.144 HD
ENDBRANCH  20  23
ENDBRANCH  15  20
ENDBRANCH   4  14
BRANCH   6  26
ATOM     26  O   UNL     1      32.479 -22.486 -18.610  0.00  0.00    -0.453 OA
BRANCH  26  27
ATOM     27  C   UNL     1      33.706 -22.786 -19.247  0.00  0.00    +0.208 C 
BRANCH  27  28
ATOM     28  C   UNL     1      34.426 -21.474 -19.553  0.00  0.00    +0.044 C 
ATOM     29  C   UNL     1      35.906 -21.729 -19.869  0.00  0.00    +0.004 C 
ATOM     30  C   UNL     1      33.740 -20.737 -20.711  0.00  0.00    +0.004 C 
ATOM     31  C   UNL     1      36.636 -20.437 -20.231  0.00  0.00    +0.000 C 
ATOM     32  C   UNL     1      34.473 -19.447 -21.071  0.00  0.00    +0.000 C 
ATOM     33  C   UNL     1      35.946 -19.703 -21.376  0.00  0.00    +0.000 C 
ENDBRANCH  27  28
ENDBRANCH  26  27
ENDBRANCH   6  26
TORSDOF 6
ENDMDL
MODEL 4
REMARK VINA RESULT:     -11.8      2.498      5.212
REMARK  Name = 447655
REMARK  6 active torsions:
REMARK  status: ('A' for Active; 'I' for Inactive)
REMARK    1  A    between atoms: N_4  and  C_14
REMARK    2  A    between atoms: C_6  and  O_26
REMARK    3  A    between atoms: C_15  and  S_20
REMARK    4  A    between atoms: S_20  and  N_23
REMARK    5  A    between atoms: O_26  and  C_27
REMARK    6  A    between atoms: C_27  and  C_28
REMARK                            x       y       z     vdW  Elec       q    Type
REMARK                         _______ _______ _______ _____ _____    ______ ____
ROOT
ATOM      1  N   UNL     1      35.468 -23.530 -16.415  0.00  0.00    -0.293 NA
ATOM      2  N   UNL     1      33.716 -21.947 -19.234  0.00  0.00    -0.266 NA
ATOM      3  N   UNL     1      36.904 -22.176 -17.848  0.00  0.00    -0.316 NA
ATOM      4  N   UNL     1      37.758 -23.297 -15.982  0.00  0.00    -0.238 N 
ATOM      5  N   UNL     1      35.736 -21.133 -19.708  0.00  0.00    -0.296 N 
ATOM      6  C   UNL     1      34.381 -23.252 -17.169  0.00  0.00    +0.288 C 
ATOM      7  C   UNL     1      34.547 -22.435 -18.268  0.00  0.00    +0.215 C 
ATOM      8  C   UNL     1      35.796 -21.916 -18.584  0.00  0.00    +0.196 C 
ATOM      9  C   UNL     1      36.646 -22.982 -16.797  0.00  0.00    +0.207 C 
ATOM     10  C   UNL     1      34.472 -21.173 -20.075  0.00  0.00    +0.164 C 
ATOM     11  H   UNL     1      32.750 -22.119 -19.313  0.00  0.00    +0.126 HD
ATOM     12  H   UNL     1      38.600 -22.884 -16.281  0.00  0.00    +0.166 HD
ATOM     13  H   UNL     1      36.474 -20.649 -20.145  0.00  0.00    +0.150 HD
ENDROOT
BRANCH   4  14
ATOM     14  C   UNL     1      37.895 -24.085 -14.824  0.00  0.00    +0.060 C 
ATOM     15  C   UNL     1      37.247 -24.604 -12.552  0.00  0.00    +0.123 C 
ATOM     16  C   UNL     1      37.111 -23.821 -13.699  0.00  0.00    +0.035 C 
ATOM     17  C   UNL     1      38.815 -25.137 -14.798  0.00  0.00    +0.015 C 
ATOM     18  C   UNL     1      38.166 -25.653 -12.528  0.00  0.00    +0.020 C 
ATOM     19  C   UNL     1      38.950 -25.919 -13.651  0.00  0.00    +0.003 C 
BRANCH  15  20
ATOM     20  S   UNL     1      36.266 -24.272 -11.147  0.00  0.00    +0.057 S 
ATOM     21  O   UNL     1      35.942 -25.537 -10.504  0.00  0.00    -0.153 OA
ATOM     22  O   UNL     1      36.903 -23.212 -10.378  0.00  0.00    -0.153 OA
BRANCH  20  23
ATOM     23  N   UNL     1      34.853 -23.646 -11.875  0.00  0.00    -0.203 NA
ATOM     24  H   UNL     1      34.529 -24.291 -12.596  0.00  0.00    +0.144 HD
ATOM     25  H   UNL     1      35.061 -22.741 -12.297  0.00  0.00    +0.144 HD
ENDBRANCH  20  23
ENDBRANCH  15  20
ENDBRANCH   4  14
BRANCH   6  26
ATOM     26  O   UNL     1      33.171 -23.793 -16.810  0.00  0.00    -0.453 OA
BRANCH  26  27
ATOM     27  C   UNL     1      32.832 -23.758 -15.437  0.00  0.00    +0.208 C 
BRANCH  27  28
ATOM     28  C   UNL     1      31.311 -23.686 -15.315  0.00  0.00    +0.044 C 
ATOM     29  C   UNL     1      30.693 -23.086 -16.585  0.00  0.00    +0.004 C 
ATOM     30  C   UNL     1      30.725 -25.074 -15.026  0.00  0.00    +0.004 C 
ATOM     31  C   UNL     1      29.169 -23.052 -16.509  0.00  0.00    +0.000 C 
ATOM     32  C   UNL     1      29.200 -25.037 -14.952  0.00  0.00    +0.000 C 
ATOM     33  C   UNL     1      28.590 -24.432 -16.212  0.00  0.00    +0.000 C 
ENDBRANCH  27  28
ENDBRANCH  26  27
ENDBRANCH   6  26
TORSDOF 6
ENDMDL
MODEL 5
REMARK VINA RESULT:     -11.3      2.715      5.543
REMARK  Name = 447655
REMARK  6 active torsions:
REMARK  status: ('A' for Active; 'I' for Inactive)
REMARK    1  A    between atoms: N_4  and  C_14
REMARK    2  A    between atoms: C_6  and  O_26
REMARK    3  A    between atoms: C_15  and  S_20
REMARK    4  A    between atoms: S_20  and  N_23
REMARK    5  A    between atoms: O_26  and  C_27
REMARK    6  A    between atoms: C_27  and  C_28
REMARK                            x       y       z     vdW  Elec       q    Type
REMARK                         _______ _______ _______ _____ _____    ______ ____
ROOT
ATOM      1  N   UNL     1      35.423 -23.505 -16.810  0.00  0.00    -0.293 NA
ATOM      2  N   UNL     1      34.281 -21.616 -19.752  0.00  0.00    -0.266 NA
ATOM      3  N   UNL     1      37.113 -22.027 -17.764  0.00  0.00    -0.316 NA
ATOM      4  N   UNL     1      37.570 -23.346 -15.888  0.00  0.00    -0.238 N 
ATOM      5  N   UNL     1      36.347 -20.782 -19.707  0.00  0.00    -0.296 N 
ATOM      6  C   UNL     1      34.515 -23.137 -17.740  0.00  0.00    +0.288 C 
ATOM      7  C   UNL     1      34.898 -22.212 -18.689  0.00  0.00    +0.215 C 
ATOM      8  C   UNL     1      36.180 -21.678 -18.683  0.00  0.00    +0.196 C 
ATOM      9  C   UNL     1      36.650 -22.934 -16.879  0.00  0.00    +0.207 C 
ATOM     10  C   UNL     1      35.188 -20.768 -20.331  0.00  0.00    +0.164 C 
ATOM     11  H   UNL     1      33.354 -21.766 -20.047  0.00  0.00    +0.126 HD
ATOM     12  H   UNL     1      38.452 -22.915 -15.961  0.00  0.00    +0.166 HD
ATOM     13  H   UNL     1      37.155 -20.265 -19.929  0.00  0.00    +0.150 HD
ENDROOT
BRANCH   4  14
ATOM     14  C   UNL     1      37.471 -24.252 -14.816  0.00  0.00    +0.060 C 
ATOM     15  C   UNL     1      36.654 -24.805 -12.607  0.00  0.00    +0.123 C 
ATOM     16  C   UNL     1      36.753 -23.906 -13.669  0.00  0.00    +0.035 C 
ATOM     17  C   UNL     1      38.088 -25.503 -14.896  0.00  0.00    +0.015 C 
ATOM     18  C   UNL     1      37.272 -26.053 -12.690  0.00  0.00    +0.020 C 
ATOM     19  C   UNL     1      37.989 -26.401 -13.834  0.00  0.00    +0.003 C 
BRANCH  15  20
ATOM     20  S   UNL     1      35.757 -24.369 -11.174  0.00  0.00    +0.057 S 
ATOM     21  O   UNL     1      34.585 -23.607 -11.581  0.00  0.00    -0.153 OA
ATOM     22  O   UNL     1      35.595 -25.560 -10.351  0.00  0.00    -0.153 OA
BRANCH  20  23
ATOM     23  N   UNL     1      36.861 -23.317 -10.404  0.00  0.00    -0.203 NA
ATOM     24  H   UNL     1      36.468 -22.376 -10.374  0.00  0.00    +0.144 HD
ATOM     25  H   UNL     1      37.737 -23.304 -10.926  0.00  0.00    +0.144 HD
ENDBRANCH  20  23
ENDBRANCH  15  20
ENDBRANCH   4  14
BRANCH   6  26
ATOM     26  O   UNL     1      33.261 -23.697 -17.700  0.00  0.00    -0.453 OA
BRANCH  26  27
ATOM     27  C   UNL     1      32.307 -23.077 -16.859  0.00  0.00    +0.208 C 
BRANCH  27  28
ATOM     28  C   UNL     1      31.781 -24.118 -15.873  0.00  0.00    +0.044 C 
ATOM     29  C   UNL     1      32.600 -24.098 -14.574  0.00  0.00    +0.004 C 
ATOM     30  C   UNL     1      30.292 -23.888 -15.582  0.00  0.00    +0.004 C 
ATOM     31  C   UNL     1      32.060 -25.094 -13.552  0.00  0.00    +0.000 C 
ATOM     32  C   UNL     1      29.757 -24.885 -14.558  0.00  0.00    +0.000 C 
ATOM     33  C   UNL     1      30.578 -24.868 -13.273  0.00  0.00    +0.000 C 
ENDBRANCH  27  28
ENDBRANCH  26  27
ENDBRANCH   6  26
TORSDOF 6
ENDMDL
MODEL 6
REMARK VINA RESULT:     -10.9      3.912      7.897
REMARK  Name = 447655
REMARK  6 active torsions:
REMARK  status: ('A' for Active; 'I' for Inactive)
REMARK    1  A    between atoms: N_4  and  C_14
REMARK    2  A    between atoms: C_6  and  O_26
REMARK    3  A    between atoms: C_15  and  S_20
REMARK    4  A    between atoms: S_20  and  N_23
REMARK    5  A    between atoms: O_26  and  C_27
REMARK    6  A    between atoms: C_27  and  C_28
REMARK                            x       y       z     vdW  Elec       q    Type
REMARK                         _______ _______ _______ _____ _____    ______ ____
ROOT
ATOM      1  N   UNL     1      35.190 -23.444 -16.240  0.00  0.00    -0.293 NA
ATOM      2  N   UNL     1      35.908 -25.314 -13.156  0.00  0.00    -0.266 NA
ATOM      3  N   UNL     1      37.550 -23.481 -15.622  0.00  0.00    -0.316 NA
ATOM      4  N   UNL     1      36.811 -22.363 -17.540  0.00  0.00    -0.238 N 
ATOM      5  N   UNL     1      38.013 -24.720 -13.582  0.00  0.00    -0.296 N 
ATOM      6  C   UNL     1      34.853 -24.188 -15.163  0.00  0.00    +0.288 C 
ATOM      7  C   UNL     1      35.860 -24.583 -14.308  0.00  0.00    +0.215 C 
ATOM      8  C   UNL     1      37.179 -24.225 -14.552  0.00  0.00    +0.196 C 
ATOM      9  C   UNL     1      36.501 -23.142 -16.401  0.00  0.00    +0.207 C 
ATOM     10  C   UNL     1      37.218 -25.369 -12.758  0.00  0.00    +0.164 C 
ATOM     11  H   UNL     1      35.142 -25.727 -12.695  0.00  0.00    +0.126 HD
ATOM     12  H   UNL     1      37.770 -22.159 -17.632  0.00  0.00    +0.166 HD
ATOM     13  H   UNL     1      38.990 -24.613 -13.516  0.00  0.00    +0.150 HD
ENDROOT
BRANCH   4  14
ATOM     14  C   UNL     1      36.017 -21.824 -18.568  0.00  0.00    +0.060 C 
ATOM     15  C   UNL     1      35.740 -20.291 -20.419  0.00  0.00    +0.123 C 
ATOM     16  C   UNL     1      36.528 -20.825 -19.399  0.00  0.00    +0.035 C 
ATOM     17  C   UNL     1      34.714 -22.290 -18.764  0.00  0.00    +0.015 C 
ATOM     18  C   UNL     1      34.439 -20.758 -20.612  0.00  0.00    +0.020 C 
ATOM     19  C   UNL     1      33.927 -21.757 -19.784  0.00  0.00    +0.003 C 
BRANCH  15  20
ATOM     20  S   UNL     1      36.381 -19.042 -21.456  0.00  0.00    +0.057 S 
ATOM     21  O   UNL     1      37.830 -19.032 -21.321  0.00  0.00    -0.153 OA
ATOM     22  O   UNL     1      35.777 -19.181 -22.774  0.00  0.00    -0.153 OA
BRANCH  20  23
ATOM     23  N   UNL     1      35.747 -17.641 -20.709  0.00  0.00    -0.203 NA
ATOM     24  H   UNL     1      36.512 -17.088 -20.322  0.00  0.00    +0.144 HD
ATOM     25  H   UNL     1      35.112 -17.914 -19.959  0.00  0.00    +0.144 HD
ENDBRANCH  20  23
ENDBRANCH  15  20
ENDBRANCH   4  14
BRANCH   6  26
ATOM     26  O   UNL     1      33.532 -24.512 -14.971  0.00  0.00    -0.453 OA
BRANCH  26  27
ATOM     27  C   UNL     1      32.811 -23.742 -14.027  0.00  0.00    +0.208 C 
BRANCH  27  28
ATOM     28  C   UNL     1      31.331 -23.779 -14.402  0.00  0.00    +0.044 C 
ATOM     29  C   UNL     1      31.115 -23.228 -15.818  0.00  0.00    +0.004 C 
ATOM     30  C   UNL     1      30.777 -25.206 -14.282  0.00  0.00    +0.004 C 
ATOM     31  C   UNL     1      29.649 -23.304 -16.236  0.00  0.00    +0.000 C 
ATOM     32  C   UNL     1      29.312 -25.278 -14.702  0.00  0.00    +0.000 C 
ATOM     33  C   UNL     1      29.100 -24.721 -16.106  0.00  0.00    +0.000 C 
ENDBRANCH  27  28
ENDBRANCH  26  27
ENDBRANCH   6  26
TORSDOF 6
ENDMDL
MODEL 7
REMARK VINA RESULT:     -10.8      3.364      5.798
REMARK  Name = 447655
REMARK  6 active torsions:
REMARK  status: ('A' for Active; 'I' for Inactive)
REMARK    1  A    between atoms: N_4  and  C_14
REMARK    2  A    between atoms: C_6  and  O_26
REMARK    3  A    between atoms: C_15  and  S_20
REMARK    4  A    between atoms: S_20  and  N_23
REMARK    5  A    between atoms: O_26  and  C_27
REMARK    6  A    between atoms: C_27  and  C_28
REMARK                            x       y       z     vdW  Elec       q    Type
REMARK                         _______ _______ _______ _____ _____    ______ ____
ROOT
ATOM      1  N   UNL     1      35.258 -22.545 -17.729  0.00  0.00    -0.293 NA
ATOM      2  N   UNL     1      33.718 -20.988 -20.684  0.00  0.00    -0.266 NA
ATOM      3  N   UNL     1      36.742 -21.047 -18.955  0.00  0.00    -0.316 NA
ATOM      4  N   UNL     1      37.463 -22.171 -17.034  0.00  0.00    -0.238 N 
ATOM      5  N   UNL     1      35.715 -20.023 -20.905  0.00  0.00    -0.296 N 
ATOM      6  C   UNL     1      34.244 -22.316 -18.593  0.00  0.00    +0.288 C 
ATOM      7  C   UNL     1      34.471 -21.451 -19.644  0.00  0.00    +0.215 C 
ATOM      8  C   UNL     1      35.707 -20.838 -19.803  0.00  0.00    +0.196 C 
ATOM      9  C   UNL     1      36.429 -21.904 -17.960  0.00  0.00    +0.207 C 
ATOM     10  C   UNL     1      34.506 -20.136 -21.413  0.00  0.00    +0.164 C 
ATOM     11  H   UNL     1      32.782 -21.223 -20.876  0.00  0.00    +0.126 HD
ATOM     12  H   UNL     1      38.301 -21.691 -17.226  0.00  0.00    +0.166 HD
ATOM     13  H   UNL     1      36.460 -19.475 -21.244  0.00  0.00    +0.150 HD
ENDROOT
BRANCH   4  14
ATOM     14  C   UNL     1      37.527 -22.987 -15.890  0.00  0.00    +0.060 C 
ATOM     15  C   UNL     1      38.492 -24.861 -14.702  0.00  0.00    +0.123 C 
ATOM     16  C   UNL     1      38.429 -24.052 -15.837  0.00  0.00    +0.035 C 
ATOM     17  C   UNL     1      36.689 -22.733 -14.800  0.00  0.00    +0.015 C 
ATOM     18  C   UNL     1      37.655 -24.605 -13.616  0.00  0.00    +0.020 C 
ATOM     19  C   UNL     1      36.753 -23.541 -13.666  0.00  0.00    +0.003 C 
BRANCH  15  20
ATOM     20  S   UNL     1      39.621 -26.191 -14.639  0.00  0.00    +0.057 S 
ATOM     21  O   UNL     1      40.579 -25.930 -13.575  0.00  0.00    -0.153 OA
ATOM     22  O   UNL     1      38.866 -27.437 -14.643  0.00  0.00    -0.153 OA
BRANCH  20  23
ATOM     23  N   UNL     1      40.409 -26.023 -16.146  0.00  0.00    -0.203 NA
ATOM     24  H   UNL     1      40.258 -25.080 -16.504  0.00  0.00    +0.144 HD
ATOM     25  H   UNL     1      40.029 -26.702 -16.805  0.00  0.00    +0.144 HD
ENDBRANCH  20  23
ENDBRANCH  15  20
ENDBRANCH   4  14
BRANCH   6  26
ATOM     26  O   UNL     1      33.043 -22.950 -18.387  0.00  0.00    -0.453 OA
BRANCH  26  27
ATOM     27  C   UNL     1      33.012 -23.964 -17.401  0.00  0.00    +0.208 C 
BRANCH  27  28
ATOM     28  C   UNL     1      32.349 -23.399 -16.146  0.00  0.00    +0.044 C 
ATOM     29  C   UNL     1      30.851 -23.730 -16.128  0.00  0.00    +0.004 C 
ATOM     30  C   UNL     1      33.040 -23.928 -14.883  0.00  0.00    +0.004 C 
ATOM     31  C   UNL     1      30.176 -23.221 -14.857  0.00  0.00    +0.000 C 
ATOM     32  C   UNL     1      32.361 -23.419 -13.614  0.00  0.00    +0.000 C 
ATOM     33  C   UNL     1      30.871 -23.742 -13.603  0.00  0.00    +0.000 C 
ENDBRANCH  27  28
ENDBRANCH  26  27
ENDBRANCH   6  26
TORSDOF 6
ENDMDL
MODEL 8
REMARK VINA RESULT:     -10.6      3.738      7.523
REMARK  Name = 447655
REMARK  6 active torsions:
REMARK  status: ('A' for Active; 'I' for Inactive)
REMARK    1  A    between atoms: N_4  and  C_14
REMARK    2  A    between atoms: C_6  and  O_26
REMARK    3  A    between atoms: C_15  and  S_20
REMARK    4  A    between atoms: S_20  and  N_23
REMARK    5  A    between atoms: O_26  and  C_27
REMARK    6  A    between atoms: C_27  and  C_28
REMARK                            x       y       z     vdW  Elec       q    Type
REMARK                         _______ _______ _______ _____ _____    ______ ____
ROOT
ATOM      1  N   UNL     1      33.668 -22.974 -16.911  0.00  0.00    -0.293 NA
ATOM      2  N   UNL     1      31.501 -24.565 -14.401  0.00  0.00    -0.266 NA
ATOM      3  N   UNL     1      31.304 -23.007 -17.511  0.00  0.00    -0.316 NA
ATOM      4  N   UNL     1      32.906 -22.056 -18.926  0.00  0.00    -0.238 N 
ATOM      5  N   UNL     1      29.881 -24.060 -15.845  0.00  0.00    -0.296 N 
ATOM      6  C   UNL     1      33.423 -23.605 -15.741  0.00  0.00    +0.288 C 
ATOM      7  C   UNL     1      32.118 -23.943 -15.447  0.00  0.00    +0.215 C 
ATOM      8  C   UNL     1      31.092 -23.639 -16.331  0.00  0.00    +0.196 C 
ATOM      9  C   UNL     1      32.607 -22.717 -17.712  0.00  0.00    +0.207 C 
ATOM     10  C   UNL     1      30.161 -24.613 -14.684  0.00  0.00    +0.164 C 
ATOM     11  H   UNL     1      31.938 -24.915 -13.591  0.00  0.00    +0.126 HD
ATOM     12  H   UNL     1      32.116 -21.882 -19.487  0.00  0.00    +0.166 HD
ATOM     13  H   UNL     1      28.997 -23.971 -16.270  0.00  0.00    +0.150 HD
ENDROOT
BRANCH   4  14
ATOM     14  C   UNL     1      34.112 -21.598 -19.486  0.00  0.00    +0.060 C 
ATOM     15  C   UNL     1      35.305 -20.058 -20.921  0.00  0.00    +0.123 C 
ATOM     16  C   UNL     1      34.109 -20.513 -20.366  0.00  0.00    +0.035 C 
ATOM     17  C   UNL     1      35.318 -22.225 -19.163  0.00  0.00    +0.015 C 
ATOM     18  C   UNL     1      36.508 -20.687 -20.596  0.00  0.00    +0.020 C 
ATOM     19  C   UNL     1      36.514 -21.770 -19.717  0.00  0.00    +0.003 C 
BRANCH  15  20
ATOM     20  S   UNL     1      35.299 -18.702 -22.020  0.00  0.00    +0.057 S 
ATOM     21  O   UNL     1      34.483 -19.050 -23.174  0.00  0.00    -0.153 OA
ATOM     22  O   UNL     1      35.003 -17.494 -21.261  0.00  0.00    -0.153 OA
BRANCH  20  23
ATOM     23  N   UNL     1      36.940 -18.660 -22.496  0.00  0.00    -0.203 NA
ATOM     24  H   UNL     1      37.425 -19.471 -22.113  0.00  0.00    +0.144 HD
ATOM     25  H   UNL     1      37.374 -17.807 -22.145  0.00  0.00    +0.144 HD
ENDBRANCH  20  23
ENDBRANCH  15  20
ENDBRANCH   4  14
BRANCH   6  26
ATOM     26  O   UNL     1      34.478 -23.881 -14.904  0.00  0.00    -0.453 OA
BRANCH  26  27
ATOM     27  C   UNL     1      35.762 -23.467 -15.330  0.00  0.00    +0.208 C 
BRANCH  27  28
ATOM     28  C   UNL     1      36.805 -24.356 -14.656  0.00  0.00    +0.044 C 
ATOM     29  C   UNL     1      36.962 -23.981 -13.176  0.00  0.00    +0.004 C 
ATOM     30  C   UNL     1      36.434 -25.837 -14.807  0.00  0.00    +0.004 C 
ATOM     31  C   UNL     1      37.961 -24.891 -12.466  0.00  0.00    +0.000 C 
ATOM     32  C   UNL     1      37.435 -26.744 -14.094  0.00  0.00    +0.000 C 
ATOM     33  C   UNL     1      37.594 -26.363 -12.626  0.00  0.00    +0.000 C 
ENDBRANCH  27  28
ENDBRANCH  26  27
ENDBRANCH   6  26
TORSDOF 6
ENDMDL
MODEL 9
REMARK VINA RESULT:      -9.8      2.978      6.814
REMARK  Name = 447655
REMARK  6 active torsions:
REMARK  status: ('A' for Active; 'I' for Inactive)
REMARK    1  A    between atoms: N_4  and  C_14
REMARK    2  A    between atoms: C_6  and  O_26
REMARK    3  A    between atoms: C_15  and  S_20
REMARK    4  A    between atoms: S_20  and  N_23
REMARK    5  A    between atoms: O_26  and  C_27
REMARK    6  A    between atoms: C_27  and  C_28
REMARK                            x       y       z     vdW  Elec       q    Type
REMARK                         _______ _______ _______ _____ _____    ______ ____
ROOT
ATOM      1  N   UNL     1      33.636 -23.026 -17.150  0.00  0.00    -0.293 NA
ATOM      2  N   UNL     1      36.656 -21.946 -18.949  0.00  0.00    -0.266 NA
ATOM      3  N   UNL     1      33.185 -21.778 -19.196  0.00  0.00    -0.316 NA
ATOM      4  N   UNL     1      31.447 -22.585 -17.856  0.00  0.00    -0.238 N 
ATOM      5  N   UNL     1      35.188 -21.069 -20.378  0.00  0.00    -0.296 N 
ATOM      6  C   UNL     1      34.971 -22.924 -17.331  0.00  0.00    +0.288 C 
ATOM      7  C   UNL     1      35.424 -22.247 -18.445  0.00  0.00    +0.215 C 
ATOM      8  C   UNL     1      34.528 -21.692 -19.350  0.00  0.00    +0.196 C 
ATOM      9  C   UNL     1      32.836 -22.455 -18.082  0.00  0.00    +0.207 C 
ATOM     10  C   UNL     1      36.464 -21.239 -20.108  0.00  0.00    +0.164 C 
ATOM     11  H   UNL     1      37.523 -22.191 -18.554  0.00  0.00    +0.126 HD
ATOM     12  H   UNL     1      30.890 -22.162 -18.549  0.00  0.00    +0.166 HD
ATOM     13  H   UNL     1      34.794 -20.598 -21.148  0.00  0.00    +0.150 HD
ENDROOT
BRANCH   4  14
ATOM     14  C   UNL     1      30.704 -23.204 -16.834  0.00  0.00    +0.060 C 
ATOM     15  C   UNL     1      30.557 -24.075 -14.581  0.00  0.00    +0.123 C 
ATOM     16  C   UNL     1      31.295 -23.462 -15.595  0.00  0.00    +0.035 C 
ATOM     17  C   UNL     1      29.371 -23.561 -17.054  0.00  0.00    +0.015 C 
ATOM     18  C   UNL     1      29.227 -24.430 -14.804  0.00  0.00    +0.020 C 
ATOM     19  C   UNL     1      28.634 -24.173 -16.041  0.00  0.00    +0.003 C 
BRANCH  15  20
ATOM     20  S   UNL     1      31.298 -24.397 -13.034  0.00  0.00    +0.057 S 
ATOM     21  O   UNL     1      30.299 -24.190 -11.995  0.00  0.00    -0.153 OA
ATOM     22  O   UNL     1      32.005 -25.667 -13.115  0.00  0.00    -0.153 OA
BRANCH  20  23
ATOM     23  N   UNL     1      32.447 -23.135 -12.954  0.00  0.00    -0.203 NA
ATOM     24  H   UNL     1      32.865 -22.998 -13.874  0.00  0.00    +0.144 HD
ATOM     25  H   UNL     1      33.175 -23.381 -12.283  0.00  0.00    +0.144 HD
ENDBRANCH  20  23
ENDBRANCH  15  20
ENDBRANCH   4  14
BRANCH   6  26
ATOM     26  O   UNL     1      35.811 -23.492 -16.404  0.00  0.00    -0.453 OA
BRANCH  26  27
ATOM     27  C   UNL     1      35.567 -23.188 -15.044  0.00  0.00    +0.208 C 
BRANCH  27  28
ATOM     28  C   UNL     1      35.809 -24.448 -14.216  0.00  0.00    +0.044 C 
ATOM     29  C   UNL     1      36.904 -25.314 -14.853  0.00  0.00    +0.004 C 
ATOM     30  C   UNL     1      36.172 -24.085 -12.770  0.00  0.00    +0.004 C 
ATOM     31  C   UNL     1      37.201 -26.555 -14.014  0.00  0.00    +0.000 C 
ATOM     32  C   UNL     1      36.470 -25.328 -11.935  0.00  0.00    +0.000 C 
ATOM     33  C   UNL     1      37.553 -26.190 -12.575  0.00  0.00    +0.000 C 
ENDBRANCH  27  28
ENDBRANCH  26  27
ENDBRANCH   6  26
TORSDOF 6
ENDMDL
