MODEL 1
REMARK VINA RESULT:     -12.0      0.000      0.000
REMARK  Name = 71245288
REMARK  5 active torsions:
REMARK  status: ('A' for Active; 'I' for Inactive)
REMARK    1  A    between atoms: C_3  and  C_9
REMARK    2  A    between atoms: C_6  and  N_14
REMARK    3  A    between atoms: C_15  and  C_18
REMARK    4  A    between atoms: C_22  and  C_30
REMARK    5  A    between atoms: N_27  and  C_32
REMARK                            x       y       z     vdW  Elec       q    Type
REMARK                         _______ _______ _______ _____ _____    ______ ____
ROOT
ATOM      1  O   UNL     1      34.399 -18.863 -24.422  0.00  0.00    -0.270 OA
ATOM      2  N   UNL     1      34.658 -16.883 -23.188  0.00  0.00    -0.259 N 
ATOM      3  C   UNL     1      34.749 -18.268 -23.391  0.00  0.00    +0.253 C 
ATOM      4  H   UNL     1      34.976 -16.557 -22.316  0.00  0.00    +0.157 HD
ATOM      5  N   UNL     1      34.172 -14.605 -23.669  0.00  0.00    -0.388 NA
ATOM      6  C   UNL     1      33.694 -13.696 -24.548  0.00  0.00    +0.166 C 
ATOM      7  C   UNL     1      34.167 -15.894 -24.074  0.00  0.00    +0.167 C 
ATOM      8  C   UNL     1      33.215 -14.016 -25.809  0.00  0.00    +0.031 C 
ATOM      9  C   UNL     1      33.710 -16.316 -25.313  0.00  0.00    +0.101 C 
ATOM     10  C   UNL     1      33.226 -15.352 -26.191  0.00  0.00    -0.015 C 
ENDROOT
BRANCH   3  15
ATOM     11  F   UNL     1      37.496 -18.208 -22.808  0.00  0.00    -0.204 F 
ATOM     12  C   UNL     1      35.060 -20.563 -20.446  0.00  0.00    +0.046 C 
ATOM     13  C   UNL     1      36.431 -20.501 -20.196  0.00  0.00    -0.006 C 
ATOM     14  C   UNL     1      34.508 -19.829 -21.497  0.00  0.00    +0.021 C 
ATOM     15  C   UNL     1      35.328 -19.032 -22.297  0.00  0.00    +0.082 C 
ATOM     16  C   UNL     1      37.250 -19.705 -20.996  0.00  0.00    +0.027 C 
ATOM     17  C   UNL     1      37.055 -21.276 -19.080  0.00  0.00    +0.032 C 
ATOM     18  C   UNL     1      36.698 -18.971 -22.046  0.00  0.00    +0.144 C 
BRANCH  12  20
ATOM     19  N   UNL     1      32.359 -22.202 -18.823  0.00  0.00    -0.255 NA
ATOM     20  N   UNL     1      34.229 -21.348 -19.664  0.00  0.00    -0.282 N 
ATOM     21  C   UNL     1      33.452 -22.784 -18.231  0.00  0.00    +0.053 C 
ATOM     22  C   UNL     1      34.623 -22.271 -18.736  0.00  0.00    +0.134 C 
ATOM     23  C   UNL     1      32.861 -21.342 -19.681  0.00  0.00    +0.219 C 
BRANCH  21  24
ATOM     24  C   UNL     1      33.368 -23.860 -17.152  0.00  0.00    +0.037 C 
ATOM     25  C   UNL     1      32.509 -23.607 -15.948  0.00  0.00    +0.006 C 
ATOM     26  C   UNL     1      34.005 -23.595 -15.820  0.00  0.00    +0.006 C 
ENDBRANCH  21  24
ENDBRANCH  12  20
ENDBRANCH   3  15
BRANCH   6  30
ATOM     27  N   UNL     1      32.957 -11.874 -23.047  0.00  0.00    -0.252 N 
ATOM     28  N   UNL     1      34.454 -11.361 -24.558  0.00  0.00    -0.129 NA
ATOM     29  N   UNL     1      34.170 -10.227 -23.823  0.00  0.00    -0.128 NA
ATOM     30  C   UNL     1      33.716 -12.336 -24.078  0.00  0.00    +0.188 C 
ATOM     31  C   UNL     1      33.272 -10.555 -22.922  0.00  0.00    +0.192 C 
BRANCH  27  32
ATOM     32  C   UNL     1      32.011 -12.605 -22.239  0.00  0.00    +0.080 C 
ATOM     33  C   UNL     1      32.716 -13.464 -21.186  0.00  0.00    +0.022 C 
ATOM     34  C   UNL     1      30.989 -11.673 -21.586  0.00  0.00    +0.022 C 
ENDBRANCH  27  32
ENDBRANCH   6  30
TORSDOF 5
ENDMDL
MODEL 2
REMARK VINA RESULT:     -11.9      3.355     11.183
REMARK  Name = 71245288
REMARK  5 active torsions:
REMARK  status: ('A' for Active; 'I' for Inactive)
REMARK    1  A    between atoms: C_3  and  C_9
REMARK    2  A    between atoms: C_6  and  N_14
REMARK    3  A    between atoms: C_15  and  C_18
REMARK    4  A    between atoms: C_22  and  C_30
REMARK    5  A    between atoms: N_27  and  C_32
REMARK                            x       y       z     vdW  Elec       q    Type
REMARK                         _______ _______ _______ _____ _____    ______ ____
ROOT
ATOM      1  O   UNL     1      32.971 -22.113 -19.451  0.00  0.00    -0.270 OA
ATOM      2  N   UNL     1      34.607 -22.396 -17.792  0.00  0.00    -0.259 N 
ATOM      3  C   UNL     1      34.121 -21.931 -19.023  0.00  0.00    +0.253 C 
ATOM      4  H   UNL     1      35.544 -22.173 -17.590  0.00  0.00    +0.157 HD
ATOM      5  N   UNL     1      34.595 -23.492 -15.681  0.00  0.00    -0.388 NA
ATOM      6  C   UNL     1      33.904 -24.208 -14.766  0.00  0.00    +0.166 C 
ATOM      7  C   UNL     1      33.926 -23.147 -16.803  0.00  0.00    +0.167 C 
ATOM      8  C   UNL     1      32.581 -24.592 -14.920  0.00  0.00    +0.031 C 
ATOM      9  C   UNL     1      32.605 -23.481 -17.053  0.00  0.00    +0.101 C 
ATOM     10  C   UNL     1      31.926 -24.218 -16.088  0.00  0.00    -0.015 C 
ENDROOT
BRANCH   3  15
ATOM     11  F   UNL     1      36.871 -21.857 -18.458  0.00  0.00    -0.204 F 
ATOM     12  C   UNL     1      35.491 -19.674 -21.681  0.00  0.00    +0.046 C 
ATOM     13  C   UNL     1      36.849 -19.669 -21.360  0.00  0.00    -0.006 C 
ATOM     14  C   UNL     1      34.595 -20.417 -20.912  0.00  0.00    +0.021 C 
ATOM     15  C   UNL     1      35.058 -21.156 -19.823  0.00  0.00    +0.082 C 
ATOM     16  C   UNL     1      37.311 -20.407 -20.271  0.00  0.00    +0.027 C 
ATOM     17  C   UNL     1      37.835 -18.882 -22.163  0.00  0.00    +0.032 C 
ATOM     18  C   UNL     1      36.415 -21.151 -19.503  0.00  0.00    +0.144 C 
BRANCH  12  20
ATOM     19  N   UNL     1      33.924 -18.487 -24.639  0.00  0.00    -0.255 NA
ATOM     20  N   UNL     1      35.011 -18.947 -22.757  0.00  0.00    -0.282 N 
ATOM     21  C   UNL     1      34.566 -17.365 -24.179  0.00  0.00    +0.053 C 
ATOM     22  C   UNL     1      35.247 -17.625 -23.013  0.00  0.00    +0.134 C 
ATOM     23  C   UNL     1      34.212 -19.421 -23.761  0.00  0.00    +0.219 C 
BRANCH  21  24
ATOM     24  C   UNL     1      34.524 -16.009 -24.877  0.00  0.00    +0.037 C 
ATOM     25  C   UNL     1      33.431 -15.046 -24.515  0.00  0.00    +0.006 C 
ATOM     26  C   UNL     1      33.416 -15.734 -25.849  0.00  0.00    +0.006 C 
ENDBRANCH  21  24
ENDBRANCH  12  20
ENDBRANCH   3  15
BRANCH   6  30
ATOM     27  N   UNL     1      35.919 -25.053 -13.606  0.00  0.00    -0.252 N 
ATOM     28  N   UNL     1      34.237 -24.447 -12.344  0.00  0.00    -0.129 NA
ATOM     29  N   UNL     1      35.260 -24.886 -11.527  0.00  0.00    -0.128 NA
ATOM     30  C   UNL     1      34.652 -24.556 -13.586  0.00  0.00    +0.188 C 
ATOM     31  C   UNL     1      36.259 -25.244 -12.301  0.00  0.00    +0.192 C 
BRANCH  27  32
ATOM     32  C   UNL     1      36.751 -25.327 -14.753  0.00  0.00    +0.080 C 
ATOM     33  C   UNL     1      38.158 -24.752 -14.579  0.00  0.00    +0.022 C 
ATOM     34  C   UNL     1      36.808 -26.825 -15.062  0.00  0.00    +0.022 C 
ENDBRANCH  27  32
ENDBRANCH   6  30
TORSDOF 5
ENDMDL
MODEL 3
REMARK VINA RESULT:     -11.6      1.652     10.175
REMARK  Name = 71245288
REMARK  5 active torsions:
REMARK  status: ('A' for Active; 'I' for Inactive)
REMARK    1  A    between atoms: C_3  and  C_9
REMARK    2  A    between atoms: C_6  and  N_14
REMARK    3  A    between atoms: C_15  and  C_18
REMARK    4  A    between atoms: C_22  and  C_30
REMARK    5  A    between atoms: N_27  and  C_32
REMARK                            x       y       z     vdW  Elec       q    Type
REMARK                         _______ _______ _______ _____ _____    ______ ____
ROOT
ATOM      1  O   UNL     1      36.960 -18.999 -22.350  0.00  0.00    -0.270 OA
ATOM      2  N   UNL     1      34.871 -19.656 -21.506  0.00  0.00    -0.259 N 
ATOM      3  C   UNL     1      35.720 -18.949 -22.370  0.00  0.00    +0.253 C 
ATOM      4  H   UNL     1      33.907 -19.514 -21.644  0.00  0.00    +0.157 HD
ATOM      5  N   UNL     1      34.228 -21.125 -19.749  0.00  0.00    -0.388 NA
ATOM      6  C   UNL     1      34.609 -21.967 -18.763  0.00  0.00    +0.166 C 
ATOM      7  C   UNL     1      35.219 -20.547 -20.463  0.00  0.00    +0.167 C 
ATOM      8  C   UNL     1      35.929 -22.259 -18.460  0.00  0.00    +0.031 C 
ATOM      9  C   UNL     1      36.568 -20.773 -20.239  0.00  0.00    +0.101 C 
ATOM     10  C   UNL     1      36.921 -21.647 -19.216  0.00  0.00    -0.015 C 
ENDROOT
BRANCH   3  15
ATOM     11  F   UNL     1      34.777 -19.999 -24.798  0.00  0.00    -0.204 F 
ATOM     12  C   UNL     1      34.253 -15.963 -24.093  0.00  0.00    +0.046 C 
ATOM     13  C   UNL     1      33.802 -16.531 -25.284  0.00  0.00    -0.006 C 
ATOM     14  C   UNL     1      34.884 -16.758 -23.136  0.00  0.00    +0.021 C 
ATOM     15  C   UNL     1      35.063 -18.122 -23.370  0.00  0.00    +0.082 C 
ATOM     16  C   UNL     1      33.981 -17.894 -25.519  0.00  0.00    +0.027 C 
ATOM     17  C   UNL     1      33.123 -15.707 -26.332  0.00  0.00    +0.032 C 
ATOM     18  C   UNL     1      34.611 -18.689 -24.561  0.00  0.00    +0.144 C 
BRANCH  12  20
ATOM     19  N   UNL     1      33.742 -12.733 -22.706  0.00  0.00    -0.255 NA
ATOM     20  N   UNL     1      34.086 -14.612 -23.841  0.00  0.00    -0.282 N 
ATOM     21  C   UNL     1      33.908 -12.456 -24.039  0.00  0.00    +0.053 C 
ATOM     22  C   UNL     1      34.122 -13.605 -24.764  0.00  0.00    +0.134 C 
ATOM     23  C   UNL     1      33.856 -14.040 -22.620  0.00  0.00    +0.219 C 
BRANCH  21  24
ATOM     24  C   UNL     1      33.858 -11.051 -24.633  0.00  0.00    +0.037 C 
ATOM     25  C   UNL     1      35.049 -10.549 -25.395  0.00  0.00    +0.006 C 
ATOM     26  C   UNL     1      34.733  -9.987 -24.039  0.00  0.00    +0.006 C 
ENDBRANCH  21  24
ENDBRANCH  12  20
ENDBRANCH   3  15
BRANCH   6  30
ATOM     27  N   UNL     1      33.684 -23.299 -16.895  0.00  0.00    -0.252 N 
ATOM     28  N   UNL     1      32.247 -22.480 -18.326  0.00  0.00    -0.129 NA
ATOM     29  N   UNL     1      31.551 -23.187 -17.365  0.00  0.00    -0.128 NA
ATOM     30  C   UNL     1      33.523 -22.561 -18.027  0.00  0.00    +0.188 C 
ATOM     31  C   UNL     1      32.429 -23.669 -16.516  0.00  0.00    +0.192 C 
BRANCH  27  32
ATOM     32  C   UNL     1      34.913 -23.634 -16.217  0.00  0.00    +0.080 C 
ATOM     33  C   UNL     1      35.267 -22.597 -15.148  0.00  0.00    +0.022 C 
ATOM     34  C   UNL     1      34.860 -25.040 -15.615  0.00  0.00    +0.022 C 
ENDBRANCH  27  32
ENDBRANCH   6  30
TORSDOF 5
ENDMDL
MODEL 4
REMARK VINA RESULT:     -11.6      3.034     10.813
REMARK  Name = 71245288
REMARK  5 active torsions:
REMARK  status: ('A' for Active; 'I' for Inactive)
REMARK    1  A    between atoms: C_3  and  C_9
REMARK    2  A    between atoms: C_6  and  N_14
REMARK    3  A    between atoms: C_15  and  C_18
REMARK    4  A    between atoms: C_22  and  C_30
REMARK    5  A    between atoms: N_27  and  C_32
REMARK                            x       y       z     vdW  Elec       q    Type
REMARK                         _______ _______ _______ _____ _____    ______ ____
ROOT
ATOM      1  O   UNL     1      32.726 -13.583 -24.501  0.00  0.00    -0.270 OA
ATOM      2  N   UNL     1      33.852 -14.501 -22.658  0.00  0.00    -0.259 N 
ATOM      3  C   UNL     1      33.090 -13.525 -23.317  0.00  0.00    +0.253 C 
ATOM      4  H   UNL     1      34.064 -14.314 -21.715  0.00  0.00    +0.157 HD
ATOM      5  N   UNL     1      35.074 -16.519 -22.353  0.00  0.00    -0.388 NA
ATOM      6  C   UNL     1      35.536 -17.671 -22.889  0.00  0.00    +0.166 C 
ATOM      7  C   UNL     1      34.357 -15.719 -23.173  0.00  0.00    +0.167 C 
ATOM      8  C   UNL     1      35.313 -18.059 -24.201  0.00  0.00    +0.031 C 
ATOM      9  C   UNL     1      34.079 -16.017 -24.498  0.00  0.00    +0.101 C 
ATOM     10  C   UNL     1      34.570 -17.211 -25.014  0.00  0.00    -0.015 C 
ENDROOT
BRANCH   3  15
ATOM     11  F   UNL     1      32.313 -13.782 -20.630  0.00  0.00    -0.204 F 
ATOM     12  C   UNL     1      32.305 -10.005 -22.300  0.00  0.00    +0.046 C 
ATOM     13  C   UNL     1      31.927 -10.184 -20.969  0.00  0.00    -0.006 C 
ATOM     14  C   UNL     1      32.686 -11.104 -23.071  0.00  0.00    +0.021 C 
ATOM     15  C   UNL     1      32.691 -12.381 -22.510  0.00  0.00    +0.082 C 
ATOM     16  C   UNL     1      31.931 -11.461 -20.409  0.00  0.00    +0.027 C 
ATOM     17  C   UNL     1      31.511  -9.029 -20.116  0.00  0.00    +0.032 C 
ATOM     18  C   UNL     1      32.313 -12.559 -21.180  0.00  0.00    +0.144 C 
BRANCH  12  20
ATOM     19  N   UNL     1      31.535  -6.862 -23.764  0.00  0.00    -0.255 NA
ATOM     20  N   UNL     1      32.307  -8.746 -22.876  0.00  0.00    -0.282 N 
ATOM     21  C   UNL     1      32.906  -6.838 -23.725  0.00  0.00    +0.053 C 
ATOM     22  C   UNL     1      33.409  -7.995 -23.179  0.00  0.00    +0.134 C 
ATOM     23  C   UNL     1      31.206  -8.024 -23.246  0.00  0.00    +0.219 C 
BRANCH  21  24
ATOM     24  C   UNL     1      33.755  -5.673 -24.226  0.00  0.00    +0.037 C 
ATOM     25  C   UNL     1      33.384  -5.017 -25.523  0.00  0.00    +0.006 C 
ATOM     26  C   UNL     1      34.612  -5.876 -25.441  0.00  0.00    +0.006 C 
ENDBRANCH  21  24
ENDBRANCH  12  20
ENDBRANCH   3  15
BRANCH   6  30
ATOM     27  N   UNL     1      35.742 -19.416 -21.148  0.00  0.00    -0.252 N 
ATOM     28  N   UNL     1      37.599 -18.480 -21.830  0.00  0.00    -0.129 NA
ATOM     29  N   UNL     1      37.912 -19.419 -20.868  0.00  0.00    -0.128 NA
ATOM     30  C   UNL     1      36.294 -18.493 -21.984  0.00  0.00    +0.188 C 
ATOM     31  C   UNL     1      36.787 -19.969 -20.472  0.00  0.00    +0.192 C 
BRANCH  27  32
ATOM     32  C   UNL     1      34.349 -19.757 -20.994  0.00  0.00    +0.080 C 
ATOM     33  C   UNL     1      33.645 -19.879 -22.348  0.00  0.00    +0.022 C 
ATOM     34  C   UNL     1      34.170 -21.034 -20.170  0.00  0.00    +0.022 C 
ENDBRANCH  27  32
ENDBRANCH   6  30
TORSDOF 5
ENDMDL
MODEL 5
REMARK VINA RESULT:     -11.1      3.138      6.134
REMARK  Name = 71245288
REMARK  5 active torsions:
REMARK  status: ('A' for Active; 'I' for Inactive)
REMARK    1  A    between atoms: C_3  and  C_9
REMARK    2  A    between atoms: C_6  and  N_14
REMARK    3  A    between atoms: C_15  and  C_18
REMARK    4  A    between atoms: C_22  and  C_30
REMARK    5  A    between atoms: N_27  and  C_32
REMARK                            x       y       z     vdW  Elec       q    Type
REMARK                         _______ _______ _______ _____ _____    ______ ____
ROOT
ATOM      1  O   UNL     1      36.802 -21.513 -18.499  0.00  0.00    -0.270 OA
ATOM      2  N   UNL     1      35.048 -20.885 -19.927  0.00  0.00    -0.259 N 
ATOM      3  C   UNL     1      35.604 -21.544 -18.820  0.00  0.00    +0.253 C 
ATOM      4  H   UNL     1      34.080 -21.004 -20.054  0.00  0.00    +0.157 HD
ATOM      5  N   UNL     1      34.963 -19.533 -21.882  0.00  0.00    -0.388 NA
ATOM      6  C   UNL     1      35.628 -18.766 -22.775  0.00  0.00    +0.166 C 
ATOM      7  C   UNL     1      35.700 -20.074 -20.888  0.00  0.00    +0.167 C 
ATOM      8  C   UNL     1      36.990 -18.516 -22.719  0.00  0.00    +0.031 C 
ATOM      9  C   UNL     1      37.065 -19.884 -20.743  0.00  0.00    +0.101 C 
ATOM     10  C   UNL     1      37.715 -19.089 -21.681  0.00  0.00    -0.015 C 
ENDROOT
BRANCH   3  15
ATOM     11  F   UNL     1      32.957 -22.038 -19.618  0.00  0.00    -0.204 F 
ATOM     12  C   UNL     1      34.187 -23.500 -15.957  0.00  0.00    +0.046 C 
ATOM     13  C   UNL     1      32.881 -23.720 -16.397  0.00  0.00    -0.006 C 
ATOM     14  C   UNL     1      35.081 -22.784 -16.754  0.00  0.00    +0.021 C 
ATOM     15  C   UNL     1      34.669 -22.289 -17.991  0.00  0.00    +0.082 C 
ATOM     16  C   UNL     1      32.470 -23.224 -17.633  0.00  0.00    +0.027 C 
ATOM     17  C   UNL     1      31.898 -24.481 -15.567  0.00  0.00    +0.032 C 
ATOM     18  C   UNL     1      33.364 -22.509 -18.431  0.00  0.00    +0.144 C 
BRANCH  12  20
ATOM     19  N   UNL     1      34.589 -24.487 -12.568  0.00  0.00    -0.255 NA
ATOM     20  N   UNL     1      34.616 -23.983 -14.732  0.00  0.00    -0.282 N 
ATOM     21  C   UNL     1      35.776 -24.884 -13.131  0.00  0.00    +0.053 C 
ATOM     22  C   UNL     1      35.816 -24.582 -14.472  0.00  0.00    +0.134 C 
ATOM     23  C   UNL     1      33.913 -23.949 -13.559  0.00  0.00    +0.219 C 
BRANCH  21  24
ATOM     24  C   UNL     1      36.900 -25.571 -12.361  0.00  0.00    +0.037 C 
ATOM     25  C   UNL     1      38.167 -24.808 -12.104  0.00  0.00    +0.006 C 
ATOM     26  C   UNL     1      38.156 -25.937 -13.094  0.00  0.00    +0.006 C 
ENDBRANCH  21  24
ENDBRANCH  12  20
ENDBRANCH   3  15
BRANCH   6  30
ATOM     27  N   UNL     1      34.548 -16.880 -23.955  0.00  0.00    -0.252 N 
ATOM     28  N   UNL     1      34.202 -18.880 -24.772  0.00  0.00    -0.129 NA
ATOM     29  N   UNL     1      33.526 -17.966 -25.555  0.00  0.00    -0.128 NA
ATOM     30  C   UNL     1      34.807 -18.209 -23.818  0.00  0.00    +0.188 C 
ATOM     31  C   UNL     1      33.745 -16.774 -25.051  0.00  0.00    +0.192 C 
BRANCH  27  32
ATOM     32  C   UNL     1      35.013 -15.792 -23.130  0.00  0.00    +0.080 C 
ATOM     33  C   UNL     1      34.298 -14.481 -23.470  0.00  0.00    +0.022 C 
ATOM     34  C   UNL     1      34.876 -16.116 -21.640  0.00  0.00    +0.022 C 
ENDBRANCH  27  32
ENDBRANCH   6  30
TORSDOF 5
ENDMDL
MODEL 6
REMARK VINA RESULT:     -10.9      0.945      1.802
REMARK  Name = 71245288
REMARK  5 active torsions:
REMARK  status: ('A' for Active; 'I' for Inactive)
REMARK    1  A    between atoms: C_3  and  C_9
REMARK    2  A    between atoms: C_6  and  N_14
REMARK    3  A    between atoms: C_15  and  C_18
REMARK    4  A    between atoms: C_22  and  C_30
REMARK    5  A    between atoms: N_27  and  C_32
REMARK                            x       y       z     vdW  Elec       q    Type
REMARK                         _______ _______ _______ _____ _____    ______ ____
ROOT
ATOM      1  O   UNL     1      35.024 -19.104 -24.220  0.00  0.00    -0.270 OA
ATOM      2  N   UNL     1      34.716 -17.240 -22.828  0.00  0.00    -0.259 N 
ATOM      3  C   UNL     1      35.082 -18.565 -23.104  0.00  0.00    +0.253 C 
ATOM      4  H   UNL     1      34.818 -16.954 -21.891  0.00  0.00    +0.157 HD
ATOM      5  N   UNL     1      33.927 -15.033 -23.234  0.00  0.00    -0.388 NA
ATOM      6  C   UNL     1      33.454 -14.131 -24.123  0.00  0.00    +0.166 C 
ATOM      7  C   UNL     1      34.218 -16.259 -23.720  0.00  0.00    +0.167 C 
ATOM      8  C   UNL     1      33.261 -14.397 -25.469  0.00  0.00    +0.031 C 
ATOM      9  C   UNL     1      34.061 -16.625 -25.048  0.00  0.00    +0.101 C 
ATOM     10  C   UNL     1      33.572 -15.670 -25.932  0.00  0.00    -0.015 C 
ENDROOT
BRANCH   3  15
ATOM     11  F   UNL     1      37.802 -18.578 -22.403  0.00  0.00    -0.204 F 
ATOM     12  C   UNL     1      35.197 -20.826 -20.119  0.00  0.00    +0.046 C 
ATOM     13  C   UNL     1      36.557 -20.801 -19.810  0.00  0.00    -0.006 C 
ATOM     14  C   UNL     1      34.713 -20.092 -21.202  0.00  0.00    +0.021 C 
ATOM     15  C   UNL     1      35.590 -19.331 -21.975  0.00  0.00    +0.082 C 
ATOM     16  C   UNL     1      37.434 -20.042 -20.584  0.00  0.00    +0.027 C 
ATOM     17  C   UNL     1      37.109 -21.578 -18.658  0.00  0.00    +0.032 C 
ATOM     18  C   UNL     1      36.950 -19.306 -21.667  0.00  0.00    +0.144 C 
BRANCH  12  20
ATOM     19  N   UNL     1      32.383 -22.409 -18.637  0.00  0.00    -0.255 NA
ATOM     20  N   UNL     1      34.310 -21.575 -19.364  0.00  0.00    -0.282 N 
ATOM     21  C   UNL     1      33.427 -22.930 -17.913  0.00  0.00    +0.053 C 
ATOM     22  C   UNL     1      34.631 -22.428 -18.345  0.00  0.00    +0.134 C 
ATOM     23  C   UNL     1      32.949 -21.597 -19.502  0.00  0.00    +0.219 C 
BRANCH  21  24
ATOM     24  C   UNL     1      33.261 -23.936 -16.778  0.00  0.00    +0.037 C 
ATOM     25  C   UNL     1      32.309 -23.613 -15.663  0.00  0.00    +0.006 C 
ATOM     26  C   UNL     1      33.790 -23.581 -15.419  0.00  0.00    +0.006 C 
ENDBRANCH  21  24
ENDBRANCH  12  20
ENDBRANCH   3  15
BRANCH   6  30
ATOM     27  N   UNL     1      33.685 -11.670 -24.025  0.00  0.00    -0.252 N 
ATOM     28  N   UNL     1      32.349 -12.593 -22.558  0.00  0.00    -0.129 NA
ATOM     29  N   UNL     1      32.350 -11.228 -22.350  0.00  0.00    -0.128 NA
ATOM     30  C   UNL     1      33.156 -12.838 -23.566  0.00  0.00    +0.188 C 
ATOM     31  C   UNL     1      33.155 -10.693 -23.238  0.00  0.00    +0.192 C 
BRANCH  27  32
ATOM     32  C   UNL     1      34.612 -11.479 -25.114  0.00  0.00    +0.080 C 
ATOM     33  C   UNL     1      33.925 -11.642 -26.473  0.00  0.00    +0.022 C 
ATOM     34  C   UNL     1      35.320 -10.126 -25.021  0.00  0.00    +0.022 C 
ENDBRANCH  27  32
ENDBRANCH   6  30
TORSDOF 5
ENDMDL
MODEL 7
REMARK VINA RESULT:     -10.7      3.038      5.772
REMARK  Name = 71245288
REMARK  5 active torsions:
REMARK  status: ('A' for Active; 'I' for Inactive)
REMARK    1  A    between atoms: C_3  and  C_9
REMARK    2  A    between atoms: C_6  and  N_14
REMARK    3  A    between atoms: C_15  and  C_18
REMARK    4  A    between atoms: C_22  and  C_30
REMARK    5  A    between atoms: N_27  and  C_32
REMARK                            x       y       z     vdW  Elec       q    Type
REMARK                         _______ _______ _______ _____ _____    ______ ____
ROOT
ATOM      1  O   UNL     1      36.726 -22.131 -19.579  0.00  0.00    -0.270 OA
ATOM      2  N   UNL     1      35.170 -20.392 -19.833  0.00  0.00    -0.259 N 
ATOM      3  C   UNL     1      35.632 -21.610 -19.312  0.00  0.00    +0.253 C 
ATOM      4  H   UNL     1      34.279 -20.107 -19.527  0.00  0.00    +0.157 HD
ATOM      5  N   UNL     1      35.183 -18.387 -21.112  0.00  0.00    -0.388 NA
ATOM      6  C   UNL     1      35.840 -17.586 -21.981  0.00  0.00    +0.166 C 
ATOM      7  C   UNL     1      35.818 -19.520 -20.741  0.00  0.00    +0.167 C 
ATOM      8  C   UNL     1      37.098 -17.864 -22.492  0.00  0.00    +0.031 C 
ATOM      9  C   UNL     1      37.075 -19.888 -21.194  0.00  0.00    +0.101 C 
ATOM     10  C   UNL     1      37.720 -19.039 -22.086  0.00  0.00    -0.015 C 
ENDROOT
BRANCH   3  15
ATOM     11  F   UNL     1      32.859 -21.778 -19.726  0.00  0.00    -0.204 F 
ATOM     12  C   UNL     1      34.421 -23.491 -16.308  0.00  0.00    +0.046 C 
ATOM     13  C   UNL     1      33.049 -23.549 -16.557  0.00  0.00    -0.006 C 
ATOM     14  C   UNL     1      35.269 -22.853 -17.214  0.00  0.00    +0.021 C 
ATOM     15  C   UNL     1      34.745 -22.274 -18.369  0.00  0.00    +0.082 C 
ATOM     16  C   UNL     1      32.526 -22.968 -17.712  0.00  0.00    +0.027 C 
ATOM     17  C   UNL     1      32.113 -24.223 -15.607  0.00  0.00    +0.032 C 
ATOM     18  C   UNL     1      33.374 -22.331 -18.618  0.00  0.00    +0.144 C 
BRANCH  12  20
ATOM     19  N   UNL     1      35.268 -24.517 -13.014  0.00  0.00    -0.255 NA
ATOM     20  N   UNL     1      34.961 -24.060 -15.167  0.00  0.00    -0.282 N 
ATOM     21  C   UNL     1      36.160 -25.226 -13.780  0.00  0.00    +0.053 C 
ATOM     22  C   UNL     1      35.989 -24.959 -15.118  0.00  0.00    +0.134 C 
ATOM     23  C   UNL     1      34.560 -23.826 -13.880  0.00  0.00    +0.219 C 
BRANCH  21  24
ATOM     24  C   UNL     1      37.203 -26.183 -13.211  0.00  0.00    +0.037 C 
ATOM     25  C   UNL     1      38.593 -25.671 -12.967  0.00  0.00    +0.006 C 
ATOM     26  C   UNL     1      38.331 -26.627 -14.095  0.00  0.00    +0.006 C 
ENDBRANCH  21  24
ENDBRANCH  12  20
ENDBRANCH   3  15
BRANCH   6  30
ATOM     27  N   UNL     1      34.613 -16.164 -23.591  0.00  0.00    -0.252 N 
ATOM     28  N   UNL     1      34.875 -15.365 -21.571  0.00  0.00    -0.129 NA
ATOM     29  N   UNL     1      34.175 -14.439 -22.319  0.00  0.00    -0.128 NA
ATOM     30  C   UNL     1      35.129 -16.391 -22.351  0.00  0.00    +0.188 C 
ATOM     31  C   UNL     1      34.026 -14.936 -23.525  0.00  0.00    +0.192 C 
BRANCH  27  32
ATOM     32  C   UNL     1      34.660 -17.027 -24.747  0.00  0.00    +0.080 C 
ATOM     33  C   UNL     1      34.135 -18.429 -24.425  0.00  0.00    +0.022 C 
ATOM     34  C   UNL     1      33.904 -16.421 -25.932  0.00  0.00    +0.022 C 
ENDBRANCH  27  32
ENDBRANCH   6  30
TORSDOF 5
ENDMDL
MODEL 8
REMARK VINA RESULT:      -9.9      3.150      6.012
REMARK  Name = 71245288
REMARK  5 active torsions:
REMARK  status: ('A' for Active; 'I' for Inactive)
REMARK    1  A    between atoms: C_3  and  C_9
REMARK    2  A    between atoms: C_6  and  N_14
REMARK    3  A    between atoms: C_15  and  C_18
REMARK    4  A    between atoms: C_22  and  C_30
REMARK    5  A    between atoms: N_27  and  C_32
REMARK                            x       y       z     vdW  Elec       q    Type
REMARK                         _______ _______ _______ _____ _____    ______ ____
ROOT
ATOM      1  O   UNL     1      32.351 -13.392 -21.521  0.00  0.00    -0.270 OA
ATOM      2  N   UNL     1      33.317 -11.967 -23.116  0.00  0.00    -0.259 N 
ATOM      3  C   UNL     1      32.995 -13.217 -22.567  0.00  0.00    +0.253 C 
ATOM      4  H   UNL     1      33.835 -11.988 -23.952  0.00  0.00    +0.157 HD
ATOM      5  N   UNL     1      33.411  -9.599 -23.319  0.00  0.00    -0.388 NA
ATOM      6  C   UNL     1      33.080  -8.391 -22.810  0.00  0.00    +0.166 C 
ATOM      7  C   UNL     1      32.995 -10.679 -22.622  0.00  0.00    +0.167 C 
ATOM      8  C   UNL     1      32.356  -8.215 -21.641  0.00  0.00    +0.031 C 
ATOM      9  C   UNL     1      32.267 -10.610 -21.445  0.00  0.00    +0.101 C 
ATOM     10  C   UNL     1      31.945  -9.350 -20.952  0.00  0.00    -0.015 C 
ENDROOT
BRANCH   3  15
ATOM     11  F   UNL     1      32.652 -13.420 -25.347  0.00  0.00    -0.204 F 
ATOM     12  C   UNL     1      34.504 -16.547 -23.385  0.00  0.00    +0.046 C 
ATOM     13  C   UNL     1      34.310 -16.601 -24.766  0.00  0.00    -0.006 C 
ATOM     14  C   UNL     1      34.071 -15.434 -22.664  0.00  0.00    +0.021 C 
ATOM     15  C   UNL     1      33.445 -14.376 -23.322  0.00  0.00    +0.082 C 
ATOM     16  C   UNL     1      33.684 -15.544 -25.424  0.00  0.00    +0.027 C 
ATOM     17  C   UNL     1      34.760 -17.780 -25.569  0.00  0.00    +0.032 C 
ATOM     18  C   UNL     1      33.252 -14.431 -24.702  0.00  0.00    +0.144 C 
BRANCH  12  20
ATOM     19  N   UNL     1      36.698 -18.723 -21.635  0.00  0.00    -0.255 NA
ATOM     20  N   UNL     1      35.122 -17.587 -22.712  0.00  0.00    -0.282 N 
ATOM     21  C   UNL     1      35.560 -19.482 -21.744  0.00  0.00    +0.053 C 
ATOM     22  C   UNL     1      34.569 -18.799 -22.409  0.00  0.00    +0.134 C 
ATOM     23  C   UNL     1      36.401 -17.588 -22.227  0.00  0.00    +0.219 C 
BRANCH  21  24
ATOM     24  C   UNL     1      35.422 -20.900 -21.197  0.00  0.00    +0.037 C 
ATOM     25  C   UNL     1      34.651 -21.109 -19.926  0.00  0.00    +0.006 C 
ATOM     26  C   UNL     1      36.145 -21.257 -19.932  0.00  0.00    +0.006 C 
ENDBRANCH  21  24
ENDBRANCH  12  20
ENDBRANCH   3  15
BRANCH   6  30
ATOM     27  N   UNL     1      32.749  -6.226 -23.958  0.00  0.00    -0.252 N 
ATOM     28  N   UNL     1      34.763  -7.078 -24.025  0.00  0.00    -0.129 NA
ATOM     29  N   UNL     1      34.773  -5.882 -24.713  0.00  0.00    -0.128 NA
ATOM     30  C   UNL     1      33.541  -7.267 -23.581  0.00  0.00    +0.188 C 
ATOM     31  C   UNL     1      33.558  -5.385 -24.662  0.00  0.00    +0.192 C 
BRANCH  27  32
ATOM     32  C   UNL     1      31.347  -6.028 -23.683  0.00  0.00    +0.080 C 
ATOM     33  C   UNL     1      30.930  -4.571 -23.900  0.00  0.00    +0.022 C 
ATOM     34  C   UNL     1      30.472  -6.973 -24.509  0.00  0.00    +0.022 C 
ENDBRANCH  27  32
ENDBRANCH   6  30
TORSDOF 5
ENDMDL
MODEL 9
REMARK VINA RESULT:      -9.8      2.605      9.721
REMARK  Name = 71245288
REMARK  5 active torsions:
REMARK  status: ('A' for Active; 'I' for Inactive)
REMARK    1  A    between atoms: C_3  and  C_9
REMARK    2  A    between atoms: C_6  and  N_14
REMARK    3  A    between atoms: C_15  and  C_18
REMARK    4  A    between atoms: C_22  and  C_30
REMARK    5  A    between atoms: N_27  and  C_32
REMARK                            x       y       z     vdW  Elec       q    Type
REMARK                         _______ _______ _______ _____ _____    ______ ____
ROOT
ATOM      1  O   UNL     1      33.028 -15.018 -26.016  0.00  0.00    -0.270 OA
ATOM      2  N   UNL     1      34.326 -15.311 -24.083  0.00  0.00    -0.259 N 
ATOM      3  C   UNL     1      33.647 -14.552 -25.046  0.00  0.00    +0.253 C 
ATOM      4  H   UNL     1      34.772 -14.798 -23.371  0.00  0.00    +0.157 HD
ATOM      5  N   UNL     1      35.163 -17.243 -22.976  0.00  0.00    -0.388 NA
ATOM      6  C   UNL     1      35.260 -18.591 -22.940  0.00  0.00    +0.166 C 
ATOM      7  C   UNL     1      34.456 -16.719 -24.001  0.00  0.00    +0.167 C 
ATOM      8  C   UNL     1      34.683 -19.435 -23.875  0.00  0.00    +0.031 C 
ATOM      9  C   UNL     1      33.842 -17.475 -24.986  0.00  0.00    +0.101 C 
ATOM     10  C   UNL     1      33.963 -18.859 -24.915  0.00  0.00    -0.015 C 
ENDROOT
BRANCH   3  15
ATOM     11  F   UNL     1      34.778 -12.798 -26.926  0.00  0.00    -0.204 F 
ATOM     12  C   UNL     1      33.131 -11.178 -23.502  0.00  0.00    +0.046 C 
ATOM     13  C   UNL     1      33.705 -10.347 -24.465  0.00  0.00    -0.006 C 
ATOM     14  C   UNL     1      33.113 -12.560 -23.694  0.00  0.00    +0.021 C 
ATOM     15  C   UNL     1      33.668 -13.111 -24.849  0.00  0.00    +0.082 C 
ATOM     16  C   UNL     1      34.260 -10.898 -25.619  0.00  0.00    +0.027 C 
ATOM     17  C   UNL     1      33.742  -8.863 -24.290  0.00  0.00    +0.032 C 
ATOM     18  C   UNL     1      34.241 -12.280 -25.811  0.00  0.00    +0.144 C 
BRANCH  12  20
ATOM     19  N   UNL     1      31.436 -10.555 -20.444  0.00  0.00    -0.255 NA
ATOM     20  N   UNL     1      32.574 -10.651 -22.349  0.00  0.00    -0.282 N 
ATOM     21  C   UNL     1      31.969  -9.325 -20.738  0.00  0.00    +0.053 C 
ATOM     22  C   UNL     1      32.679  -9.360 -21.914  0.00  0.00    +0.134 C 
ATOM     23  C   UNL     1      31.819 -11.331 -21.433  0.00  0.00    +0.219 C 
BRANCH  21  24
ATOM     24  C   UNL     1      31.791  -8.085 -19.866  0.00  0.00    +0.037 C 
ATOM     25  C   UNL     1      31.628  -6.752 -20.536  0.00  0.00    +0.006 C 
ATOM     26  C   UNL     1      32.902  -7.078 -19.811  0.00  0.00    +0.006 C 
ENDBRANCH  21  24
ENDBRANCH  12  20
ENDBRANCH   3  15
BRANCH   6  30
ATOM     27  N   UNL     1      35.562 -20.057 -20.970  0.00  0.00    -0.252 N 
ATOM     28  N   UNL     1      37.242 -18.758 -21.498  0.00  0.00    -0.129 NA
ATOM     29  N   UNL     1      37.593 -19.494 -20.384  0.00  0.00    -0.128 NA
ATOM     30  C   UNL     1      36.021 -19.109 -21.833  0.00  0.00    +0.188 C 
ATOM     31  C   UNL     1      36.575 -20.267 -20.084  0.00  0.00    +0.192 C 
BRANCH  27  32
ATOM     32  C   UNL     1      34.279 -20.718 -20.973  0.00  0.00    +0.080 C 
ATOM     33  C   UNL     1      34.169 -21.736 -19.835  0.00  0.00    +0.022 C 
ATOM     34  C   UNL     1      33.128 -19.711 -20.916  0.00  0.00    +0.022 C 
ENDBRANCH  27  32
ENDBRANCH   6  30
TORSDOF 5
ENDMDL
