MODEL 1
REMARK VINA RESULT:     -11.8      0.000      0.000
REMARK  Name = 5567
REMARK  8 active torsions:
REMARK  status: ('A' for Active; 'I' for Inactive)
REMARK    1  A    between atoms: N_1  and  C_20
REMARK    2  A    between atoms: C_2  and  C_8
REMARK    3  A    between atoms: C_2  and  O_18
REMARK    4  A    between atoms: C_11  and  C_17
REMARK    5  A    between atoms: C_20  and  C_21
REMARK    6  A    between atoms: C_21  and  C_22
REMARK    7  A    between atoms: C_22  and  C_24
REMARK    8  A    between atoms: C_24  and  C_26
REMARK                            x       y       z     vdW  Elec       q    Type
REMARK                         _______ _______ _______ _____ _____    ______ ____
ROOT
ATOM      1  N   UNL     1      35.363 -20.420 -20.290  0.00  0.00    +0.387 N 
ATOM      2  C   UNL     1      34.048 -22.583 -18.734  0.00  0.00    +0.103 C 
ATOM      3  C   UNL     1      33.282 -21.437 -19.432  0.00  0.00    +0.008 C 
ATOM      4  C   UNL     1      35.506 -22.125 -18.493  0.00  0.00    +0.008 C 
ATOM      5  C   UNL     1      34.019 -20.880 -20.656  0.00  0.00    -0.075 C 
ATOM      6  C   UNL     1      36.164 -21.517 -19.738  0.00  0.00    -0.075 C 
ATOM      7  H   UNL     1      35.265 -19.707 -19.568  0.00  0.00    -0.080 HD
ENDROOT
BRANCH   2   8
ATOM      8  C   UNL     1      33.419 -23.080 -17.431  0.00  0.00    +0.002 C 
ATOM      9  C   UNL     1      32.039 -23.005 -17.252  0.00  0.00    +0.002 C 
ATOM     10  C   UNL     1      34.228 -23.609 -16.427  0.00  0.00    -0.002 C 
ATOM     11  C   UNL     1      31.465 -23.460 -16.064  0.00  0.00    +0.071 C 
ATOM     12  C   UNL     1      33.654 -24.064 -15.239  0.00  0.00    -0.000 C 
ATOM     13  C   UNL     1      32.273 -23.989 -15.058  0.00  0.00    +0.004 C 
BRANCH  11  17
ATOM     14  F   UNL     1      29.623 -22.733 -14.723  0.00  0.00    -0.166 F 
ATOM     15  F   UNL     1      29.341 -22.716 -16.874  0.00  0.00    -0.166 F 
ATOM     16  F   UNL     1      29.399 -24.607 -15.802  0.00  0.00    -0.166 F 
ATOM     17  C   UNL     1      29.989 -23.378 -15.870  0.00  0.00    +0.419 C 
ENDBRANCH  11  17
ENDBRANCH   2   8
BRANCH   2  18
ATOM     18  O   UNL     1      34.044 -23.715 -19.617  0.00  0.00    -0.383 OA
ATOM     19  H   UNL     1      33.207 -24.197 -19.520  0.00  0.00    +0.211 HD
ENDBRANCH   2  18
BRANCH   1  20
ATOM     20  C   UNL     1      36.034 -19.826 -21.446  0.00  0.00    -0.077 C 
BRANCH  20  21
ATOM     21  C   UNL     1      35.009 -19.165 -22.370  0.00  0.00    -0.015 C 
BRANCH  21  22
ATOM     22  C   UNL     1      35.636 -18.082 -23.252  0.00  0.00    +0.067 C 
BRANCH  22  24
ATOM     23  O   UNL     1      34.180 -18.164 -25.175  0.00  0.00    -0.291 OA
ATOM     24  C   UNL     1      34.667 -17.494 -24.268  0.00  0.00    +0.173 C 
BRANCH  24  26
ATOM     25  F   UNL     1      33.229 -12.120 -23.789  0.00  0.00    -0.204 F 
ATOM     26  C   UNL     1      34.282 -16.060 -24.140  0.00  0.00    +0.035 C 
ATOM     27  C   UNL     1      34.657 -15.373 -23.006  0.00  0.00    +0.005 C 
ATOM     28  C   UNL     1      33.567 -15.473 -25.160  0.00  0.00    +0.005 C 
ATOM     29  C   UNL     1      34.297 -14.031 -22.886  0.00  0.00    +0.030 C 
ATOM     30  C   UNL     1      33.208 -14.131 -25.040  0.00  0.00    +0.030 C 
ATOM     31  C   UNL     1      33.573 -13.409 -23.903  0.00  0.00    +0.140 C 
ENDBRANCH  24  26
ENDBRANCH  22  24
ENDBRANCH  21  22
ENDBRANCH  20  21
ENDBRANCH   1  20
TORSDOF 8
ENDMDL
MODEL 2
REMARK VINA RESULT:     -11.8      0.045      1.146
REMARK  Name = 5567
REMARK  8 active torsions:
REMARK  status: ('A' for Active; 'I' for Inactive)
REMARK    1  A    between atoms: N_1  and  C_20
REMARK    2  A    between atoms: C_2  and  C_8
REMARK    3  A    between atoms: C_2  and  O_18
REMARK    4  A    between atoms: C_11  and  C_17
REMARK    5  A    between atoms: C_20  and  C_21
REMARK    6  A    between atoms: C_21  and  C_22
REMARK    7  A    between atoms: C_22  and  C_24
REMARK    8  A    between atoms: C_24  and  C_26
REMARK                            x       y       z     vdW  Elec       q    Type
REMARK                         _______ _______ _______ _____ _____    ______ ____
ROOT
ATOM      1  N   UNL     1      35.333 -20.417 -20.296  0.00  0.00    +0.387 N 
ATOM      2  C   UNL     1      34.037 -22.581 -18.724  0.00  0.00    +0.103 C 
ATOM      3  C   UNL     1      33.261 -21.444 -19.426  0.00  0.00    +0.008 C 
ATOM      4  C   UNL     1      35.492 -22.113 -18.491  0.00  0.00    +0.008 C 
ATOM      5  C   UNL     1      33.990 -20.887 -20.655  0.00  0.00    -0.075 C 
ATOM      6  C   UNL     1      36.143 -21.507 -19.741  0.00  0.00    -0.075 C 
ATOM      7  H   UNL     1      35.233 -19.701 -19.576  0.00  0.00    -0.080 HD
ENDROOT
BRANCH   2   8
ATOM      8  C   UNL     1      33.416 -23.075 -17.417  0.00  0.00    +0.002 C 
ATOM      9  C   UNL     1      32.037 -22.999 -17.230  0.00  0.00    +0.002 C 
ATOM     10  C   UNL     1      34.230 -23.604 -16.417  0.00  0.00    -0.002 C 
ATOM     11  C   UNL     1      31.470 -23.452 -16.038  0.00  0.00    +0.071 C 
ATOM     12  C   UNL     1      33.663 -24.057 -15.226  0.00  0.00    -0.000 C 
ATOM     13  C   UNL     1      32.283 -23.980 -15.036  0.00  0.00    +0.004 C 
BRANCH  11  17
ATOM     14  F   UNL     1      29.332 -22.779 -16.874  0.00  0.00    -0.166 F 
ATOM     15  F   UNL     1      29.396 -24.586 -15.676  0.00  0.00    -0.166 F 
ATOM     16  F   UNL     1      29.657 -22.646 -14.728  0.00  0.00    -0.166 F 
ATOM     17  C   UNL     1      29.995 -23.369 -15.835  0.00  0.00    +0.419 C 
ENDBRANCH  11  17
ENDBRANCH   2   8
BRANCH   2  18
ATOM     18  O   UNL     1      34.037 -23.717 -19.602  0.00  0.00    -0.383 OA
ATOM     19  H   UNL     1      34.907 -23.799 -20.025  0.00  0.00    +0.211 HD
ENDBRANCH   2  18
BRANCH   1  20
ATOM     20  C   UNL     1      35.996 -19.824 -21.457  0.00  0.00    -0.077 C 
BRANCH  20  21
ATOM     21  C   UNL     1      34.978 -19.081 -22.324  0.00  0.00    -0.015 C 
BRANCH  21  22
ATOM     22  C   UNL     1      35.646 -18.092 -23.284  0.00  0.00    +0.067 C 
BRANCH  22  24
ATOM     23  O   UNL     1      34.210 -18.162 -25.223  0.00  0.00    -0.291 OA
ATOM     24  C   UNL     1      34.685 -17.499 -24.305  0.00  0.00    +0.173 C 
BRANCH  24  26
ATOM     25  F   UNL     1      33.218 -12.136 -23.792  0.00  0.00    -0.204 F 
ATOM     26  C   UNL     1      34.294 -16.067 -24.169  0.00  0.00    +0.035 C 
ATOM     27  C   UNL     1      33.581 -15.476 -25.188  0.00  0.00    +0.005 C 
ATOM     28  C   UNL     1      34.659 -15.388 -23.028  0.00  0.00    +0.005 C 
ATOM     29  C   UNL     1      33.214 -14.136 -25.060  0.00  0.00    +0.030 C 
ATOM     30  C   UNL     1      34.293 -14.048 -22.900  0.00  0.00    +0.030 C 
ATOM     31  C   UNL     1      33.570 -13.422 -23.915  0.00  0.00    +0.140 C 
ENDBRANCH  24  26
ENDBRANCH  22  24
ENDBRANCH  21  22
ENDBRANCH  20  21
ENDBRANCH   1  20
TORSDOF 8
ENDMDL
MODEL 3
REMARK VINA RESULT:     -11.3      1.921      2.417
REMARK  Name = 5567
REMARK  8 active torsions:
REMARK  status: ('A' for Active; 'I' for Inactive)
REMARK    1  A    between atoms: N_1  and  C_20
REMARK    2  A    between atoms: C_2  and  C_8
REMARK    3  A    between atoms: C_2  and  O_18
REMARK    4  A    between atoms: C_11  and  C_17
REMARK    5  A    between atoms: C_20  and  C_21
REMARK    6  A    between atoms: C_21  and  C_22
REMARK    7  A    between atoms: C_22  and  C_24
REMARK    8  A    between atoms: C_24  and  C_26
REMARK                            x       y       z     vdW  Elec       q    Type
REMARK                         _______ _______ _______ _____ _____    ______ ____
ROOT
ATOM      1  N   UNL     1      35.432 -20.416 -20.310  0.00  0.00    +0.387 N 
ATOM      2  C   UNL     1      34.147 -22.572 -18.721  0.00  0.00    +0.103 C 
ATOM      3  C   UNL     1      33.368 -21.427 -19.405  0.00  0.00    +0.008 C 
ATOM      4  C   UNL     1      35.610 -22.117 -18.512  0.00  0.00    +0.008 C 
ATOM      5  C   UNL     1      34.079 -20.874 -20.646  0.00  0.00    -0.075 C 
ATOM      6  C   UNL     1      36.243 -21.513 -19.773  0.00  0.00    -0.075 C 
ATOM      7  H   UNL     1      35.351 -19.701 -19.587  0.00  0.00    -0.080 HD
ENDROOT
BRANCH   2   8
ATOM      8  C   UNL     1      33.546 -23.065 -17.404  0.00  0.00    +0.002 C 
ATOM      9  C   UNL     1      34.382 -23.466 -16.364  0.00  0.00    +0.002 C 
ATOM     10  C   UNL     1      32.161 -23.110 -17.246  0.00  0.00    -0.002 C 
ATOM     11  C   UNL     1      33.833 -23.914 -15.161  0.00  0.00    +0.071 C 
ATOM     12  C   UNL     1      31.613 -23.558 -16.044  0.00  0.00    -0.000 C 
ATOM     13  C   UNL     1      32.449 -23.961 -15.002  0.00  0.00    +0.004 C 
BRANCH  11  17
ATOM     14  F   UNL     1      35.645 -23.400 -13.686  0.00  0.00    -0.166 F 
ATOM     15  F   UNL     1      34.059 -24.652 -12.898  0.00  0.00    -0.166 F 
ATOM     16  F   UNL     1      35.453 -25.459 -14.359  0.00  0.00    -0.166 F 
ATOM     17  C   UNL     1      34.727 -24.346 -14.048  0.00  0.00    +0.419 C 
ENDBRANCH  11  17
ENDBRANCH   2   8
BRANCH   2  18
ATOM     18  O   UNL     1      34.122 -23.707 -19.601  0.00  0.00    -0.383 OA
ATOM     19  H   UNL     1      33.521 -23.527 -20.342  0.00  0.00    +0.211 HD
ENDBRANCH   2  18
BRANCH   1  20
ATOM     20  C   UNL     1      36.079 -19.825 -21.481  0.00  0.00    -0.077 C 
BRANCH  20  21
ATOM     21  C   UNL     1      35.031 -19.208 -22.409  0.00  0.00    -0.015 C 
BRANCH  21  22
ATOM     22  C   UNL     1      35.592 -18.037 -23.221  0.00  0.00    +0.067 C 
BRANCH  22  24
ATOM     23  O   UNL     1      34.111 -18.204 -25.120  0.00  0.00    -0.291 OA
ATOM     24  C   UNL     1      34.613 -17.493 -24.253  0.00  0.00    +0.173 C 
BRANCH  24  26
ATOM     25  F   UNL     1      33.215 -12.093 -24.023  0.00  0.00    -0.204 F 
ATOM     26  C   UNL     1      34.239 -16.052 -24.191  0.00  0.00    +0.035 C 
ATOM     27  C   UNL     1      34.626 -15.315 -23.094  0.00  0.00    +0.005 C 
ATOM     28  C   UNL     1      33.522 -15.510 -25.234  0.00  0.00    +0.005 C 
ATOM     29  C   UNL     1      34.277 -13.965 -23.037  0.00  0.00    +0.030 C 
ATOM     30  C   UNL     1      33.173 -14.161 -25.176  0.00  0.00    +0.030 C 
ATOM     31  C   UNL     1      33.550 -13.388 -24.078  0.00  0.00    +0.140 C 
ENDBRANCH  24  26
ENDBRANCH  22  24
ENDBRANCH  21  22
ENDBRANCH  20  21
ENDBRANCH   1  20
TORSDOF 8
ENDMDL
MODEL 4
REMARK VINA RESULT:     -11.3      3.128     11.238
REMARK  Name = 5567
REMARK  8 active torsions:
REMARK  status: ('A' for Active; 'I' for Inactive)
REMARK    1  A    between atoms: N_1  and  C_20
REMARK    2  A    between atoms: C_2  and  C_8
REMARK    3  A    between atoms: C_2  and  O_18
REMARK    4  A    between atoms: C_11  and  C_17
REMARK    5  A    between atoms: C_20  and  C_21
REMARK    6  A    between atoms: C_21  and  C_22
REMARK    7  A    between atoms: C_22  and  C_24
REMARK    8  A    between atoms: C_24  and  C_26
REMARK                            x       y       z     vdW  Elec       q    Type
REMARK                         _______ _______ _______ _____ _____    ______ ____
ROOT
ATOM      1  N   UNL     1      34.494 -15.852 -24.302  0.00  0.00    +0.387 N 
ATOM      2  C   UNL     1      33.418 -13.150 -23.695  0.00  0.00    +0.103 C 
ATOM      3  C   UNL     1      33.392 -13.790 -25.100  0.00  0.00    +0.008 C 
ATOM      4  C   UNL     1      34.531 -13.829 -22.864  0.00  0.00    +0.008 C 
ATOM      5  C   UNL     1      33.356 -15.323 -25.062  0.00  0.00    -0.075 C 
ATOM      6  C   UNL     1      34.479 -15.361 -22.920  0.00  0.00    -0.075 C 
ATOM      7  H   UNL     1      35.350 -15.518 -24.746  0.00  0.00    -0.080 HD
ENDROOT
BRANCH   2   8
ATOM      8  C   UNL     1      33.590 -11.630 -23.682  0.00  0.00    +0.002 C 
ATOM      9  C   UNL     1      32.713 -10.837 -22.944  0.00  0.00    +0.002 C 
ATOM     10  C   UNL     1      34.625 -11.041 -24.405  0.00  0.00    -0.002 C 
ATOM     11  C   UNL     1      32.870  -9.451 -22.930  0.00  0.00    +0.071 C 
ATOM     12  C   UNL     1      34.783  -9.655 -24.392  0.00  0.00    -0.000 C 
ATOM     13  C   UNL     1      33.905  -8.860 -23.655  0.00  0.00    +0.004 C 
BRANCH  11  17
ATOM     14  F   UNL     1      31.374  -9.246 -21.075  0.00  0.00    -0.166 F 
ATOM     15  F   UNL     1      32.515  -7.483 -21.618  0.00  0.00    -0.166 F 
ATOM     16  F   UNL     1      30.880  -8.151 -22.888  0.00  0.00    -0.166 F 
ATOM     17  C   UNL     1      31.931  -8.601 -22.143  0.00  0.00    +0.419 C 
ENDBRANCH  11  17
ENDBRANCH   2   8
BRANCH   2  18
ATOM     18  O   UNL     1      32.145 -13.395 -23.078  0.00  0.00    -0.383 OA
ATOM     19  H   UNL     1      32.131 -12.994 -22.194  0.00  0.00    +0.211 HD
ENDBRANCH   2  18
BRANCH   1  20
ATOM     20  C   UNL     1      34.493 -17.314 -24.328  0.00  0.00    -0.077 C 
BRANCH  20  21
ATOM     21  C   UNL     1      35.575 -17.860 -23.393  0.00  0.00    -0.015 C 
BRANCH  21  22
ATOM     22  C   UNL     1      35.200 -19.225 -22.808  0.00  0.00    +0.067 C 
BRANCH  22  24
ATOM     23  O   UNL     1      36.511 -18.697 -20.851  0.00  0.00    -0.291 OA
ATOM     24  C   UNL     1      35.652 -19.408 -21.365  0.00  0.00    +0.173 C 
BRANCH  24  26
ATOM     25  F   UNL     1      33.246 -23.404 -18.296  0.00  0.00    -0.204 F 
ATOM     26  C   UNL     1      35.010 -20.475 -20.547  0.00  0.00    +0.035 C 
ATOM     27  C   UNL     1      35.815 -21.345 -19.845  0.00  0.00    +0.005 C 
ATOM     28  C   UNL     1      33.636 -20.552 -20.522  0.00  0.00    +0.005 C 
ATOM     29  C   UNL     1      35.213 -22.343 -19.078  0.00  0.00    +0.030 C 
ATOM     30  C   UNL     1      33.034 -21.551 -19.755  0.00  0.00    +0.030 C 
ATOM     31  C   UNL     1      33.823 -22.446 -19.033  0.00  0.00    +0.140 C 
ENDBRANCH  24  26
ENDBRANCH  22  24
ENDBRANCH  21  22
ENDBRANCH  20  21
ENDBRANCH   1  20
TORSDOF 8
ENDMDL
MODEL 5
REMARK VINA RESULT:     -11.1      3.269     11.052
REMARK  Name = 5567
REMARK  8 active torsions:
REMARK  status: ('A' for Active; 'I' for Inactive)
REMARK    1  A    between atoms: N_1  and  C_20
REMARK    2  A    between atoms: C_2  and  C_8
REMARK    3  A    between atoms: C_2  and  O_18
REMARK    4  A    between atoms: C_11  and  C_17
REMARK    5  A    between atoms: C_20  and  C_21
REMARK    6  A    between atoms: C_21  and  C_22
REMARK    7  A    between atoms: C_22  and  C_24
REMARK    8  A    between atoms: C_24  and  C_26
REMARK                            x       y       z     vdW  Elec       q    Type
REMARK                         _______ _______ _______ _____ _____    ______ ____
ROOT
ATOM      1  N   UNL     1      33.931 -15.969 -24.059  0.00  0.00    +0.387 N 
ATOM      2  C   UNL     1      33.551 -13.127 -23.282  0.00  0.00    +0.103 C 
ATOM      3  C   UNL     1      34.114 -14.209 -22.335  0.00  0.00    +0.008 C 
ATOM      4  C   UNL     1      32.733 -13.822 -24.394  0.00  0.00    +0.008 C 
ATOM      5  C   UNL     1      34.827 -15.346 -23.077  0.00  0.00    -0.075 C 
ATOM      6  C   UNL     1      33.476 -14.991 -25.052  0.00  0.00    -0.075 C 
ATOM      7  H   UNL     1      33.112 -16.316 -23.560  0.00  0.00    -0.080 HD
ENDROOT
BRANCH   2   8
ATOM      8  C   UNL     1      32.716 -12.042 -22.598  0.00  0.00    +0.002 C 
ATOM      9  C   UNL     1      32.763 -10.730 -23.066  0.00  0.00    +0.002 C 
ATOM     10  C   UNL     1      31.908 -12.370 -21.511  0.00  0.00    -0.002 C 
ATOM     11  C   UNL     1      32.000  -9.741 -22.444  0.00  0.00    +0.071 C 
ATOM     12  C   UNL     1      31.145 -11.381 -20.889  0.00  0.00    -0.000 C 
ATOM     13  C   UNL     1      31.192 -10.067 -21.355  0.00  0.00    +0.004 C 
BRANCH  11  17
ATOM     14  F   UNL     1      30.867  -7.900 -23.469  0.00  0.00    -0.166 F 
ATOM     15  F   UNL     1      32.367  -7.425 -21.975  0.00  0.00    -0.166 F 
ATOM     16  F   UNL     1      32.976  -8.162 -23.928  0.00  0.00    -0.166 F 
ATOM     17  C   UNL     1      32.050  -8.337 -22.942  0.00  0.00    +0.419 C 
ENDBRANCH  11  17
ENDBRANCH   2   8
BRANCH   2  18
ATOM     18  O   UNL     1      34.665 -12.437 -23.870  0.00  0.00    -0.383 OA
ATOM     19  H   UNL     1      35.404 -13.055 -23.985  0.00  0.00    +0.211 HD
ENDBRANCH   2  18
BRANCH   1  20
ATOM     20  C   UNL     1      34.593 -17.097 -24.714  0.00  0.00    -0.077 C 
BRANCH  20  21
ATOM     21  C   UNL     1      35.493 -17.832 -23.719  0.00  0.00    -0.015 C 
BRANCH  21  22
ATOM     22  C   UNL     1      34.742 -18.928 -22.956  0.00  0.00    +0.067 C 
BRANCH  22  24
ATOM     23  O   UNL     1      35.728 -18.109 -20.910  0.00  0.00    -0.291 OA
ATOM     24  C   UNL     1      35.128 -19.013 -21.486  0.00  0.00    +0.173 C 
BRANCH  24  26
ATOM     25  F   UNL     1      33.683 -23.576 -18.609  0.00  0.00    -0.204 F 
ATOM     26  C   UNL     1      34.742 -20.230 -20.717  0.00  0.00    +0.035 C 
ATOM     27  C   UNL     1      33.404 -20.510 -20.548  0.00  0.00    +0.005 C 
ATOM     28  C   UNL     1      35.738 -21.032 -20.205  0.00  0.00    +0.005 C 
ATOM     29  C   UNL     1      33.043 -21.650 -19.829  0.00  0.00    +0.030 C 
ATOM     30  C   UNL     1      35.377 -22.171 -19.486  0.00  0.00    +0.030 C 
ATOM     31  C   UNL     1      34.030 -22.481 -19.299  0.00  0.00    +0.140 C 
ENDBRANCH  24  26
ENDBRANCH  22  24
ENDBRANCH  21  22
ENDBRANCH  20  21
ENDBRANCH   1  20
TORSDOF 8
ENDMDL
MODEL 6
REMARK VINA RESULT:     -11.0      3.366      5.797
REMARK  Name = 5567
REMARK  8 active torsions:
REMARK  status: ('A' for Active; 'I' for Inactive)
REMARK    1  A    between atoms: N_1  and  C_20
REMARK    2  A    between atoms: C_2  and  C_8
REMARK    3  A    between atoms: C_2  and  O_18
REMARK    4  A    between atoms: C_11  and  C_17
REMARK    5  A    between atoms: C_20  and  C_21
REMARK    6  A    between atoms: C_21  and  C_22
REMARK    7  A    between atoms: C_22  and  C_24
REMARK    8  A    between atoms: C_24  and  C_26
REMARK                            x       y       z     vdW  Elec       q    Type
REMARK                         _______ _______ _______ _____ _____    ______ ____
ROOT
ATOM      1  N   UNL     1      34.268 -16.352 -23.707  0.00  0.00    +0.387 N 
ATOM      2  C   UNL     1      35.791 -18.447 -22.253  0.00  0.00    +0.103 C 
ATOM      3  C   UNL     1      34.911 -18.727 -23.491  0.00  0.00    +0.008 C 
ATOM      4  C   UNL     1      35.315 -17.131 -21.597  0.00  0.00    +0.008 C 
ATOM      5  C   UNL     1      34.789 -17.519 -24.428  0.00  0.00    -0.075 C 
ATOM      6  C   UNL     1      35.150 -15.980 -22.597  0.00  0.00    -0.075 C 
ATOM      7  H   UNL     1      33.360 -16.604 -23.318  0.00  0.00    -0.080 HD
ENDROOT
BRANCH   2   8
ATOM      8  C   UNL     1      35.833 -19.577 -21.222  0.00  0.00    +0.002 C 
ATOM      9  C   UNL     1      34.660 -20.242 -20.871  0.00  0.00    +0.002 C 
ATOM     10  C   UNL     1      37.046 -19.940 -20.638  0.00  0.00    -0.002 C 
ATOM     11  C   UNL     1      34.698 -21.273 -19.932  0.00  0.00    +0.071 C 
ATOM     12  C   UNL     1      37.084 -20.971 -19.699  0.00  0.00    -0.000 C 
ATOM     13  C   UNL     1      35.910 -21.637 -19.346  0.00  0.00    +0.004 C 
BRANCH  11  17
ATOM     14  F   UNL     1      33.422 -23.297 -19.933  0.00  0.00    -0.166 F 
ATOM     15  F   UNL     1      33.208 -21.999 -18.208  0.00  0.00    -0.166 F 
ATOM     16  F   UNL     1      32.333 -21.424 -20.114  0.00  0.00    -0.166 F 
ATOM     17  C   UNL     1      33.443 -21.984 -19.553  0.00  0.00    +0.419 C 
ENDBRANCH  11  17
ENDBRANCH   2   8
BRANCH   2  18
ATOM     18  O   UNL     1      37.146 -18.292 -22.704  0.00  0.00    -0.383 OA
ATOM     19  H   UNL     1      37.613 -17.675 -22.119  0.00  0.00    +0.211 HD
ENDBRANCH   2  18
BRANCH   1  20
ATOM     20  C   UNL     1      34.088 -15.224 -24.621  0.00  0.00    -0.077 C 
BRANCH  20  21
ATOM     21  C   UNL     1      33.207 -14.154 -23.973  0.00  0.00    -0.015 C 
BRANCH  21  22
ATOM     22  C   UNL     1      34.014 -12.935 -23.518  0.00  0.00    +0.067 C 
BRANCH  22  24
ATOM     23  O   UNL     1      33.890 -11.862 -25.677  0.00  0.00    -0.291 OA
ATOM     24  C   UNL     1      33.886 -11.741 -24.454  0.00  0.00    +0.173 C 
BRANCH  24  26
ATOM     25  F   UNL     1      33.292  -6.652 -22.235  0.00  0.00    -0.204 F 
ATOM     26  C   UNL     1      33.728 -10.383 -23.861  0.00  0.00    +0.035 C 
ATOM     27  C   UNL     1      34.712  -9.446 -24.083  0.00  0.00    +0.005 C 
ATOM     28  C   UNL     1      32.603 -10.115 -23.115  0.00  0.00    +0.005 C 
ATOM     29  C   UNL     1      34.564  -8.174 -23.528  0.00  0.00    +0.030 C 
ATOM     30  C   UNL     1      32.454  -8.843 -22.560  0.00  0.00    +0.030 C 
ATOM     31  C   UNL     1      33.435  -7.873 -22.767  0.00  0.00    +0.140 C 
ENDBRANCH  24  26
ENDBRANCH  22  24
ENDBRANCH  21  22
ENDBRANCH  20  21
ENDBRANCH   1  20
TORSDOF 8
ENDMDL
MODEL 7
REMARK VINA RESULT:     -10.8      3.582      9.725
REMARK  Name = 5567
REMARK  8 active torsions:
REMARK  status: ('A' for Active; 'I' for Inactive)
REMARK    1  A    between atoms: N_1  and  C_20
REMARK    2  A    between atoms: C_2  and  C_8
REMARK    3  A    between atoms: C_2  and  O_18
REMARK    4  A    between atoms: C_11  and  C_17
REMARK    5  A    between atoms: C_20  and  C_21
REMARK    6  A    between atoms: C_21  and  C_22
REMARK    7  A    between atoms: C_22  and  C_24
REMARK    8  A    between atoms: C_24  and  C_26
REMARK                            x       y       z     vdW  Elec       q    Type
REMARK                         _______ _______ _______ _____ _____    ______ ____
ROOT
ATOM      1  N   UNL     1      34.264 -23.475 -15.888  0.00  0.00    +0.387 N 
ATOM      2  C   UNL     1      34.269 -22.572 -18.718  0.00  0.00    +0.103 C 
ATOM      3  C   UNL     1      35.458 -22.379 -17.752  0.00  0.00    +0.008 C 
ATOM      4  C   UNL     1      32.979 -22.751 -17.884  0.00  0.00    +0.008 C 
ATOM      5  C   UNL     1      35.518 -23.444 -16.651  0.00  0.00    -0.075 C 
ATOM      6  C   UNL     1      33.125 -23.783 -16.757  0.00  0.00    -0.075 C 
ATOM      7  H   UNL     1      34.116 -22.547 -15.490  0.00  0.00    -0.080 HD
ENDROOT
BRANCH   2   8
ATOM      8  C   UNL     1      34.089 -21.459 -19.752  0.00  0.00    +0.002 C 
ATOM      9  C   UNL     1      35.194 -20.734 -20.193  0.00  0.00    +0.002 C 
ATOM     10  C   UNL     1      32.820 -21.175 -20.253  0.00  0.00    -0.002 C 
ATOM     11  C   UNL     1      35.031 -19.719 -21.137  0.00  0.00    +0.071 C 
ATOM     12  C   UNL     1      32.656 -20.161 -21.197  0.00  0.00    -0.000 C 
ATOM     13  C   UNL     1      33.761 -19.433 -21.638  0.00  0.00    +0.004 C 
BRANCH  11  17
ATOM     14  F   UNL     1      37.390 -19.339 -21.041  0.00  0.00    -0.166 F 
ATOM     15  F   UNL     1      36.419 -19.022 -22.955  0.00  0.00    -0.166 F 
ATOM     16  F   UNL     1      36.107 -17.608 -21.332  0.00  0.00    -0.166 F 
ATOM     17  C   UNL     1      36.212 -18.940 -21.607  0.00  0.00    +0.419 C 
ENDBRANCH  11  17
ENDBRANCH   2   8
BRANCH   2  18
ATOM     18  O   UNL     1      34.512 -23.765 -19.480  0.00  0.00    -0.383 OA
ATOM     19  H   UNL     1      35.174 -24.309 -19.025  0.00  0.00    +0.211 HD
ENDBRANCH   2  18
BRANCH   1  20
ATOM     20  C   UNL     1      34.353 -24.443 -14.795  0.00  0.00    -0.077 C 
BRANCH  20  21
ATOM     21  C   UNL     1      33.322 -24.115 -13.713  0.00  0.00    -0.015 C 
BRANCH  21  22
ATOM     22  C   UNL     1      32.236 -25.190 -13.602  0.00  0.00    +0.067 C 
BRANCH  22  24
ATOM     23  O   UNL     1      30.372 -24.426 -12.273  0.00  0.00    -0.291 OA
ATOM     24  C   UNL     1      30.841 -24.619 -13.392  0.00  0.00    +0.173 C 
BRANCH  24  26
ATOM     25  F   UNL     1      27.792 -23.286 -17.875  0.00  0.00    -0.204 F 
ATOM     26  C   UNL     1      30.028 -24.264 -14.589  0.00  0.00    +0.035 C 
ATOM     27  C   UNL     1      29.418 -25.274 -15.299  0.00  0.00    +0.005 C 
ATOM     28  C   UNL     1      29.914 -22.938 -14.941  0.00  0.00    +0.005 C 
ATOM     29  C   UNL     1      28.657 -24.941 -16.419  0.00  0.00    +0.030 C 
ATOM     30  C   UNL     1      29.153 -22.604 -16.061  0.00  0.00    +0.030 C 
ATOM     31  C   UNL     1      28.523 -23.606 -16.800  0.00  0.00    +0.140 C 
ENDBRANCH  24  26
ENDBRANCH  22  24
ENDBRANCH  21  22
ENDBRANCH  20  21
ENDBRANCH   1  20
TORSDOF 8
ENDMDL
MODEL 8
REMARK VINA RESULT:     -10.8      3.511      5.859
REMARK  Name = 5567
REMARK  8 active torsions:
REMARK  status: ('A' for Active; 'I' for Inactive)
REMARK    1  A    between atoms: N_1  and  C_20
REMARK    2  A    between atoms: C_2  and  C_8
REMARK    3  A    between atoms: C_2  and  O_18
REMARK    4  A    between atoms: C_11  and  C_17
REMARK    5  A    between atoms: C_20  and  C_21
REMARK    6  A    between atoms: C_21  and  C_22
REMARK    7  A    between atoms: C_22  and  C_24
REMARK    8  A    between atoms: C_24  and  C_26
REMARK                            x       y       z     vdW  Elec       q    Type
REMARK                         _______ _______ _______ _____ _____    ______ ____
ROOT
ATOM      1  N   UNL     1      34.261 -16.228 -23.323  0.00  0.00    +0.387 N 
ATOM      2  C   UNL     1      35.823 -18.383 -22.005  0.00  0.00    +0.103 C 
ATOM      3  C   UNL     1      34.980 -18.591 -23.282  0.00  0.00    +0.008 C 
ATOM      4  C   UNL     1      35.288 -17.140 -21.257  0.00  0.00    +0.008 C 
ATOM      5  C   UNL     1      34.837 -17.316 -24.122  0.00  0.00    -0.075 C 
ATOM      6  C   UNL     1      35.106 -15.918 -22.166  0.00  0.00    -0.075 C 
ATOM      7  H   UNL     1      33.353 -16.540 -22.977  0.00  0.00    -0.080 HD
ENDROOT
BRANCH   2   8
ATOM      8  C   UNL     1      35.882 -19.590 -21.067  0.00  0.00    +0.002 C 
ATOM      9  C   UNL     1      34.715 -20.286 -20.755  0.00  0.00    +0.002 C 
ATOM     10  C   UNL     1      37.103 -19.993 -20.528  0.00  0.00    -0.002 C 
ATOM     11  C   UNL     1      34.769 -21.388 -19.901  0.00  0.00    +0.071 C 
ATOM     12  C   UNL     1      37.156 -21.095 -19.674  0.00  0.00    -0.000 C 
ATOM     13  C   UNL     1      35.989 -21.792 -19.360  0.00  0.00    +0.004 C 
BRANCH  11  17
ATOM     14  F   UNL     1      32.409 -21.649 -20.195  0.00  0.00    -0.166 F 
ATOM     15  F   UNL     1      33.569 -23.457 -19.893  0.00  0.00    -0.166 F 
ATOM     16  F   UNL     1      33.230 -22.095 -18.232  0.00  0.00    -0.166 F 
ATOM     17  C   UNL     1      33.521 -22.132 -19.564  0.00  0.00    +0.419 C 
ENDBRANCH  11  17
ENDBRANCH   2   8
BRANCH   2  18
ATOM     18  O   UNL     1      37.181 -18.148 -22.410  0.00  0.00    -0.383 OA
ATOM     19  H   UNL     1      37.202 -17.922 -23.353  0.00  0.00    +0.211 HD
ENDBRANCH   2  18
BRANCH   1  20
ATOM     20  C   UNL     1      34.062 -15.037 -24.148  0.00  0.00    -0.077 C 
BRANCH  20  21
ATOM     21  C   UNL     1      34.107 -13.778 -23.279  0.00  0.00    -0.015 C 
BRANCH  21  22
ATOM     22  C   UNL     1      32.759 -13.053 -23.236  0.00  0.00    +0.067 C 
BRANCH  22  24
ATOM     23  O   UNL     1      31.897 -13.808 -21.111  0.00  0.00    -0.291 OA
ATOM     24  C   UNL     1      32.220 -12.862 -21.825  0.00  0.00    +0.173 C 
BRANCH  24  26
ATOM     25  F   UNL     1      31.782  -7.671 -19.813  0.00  0.00    -0.204 F 
ATOM     26  C   UNL     1      32.105 -11.476 -21.288  0.00  0.00    +0.035 C 
ATOM     27  C   UNL     1      32.118 -10.421 -22.172  0.00  0.00    +0.005 C 
ATOM     28  C   UNL     1      31.987 -11.302 -19.927  0.00  0.00    +0.005 C 
ATOM     29  C   UNL     1      32.008  -9.124 -21.670  0.00  0.00    +0.030 C 
ATOM     30  C   UNL     1      31.878 -10.005 -19.425  0.00  0.00    +0.030 C 
ATOM     31  C   UNL     1      31.888  -8.916 -20.296  0.00  0.00    +0.140 C 
ENDBRANCH  24  26
ENDBRANCH  22  24
ENDBRANCH  21  22
ENDBRANCH  20  21
ENDBRANCH   1  20
TORSDOF 8
ENDMDL
MODEL 9
REMARK VINA RESULT:     -10.5      6.702     10.459
REMARK  Name = 5567
REMARK  8 active torsions:
REMARK  status: ('A' for Active; 'I' for Inactive)
REMARK    1  A    between atoms: N_1  and  C_20
REMARK    2  A    between atoms: C_2  and  C_8
REMARK    3  A    between atoms: C_2  and  O_18
REMARK    4  A    between atoms: C_11  and  C_17
REMARK    5  A    between atoms: C_20  and  C_21
REMARK    6  A    between atoms: C_21  and  C_22
REMARK    7  A    between atoms: C_22  and  C_24
REMARK    8  A    between atoms: C_24  and  C_26
REMARK                            x       y       z     vdW  Elec       q    Type
REMARK                         _______ _______ _______ _____ _____    ______ ____
ROOT
ATOM      1  N   UNL     1      32.224 -11.283 -22.604  0.00  0.00    +0.387 N 
ATOM      2  C   UNL     1      33.812 -13.725 -23.187  0.00  0.00    +0.103 C 
ATOM      3  C   UNL     1      33.762 -12.490 -24.113  0.00  0.00    +0.008 C 
ATOM      4  C   UNL     1      32.550 -13.724 -22.295  0.00  0.00    +0.008 C 
ATOM      5  C   UNL     1      33.478 -11.185 -23.361  0.00  0.00    -0.075 C 
ATOM      6  C   UNL     1      32.284 -12.370 -21.622  0.00  0.00    -0.075 C 
ATOM      7  H   UNL     1      31.475 -11.494 -23.263  0.00  0.00    -0.080 HD
ENDROOT
BRANCH   2   8
ATOM      8  C   UNL     1      33.959 -15.067 -23.906  0.00  0.00    +0.002 C 
ATOM      9  C   UNL     1      34.563 -16.142 -23.257  0.00  0.00    +0.002 C 
ATOM     10  C   UNL     1      33.487 -15.211 -25.210  0.00  0.00    -0.002 C 
ATOM     11  C   UNL     1      34.695 -17.367 -23.913  0.00  0.00    +0.071 C 
ATOM     12  C   UNL     1      33.620 -16.436 -25.866  0.00  0.00    -0.000 C 
ATOM     13  C   UNL     1      34.224 -17.513 -25.217  0.00  0.00    +0.004 C 
BRANCH  11  17
ATOM     14  F   UNL     1      36.674 -18.330 -22.975  0.00  0.00    -0.166 F 
ATOM     15  F   UNL     1      34.794 -18.802 -22.003  0.00  0.00    -0.166 F 
ATOM     16  F   UNL     1      35.263 -19.675 -23.938  0.00  0.00    -0.166 F 
ATOM     17  C   UNL     1      35.343 -18.518 -23.220  0.00  0.00    +0.419 C 
ENDBRANCH  11  17
ENDBRANCH   2   8
BRANCH   2  18
ATOM     18  O   UNL     1      34.980 -13.606 -22.360  0.00  0.00    -0.383 OA
ATOM     19  H   UNL     1      34.947 -14.272 -21.655  0.00  0.00    +0.211 HD
ENDBRANCH   2  18
BRANCH   1  20
ATOM     20  C   UNL     1      31.922 -10.013 -21.945  0.00  0.00    -0.077 C 
BRANCH  20  21
ATOM     21  C   UNL     1      32.019  -8.861 -22.948  0.00  0.00    -0.015 C 
BRANCH  21  22
ATOM     22  C   UNL     1      32.669  -7.615 -22.340  0.00  0.00    +0.067 C 
BRANCH  22  24
ATOM     23  O   UNL     1      35.001  -7.578 -22.965  0.00  0.00    -0.291 OA
ATOM     24  C   UNL     1      33.874  -7.117 -23.128  0.00  0.00    +0.173 C 
BRANCH  24  26
ATOM     25  F   UNL     1      33.105  -3.110 -26.939  0.00  0.00    -0.204 F 
ATOM     26  C   UNL     1      33.668  -6.048 -24.146  0.00  0.00    +0.035 C 
ATOM     27  C   UNL     1      32.543  -5.258 -24.057  0.00  0.00    +0.005 C 
ATOM     28  C   UNL     1      34.610  -5.889 -25.136  0.00  0.00    +0.005 C 
ATOM     29  C   UNL     1      32.351  -4.257 -25.009  0.00  0.00    +0.030 C 
ATOM     30  C   UNL     1      34.418  -4.888 -26.089  0.00  0.00    +0.030 C 
ATOM     31  C   UNL     1      33.289  -4.071 -26.025  0.00  0.00    +0.140 C 
ENDBRANCH  24  26
ENDBRANCH  22  24
ENDBRANCH  21  22
ENDBRANCH  20  21
ENDBRANCH   1  20
TORSDOF 8
ENDMDL
