MODEL 1
REMARK VINA RESULT:     -11.4      0.000      0.000
REMARK  Name = 71360
REMARK  8 active torsions:
REMARK  status: ('A' for Active; 'I' for Inactive)
REMARK    1  A    between atoms: N_1  and  C_18
REMARK    2  A    between atoms: C_2  and  C_11
REMARK    3  A    between atoms: C_18  and  C_19
REMARK    4  A    between atoms: C_19  and  C_20
REMARK    5  A    between atoms: C_20  and  O_21
REMARK    6  A    between atoms: O_21  and  C_22
REMARK    7  A    between atoms: C_23  and  O_31
REMARK    8  A    between atoms: C_27  and  C_29
REMARK                            x       y       z     vdW  Elec       q    Type
REMARK                         _______ _______ _______ _____ _____    ______ ____
ROOT
ATOM      1  N   UNL     1      35.255 -17.210 -24.439  0.00  0.00    +0.387 N 
ATOM      2  C   UNL     1      34.926 -18.845 -22.026  0.00  0.00    +0.039 C 
ATOM      3  C   UNL     1      35.748 -17.547 -22.037  0.00  0.00    -0.017 C 
ATOM      4  C   UNL     1      34.876 -19.443 -23.441  0.00  0.00    -0.017 C 
ATOM      5  C   UNL     1      35.244 -16.580 -23.112  0.00  0.00    -0.077 C 
ATOM      6  C   UNL     1      34.403 -18.409 -24.465  0.00  0.00    -0.077 C 
ATOM      7  H   UNL     1      36.211 -17.500 -24.643  0.00  0.00    -0.080 HD
ENDROOT
BRANCH   2  11
ATOM      8  F   UNL     1      33.581 -23.710 -17.582  0.00  0.00    -0.204 F 
ATOM      9  O   UNL     1      36.822 -20.887 -19.741  0.00  0.00    -0.354 OA
ATOM     10  N   UNL     1      36.712 -19.898 -20.710  0.00  0.00    -0.081 NA
ATOM     11  C   UNL     1      35.413 -19.835 -20.991  0.00  0.00    +0.100 A 
ATOM     12  C   UNL     1      34.645 -20.745 -20.249  0.00  0.00    +0.054 A 
ATOM     13  C   UNL     1      35.587 -21.391 -19.467  0.00  0.00    +0.179 A 
ATOM     14  C   UNL     1      33.295 -21.107 -20.129  0.00  0.00    +0.007 C 
ATOM     15  C   UNL     1      35.291 -22.397 -18.553  0.00  0.00    +0.070 C 
ATOM     16  C   UNL     1      32.960 -22.118 -19.216  0.00  0.00    +0.030 C 
ATOM     17  C   UNL     1      33.941 -22.749 -18.443  0.00  0.00    +0.143 C 
ENDBRANCH   2  11
BRANCH   1  18
ATOM     18  C   UNL     1      34.825 -16.257 -25.462  0.00  0.00    -0.074 C 
BRANCH  18  19
ATOM     19  C   UNL     1      33.370 -15.861 -25.239  0.00  0.00    +0.025 C 
BRANCH  19  20
ATOM     20  C   UNL     1      33.196 -14.349 -25.234  0.00  0.00    +0.203 C 
BRANCH  20  21
ATOM     21  O   UNL     1      33.681 -13.834 -24.002  0.00  0.00    -0.472 OA
BRANCH  21  22
ATOM     22  C   UNL     1      33.589 -12.479 -23.819  0.00  0.00    +0.172 C 
ATOM     23  C   UNL     1      32.677 -11.956 -22.907  0.00  0.00    +0.172 C 
ATOM     24  C   UNL     1      34.415 -11.637 -24.555  0.00  0.00    +0.040 C 
ATOM     25  C   UNL     1      32.592 -10.575 -22.730  0.00  0.00    +0.043 C 
ATOM     26  C   UNL     1      34.330 -10.255 -24.377  0.00  0.00    +0.006 C 
ATOM     27  C   UNL     1      33.418  -9.725 -23.465  0.00  0.00    +0.038 C 
BRANCH  27  29
ATOM     28  O   UNL     1      32.237  -7.722 -23.067  0.00  0.00    -0.291 OA
ATOM     29  C   UNL     1      33.330  -8.285 -23.279  0.00  0.00    +0.174 C 
ATOM     30  C   UNL     1      34.587  -7.424 -23.340  0.00  0.00    +0.077 C 
ENDBRANCH  27  29
BRANCH  23  31
ATOM     31  O   UNL     1      31.866 -12.776 -22.183  0.00  0.00    -0.468 OA
ATOM     32  C   UNL     1      32.157 -12.913 -20.794  0.00  0.00    +0.253 C 
ENDBRANCH  23  31
ENDBRANCH  21  22
ENDBRANCH  20  21
ENDBRANCH  19  20
ENDBRANCH  18  19
ENDBRANCH   1  18
TORSDOF 8
ENDMDL
MODEL 2
REMARK VINA RESULT:     -11.3      3.974     11.269
REMARK  Name = 71360
REMARK  8 active torsions:
REMARK  status: ('A' for Active; 'I' for Inactive)
REMARK    1  A    between atoms: N_1  and  C_18
REMARK    2  A    between atoms: C_2  and  C_11
REMARK    3  A    between atoms: C_18  and  C_19
REMARK    4  A    between atoms: C_19  and  C_20
REMARK    5  A    between atoms: C_20  and  O_21
REMARK    6  A    between atoms: O_21  and  C_22
REMARK    7  A    between atoms: C_23  and  O_31
REMARK    8  A    between atoms: C_27  and  C_29
REMARK                            x       y       z     vdW  Elec       q    Type
REMARK                         _______ _______ _______ _____ _____    ______ ____
ROOT
ATOM      1  N   UNL     1      35.782 -19.553 -20.962  0.00  0.00    +0.387 N 
ATOM      2  C   UNL     1      35.201 -18.408 -23.599  0.00  0.00    +0.039 C 
ATOM      3  C   UNL     1      36.176 -17.750 -22.611  0.00  0.00    -0.017 C 
ATOM      4  C   UNL     1      34.187 -19.273 -22.833  0.00  0.00    -0.017 C 
ATOM      5  C   UNL     1      36.810 -18.789 -21.681  0.00  0.00    -0.077 C 
ATOM      6  C   UNL     1      34.892 -20.257 -21.897  0.00  0.00    -0.077 C 
ATOM      7  H   UNL     1      35.217 -18.894 -20.426  0.00  0.00    -0.080 HD
ENDROOT
BRANCH   2  11
ATOM      8  F   UNL     1      33.041 -12.143 -24.745  0.00  0.00    -0.204 F 
ATOM      9  O   UNL     1      33.572 -16.664 -26.299  0.00  0.00    -0.354 OA
ATOM     10  N   UNL     1      34.124 -17.799 -25.720  0.00  0.00    -0.081 NA
ATOM     11  C   UNL     1      34.537 -17.406 -24.518  0.00  0.00    +0.100 A 
ATOM     12  C   UNL     1      34.285 -16.050 -24.267  0.00  0.00    +0.054 A 
ATOM     13  C   UNL     1      33.669 -15.620 -25.429  0.00  0.00    +0.179 A 
ATOM     14  C   UNL     1      34.490 -15.132 -23.225  0.00  0.00    +0.007 C 
ATOM     15  C   UNL     1      33.230 -14.319 -25.650  0.00  0.00    +0.070 C 
ATOM     16  C   UNL     1      34.058 -13.811 -23.413  0.00  0.00    +0.030 C 
ATOM     17  C   UNL     1      33.440 -13.414 -24.603  0.00  0.00    +0.143 C 
ENDBRANCH   2  11
BRANCH   1  18
ATOM     18  C   UNL     1      36.403 -20.501 -20.037  0.00  0.00    -0.074 C 
BRANCH  18  19
ATOM     19  C   UNL     1      35.709 -21.856 -20.121  0.00  0.00    +0.025 C 
BRANCH  19  20
ATOM     20  C   UNL     1      34.625 -21.996 -19.061  0.00  0.00    +0.203 C 
BRANCH  20  21
ATOM     21  O   UNL     1      34.971 -23.063 -18.189  0.00  0.00    -0.472 OA
BRANCH  21  22
ATOM     22  C   UNL     1      34.102 -23.331 -17.164  0.00  0.00    +0.172 C 
ATOM     23  C   UNL     1      34.576 -23.832 -15.956  0.00  0.00    +0.172 C 
ATOM     24  C   UNL     1      32.743 -23.098 -17.349  0.00  0.00    +0.040 C 
ATOM     25  C   UNL     1      33.681 -24.101 -14.921  0.00  0.00    +0.043 C 
ATOM     26  C   UNL     1      31.848 -23.367 -16.313  0.00  0.00    +0.006 C 
ATOM     27  C   UNL     1      32.317 -23.869 -15.100  0.00  0.00    +0.038 C 
BRANCH  27  29
ATOM     28  O   UNL     1      31.550 -23.677 -12.877  0.00  0.00    -0.291 OA
ATOM     29  C   UNL     1      31.383 -24.149 -14.019  0.00  0.00    +0.174 C 
ATOM     30  C   UNL     1      30.168 -25.036 -14.265  0.00  0.00    +0.077 C 
ENDBRANCH  27  29
BRANCH  23  31
ATOM     31  O   UNL     1      35.906 -24.061 -15.769  0.00  0.00    -0.468 OA
ATOM     32  C   UNL     1      36.623 -23.112 -14.984  0.00  0.00    +0.253 C 
ENDBRANCH  23  31
ENDBRANCH  21  22
ENDBRANCH  20  21
ENDBRANCH  19  20
ENDBRANCH  18  19
ENDBRANCH   1  18
TORSDOF 8
ENDMDL
MODEL 3
REMARK VINA RESULT:     -11.2      1.047      1.876
REMARK  Name = 71360
REMARK  8 active torsions:
REMARK  status: ('A' for Active; 'I' for Inactive)
REMARK    1  A    between atoms: N_1  and  C_18
REMARK    2  A    between atoms: C_2  and  C_11
REMARK    3  A    between atoms: C_18  and  C_19
REMARK    4  A    between atoms: C_19  and  C_20
REMARK    5  A    between atoms: C_20  and  O_21
REMARK    6  A    between atoms: O_21  and  C_22
REMARK    7  A    between atoms: C_23  and  O_31
REMARK    8  A    between atoms: C_27  and  C_29
REMARK                            x       y       z     vdW  Elec       q    Type
REMARK                         _______ _______ _______ _____ _____    ______ ____
ROOT
ATOM      1  N   UNL     1      35.251 -17.254 -24.329  0.00  0.00    +0.387 N 
ATOM      2  C   UNL     1      34.909 -18.905 -21.928  0.00  0.00    +0.039 C 
ATOM      3  C   UNL     1      35.732 -17.607 -21.927  0.00  0.00    -0.017 C 
ATOM      4  C   UNL     1      34.866 -19.493 -23.347  0.00  0.00    -0.017 C 
ATOM      5  C   UNL     1      35.234 -16.632 -22.998  0.00  0.00    -0.077 C 
ATOM      6  C   UNL     1      34.398 -18.451 -24.366  0.00  0.00    -0.077 C 
ATOM      7  H   UNL     1      36.208 -17.543 -24.530  0.00  0.00    -0.080 HD
ENDROOT
BRANCH   2  11
ATOM      8  F   UNL     1      33.535 -23.778 -17.502  0.00  0.00    -0.204 F 
ATOM      9  O   UNL     1      36.793 -20.969 -19.653  0.00  0.00    -0.354 OA
ATOM     10  N   UNL     1      36.689 -19.975 -20.618  0.00  0.00    -0.081 NA
ATOM     11  C   UNL     1      35.390 -19.902 -20.897  0.00  0.00    +0.100 A 
ATOM     12  C   UNL     1      34.617 -20.809 -20.158  0.00  0.00    +0.054 A 
ATOM     13  C   UNL     1      35.555 -21.465 -19.379  0.00  0.00    +0.179 A 
ATOM     14  C   UNL     1      33.265 -21.163 -20.038  0.00  0.00    +0.007 C 
ATOM     15  C   UNL     1      35.253 -22.472 -18.469  0.00  0.00    +0.070 C 
ATOM     16  C   UNL     1      32.924 -22.175 -19.129  0.00  0.00    +0.030 C 
ATOM     17  C   UNL     1      33.901 -22.816 -18.360  0.00  0.00    +0.143 C 
ENDBRANCH   2  11
BRANCH   1  18
ATOM     18  C   UNL     1      34.827 -16.293 -25.347  0.00  0.00    -0.074 C 
BRANCH  18  19
ATOM     19  C   UNL     1      33.329 -16.033 -25.238  0.00  0.00    +0.025 C 
BRANCH  19  20
ATOM     20  C   UNL     1      33.023 -14.543 -25.167  0.00  0.00    +0.203 C 
BRANCH  20  21
ATOM     21  O   UNL     1      33.797 -13.964 -24.125  0.00  0.00    -0.472 OA
BRANCH  21  22
ATOM     22  C   UNL     1      33.326 -12.799 -23.579  0.00  0.00    +0.172 C 
ATOM     23  C   UNL     1      33.631 -11.577 -24.168  0.00  0.00    +0.172 C 
ATOM     24  C   UNL     1      32.543 -12.856 -22.431  0.00  0.00    +0.040 C 
ATOM     25  C   UNL     1      33.145 -10.397 -23.602  0.00  0.00    +0.043 C 
ATOM     26  C   UNL     1      32.058 -11.676 -21.865  0.00  0.00    +0.006 C 
ATOM     27  C   UNL     1      32.359 -10.447 -22.451  0.00  0.00    +0.038 C 
BRANCH  27  29
ATOM     28  O   UNL     1      31.260  -8.362 -22.550  0.00  0.00    -0.291 OA
ATOM     29  C   UNL     1      31.853  -9.217 -21.861  0.00  0.00    +0.174 C 
ATOM     30  C   UNL     1      32.038  -8.946 -20.373  0.00  0.00    +0.077 C 
ENDBRANCH  27  29
BRANCH  23  31
ATOM     31  O   UNL     1      34.396 -11.515 -25.293  0.00  0.00    -0.468 OA
ATOM     32  C   UNL     1      35.377 -10.481 -25.353  0.00  0.00    +0.253 C 
ENDBRANCH  23  31
ENDBRANCH  21  22
ENDBRANCH  20  21
ENDBRANCH  19  20
ENDBRANCH  18  19
ENDBRANCH   1  18
TORSDOF 8
ENDMDL
MODEL 4
REMARK VINA RESULT:     -11.2      4.860     12.027
REMARK  Name = 71360
REMARK  8 active torsions:
REMARK  status: ('A' for Active; 'I' for Inactive)
REMARK    1  A    between atoms: N_1  and  C_18
REMARK    2  A    between atoms: C_2  and  C_11
REMARK    3  A    between atoms: C_18  and  C_19
REMARK    4  A    between atoms: C_19  and  C_20
REMARK    5  A    between atoms: C_20  and  O_21
REMARK    6  A    between atoms: O_21  and  C_22
REMARK    7  A    between atoms: C_23  and  O_31
REMARK    8  A    between atoms: C_27  and  C_29
REMARK                            x       y       z     vdW  Elec       q    Type
REMARK                         _______ _______ _______ _____ _____    ______ ____
ROOT
ATOM      1  N   UNL     1      34.113 -22.199 -18.820  0.00  0.00    +0.387 N 
ATOM      2  C   UNL     1      34.688 -20.437 -21.094  0.00  0.00    +0.039 C 
ATOM      3  C   UNL     1      35.779 -20.912 -20.121  0.00  0.00    -0.017 C 
ATOM      4  C   UNL     1      33.319 -20.463 -20.395  0.00  0.00    -0.017 C 
ATOM      5  C   UNL     1      35.417 -22.261 -19.494  0.00  0.00    -0.077 C 
ATOM      6  C   UNL     1      33.045 -21.828 -19.760  0.00  0.00    -0.077 C 
ATOM      7  H   UNL     1      34.164 -21.476 -18.101  0.00  0.00    -0.080 HD
ENDROOT
BRANCH   2  11
ATOM      8  F   UNL     1      34.328 -16.256 -26.349  0.00  0.00    -0.204 F 
ATOM      9  O   UNL     1      35.788 -17.088 -21.842  0.00  0.00    -0.354 OA
ATOM     10  N   UNL     1      35.666 -18.187 -21.001  0.00  0.00    -0.081 NA
ATOM     11  C   UNL     1      35.002 -19.094 -21.714  0.00  0.00    +0.100 A 
ATOM     12  C   UNL     1      34.672 -18.647 -23.001  0.00  0.00    +0.054 A 
ATOM     13  C   UNL     1      35.194 -17.366 -23.036  0.00  0.00    +0.179 A 
ATOM     14  C   UNL     1      34.011 -19.144 -24.135  0.00  0.00    +0.007 C 
ATOM     15  C   UNL     1      35.109 -16.513 -24.133  0.00  0.00    +0.070 C 
ATOM     16  C   UNL     1      33.907 -18.312 -25.259  0.00  0.00    +0.030 C 
ATOM     17  C   UNL     1      34.447 -17.022 -25.256  0.00  0.00    +0.143 C 
ENDBRANCH   2  11
BRANCH   1  18
ATOM     18  C   UNL     1      33.808 -23.478 -18.178  0.00  0.00    -0.074 C 
BRANCH  18  19
ATOM     19  C   UNL     1      32.611 -23.330 -17.246  0.00  0.00    +0.025 C 
BRANCH  19  20
ATOM     20  C   UNL     1      33.005 -23.544 -15.791  0.00  0.00    +0.203 C 
BRANCH  20  21
ATOM     21  O   UNL     1      34.228 -22.865 -15.541  0.00  0.00    -0.472 OA
BRANCH  21  22
ATOM     22  C   UNL     1      35.220 -23.582 -14.925  0.00  0.00    +0.172 C 
ATOM     23  C   UNL     1      36.502 -23.611 -15.464  0.00  0.00    +0.172 C 
ATOM     24  C   UNL     1      34.927 -24.280 -13.758  0.00  0.00    +0.040 C 
ATOM     25  C   UNL     1      37.503 -24.345 -14.828  0.00  0.00    +0.043 C 
ATOM     26  C   UNL     1      35.929 -25.014 -13.121  0.00  0.00    +0.006 C 
ATOM     27  C   UNL     1      37.216 -25.047 -13.657  0.00  0.00    +0.038 C 
BRANCH  27  29
ATOM     28  O   UNL     1      38.070 -26.341 -11.879  0.00  0.00    -0.291 OA
ATOM     29  C   UNL     1      38.260 -25.812 -12.993  0.00  0.00    +0.174 C 
ATOM     30  C   UNL     1      39.623 -25.985 -13.653  0.00  0.00    +0.077 C 
ENDBRANCH  27  29
BRANCH  23  31
ATOM     31  O   UNL     1      36.794 -22.930 -16.607  0.00  0.00    -0.468 OA
ATOM     32  C   UNL     1      37.346 -21.623 -16.459  0.00  0.00    +0.253 C 
ENDBRANCH  23  31
ENDBRANCH  21  22
ENDBRANCH  20  21
ENDBRANCH  19  20
ENDBRANCH  18  19
ENDBRANCH   1  18
TORSDOF 8
ENDMDL
MODEL 5
REMARK VINA RESULT:     -11.0      3.018      5.318
REMARK  Name = 71360
REMARK  8 active torsions:
REMARK  status: ('A' for Active; 'I' for Inactive)
REMARK    1  A    between atoms: N_1  and  C_18
REMARK    2  A    between atoms: C_2  and  C_11
REMARK    3  A    between atoms: C_18  and  C_19
REMARK    4  A    between atoms: C_19  and  C_20
REMARK    5  A    between atoms: C_20  and  O_21
REMARK    6  A    between atoms: O_21  and  C_22
REMARK    7  A    between atoms: C_23  and  O_31
REMARK    8  A    between atoms: C_27  and  C_29
REMARK                            x       y       z     vdW  Elec       q    Type
REMARK                         _______ _______ _______ _____ _____    ______ ____
ROOT
ATOM      1  N   UNL     1      34.390 -20.719 -20.213  0.00  0.00    +0.387 N 
ATOM      2  C   UNL     1      34.194 -22.922 -18.285  0.00  0.00    +0.039 C 
ATOM      3  C   UNL     1      32.994 -22.032 -18.646  0.00  0.00    -0.017 C 
ATOM      4  C   UNL     1      35.504 -22.157 -18.535  0.00  0.00    -0.017 C 
ATOM      5  C   UNL     1      33.131 -21.461 -20.060  0.00  0.00    -0.077 C 
ATOM      6  C   UNL     1      35.551 -21.583 -19.952  0.00  0.00    -0.077 C 
ATOM      7  H   UNL     1      34.397 -19.966 -19.524  0.00  0.00    -0.080 HD
ENDROOT
BRANCH   2  11
ATOM      8  F   UNL     1      30.482 -24.476 -12.897  0.00  0.00    -0.204 F 
ATOM      9  O   UNL     1      34.787 -24.371 -15.040  0.00  0.00    -0.354 OA
ATOM     10  N   UNL     1      35.206 -23.931 -16.289  0.00  0.00    -0.081 NA
ATOM     11  C   UNL     1      34.103 -23.484 -16.884  0.00  0.00    +0.100 A 
ATOM     12  C   UNL     1      32.959 -23.607 -16.083  0.00  0.00    +0.054 A 
ATOM     13  C   UNL     1      33.445 -24.176 -14.919  0.00  0.00    +0.179 A 
ATOM     14  C   UNL     1      31.589 -23.317 -16.180  0.00  0.00    +0.007 C 
ATOM     15  C   UNL     1      32.661 -24.492 -13.814  0.00  0.00    +0.070 C 
ATOM     16  C   UNL     1      30.769 -23.622 -15.083  0.00  0.00    +0.030 C 
ATOM     17  C   UNL     1      31.297 -24.199 -13.923  0.00  0.00    +0.143 C 
ENDBRANCH   2  11
BRANCH   1  18
ATOM     18  C   UNL     1      34.479 -20.132 -21.550  0.00  0.00    -0.074 C 
BRANCH  18  19
ATOM     19  C   UNL     1      35.821 -19.433 -21.733  0.00  0.00    +0.025 C 
BRANCH  19  20
ATOM     20  C   UNL     1      35.735 -17.955 -21.377  0.00  0.00    +0.203 C 
BRANCH  20  21
ATOM     21  O   UNL     1      35.736 -17.193 -22.576  0.00  0.00    -0.472 OA
BRANCH  21  22
ATOM     22  C   UNL     1      35.002 -16.036 -22.574  0.00  0.00    +0.172 C 
ATOM     23  C   UNL     1      34.412 -15.579 -23.748  0.00  0.00    +0.172 C 
ATOM     24  C   UNL     1      34.857 -15.326 -21.387  0.00  0.00    +0.040 C 
ATOM     25  C   UNL     1      33.667 -14.399 -23.733  0.00  0.00    +0.043 C 
ATOM     26  C   UNL     1      34.112 -14.146 -21.372  0.00  0.00    +0.006 C 
ATOM     27  C   UNL     1      33.518 -13.683 -22.545  0.00  0.00    +0.038 C 
BRANCH  27  29
ATOM     28  O   UNL     1      32.970 -11.529 -23.336  0.00  0.00    -0.291 OA
ATOM     29  C   UNL     1      32.741 -12.453 -22.530  0.00  0.00    +0.174 C 
ATOM     30  C   UNL     1      31.617 -12.267 -21.517  0.00  0.00    +0.077 C 
ENDBRANCH  27  29
BRANCH  23  31
ATOM     31  O   UNL     1      34.549 -16.270 -24.914  0.00  0.00    -0.468 OA
ATOM     32  C   UNL     1      33.487 -16.163 -25.859  0.00  0.00    +0.253 C 
ENDBRANCH  23  31
ENDBRANCH  21  22
ENDBRANCH  20  21
ENDBRANCH  19  20
ENDBRANCH  18  19
ENDBRANCH   1  18
TORSDOF 8
ENDMDL
MODEL 6
REMARK VINA RESULT:     -10.7      3.995     11.051
REMARK  Name = 71360
REMARK  8 active torsions:
REMARK  status: ('A' for Active; 'I' for Inactive)
REMARK    1  A    between atoms: N_1  and  C_18
REMARK    2  A    between atoms: C_2  and  C_11
REMARK    3  A    between atoms: C_18  and  C_19
REMARK    4  A    between atoms: C_19  and  C_20
REMARK    5  A    between atoms: C_20  and  O_21
REMARK    6  A    between atoms: O_21  and  C_22
REMARK    7  A    between atoms: C_23  and  O_31
REMARK    8  A    between atoms: C_27  and  C_29
REMARK                            x       y       z     vdW  Elec       q    Type
REMARK                         _______ _______ _______ _____ _____    ______ ____
ROOT
ATOM      1  N   UNL     1      35.301 -19.744 -21.165  0.00  0.00    +0.387 N 
ATOM      2  C   UNL     1      35.205 -18.114 -23.602  0.00  0.00    +0.039 C 
ATOM      3  C   UNL     1      35.659 -17.547 -22.248  0.00  0.00    -0.017 C 
ATOM      4  C   UNL     1      34.279 -19.320 -23.379  0.00  0.00    -0.017 C 
ATOM      5  C   UNL     1      36.254 -18.642 -21.358  0.00  0.00    -0.077 C 
ATOM      6  C   UNL     1      34.924 -20.351 -22.450  0.00  0.00    -0.077 C 
ATOM      7  H   UNL     1      34.458 -19.360 -20.739  0.00  0.00    -0.080 HD
ENDROOT
BRANCH   2  11
ATOM      8  F   UNL     1      33.085 -11.796 -24.507  0.00  0.00    -0.204 F 
ATOM      9  O   UNL     1      33.721 -16.220 -26.285  0.00  0.00    -0.354 OA
ATOM     10  N   UNL     1      34.245 -17.386 -25.742  0.00  0.00    -0.081 NA
ATOM     11  C   UNL     1      34.589 -17.062 -24.498  0.00  0.00    +0.100 A 
ATOM     12  C   UNL     1      34.318 -15.722 -24.184  0.00  0.00    +0.054 A 
ATOM     13  C   UNL     1      33.765 -15.228 -25.353  0.00  0.00    +0.179 A 
ATOM     14  C   UNL     1      34.460 -14.866 -23.082  0.00  0.00    +0.007 C 
ATOM     15  C   UNL     1      33.333 -13.917 -25.523  0.00  0.00    +0.070 C 
ATOM     16  C   UNL     1      34.034 -13.536 -23.218  0.00  0.00    +0.030 C 
ATOM     17  C   UNL     1      33.481 -13.073 -24.416  0.00  0.00    +0.143 C 
ENDBRANCH   2  11
BRANCH   1  18
ATOM     18  C   UNL     1      35.863 -20.754 -20.268  0.00  0.00    -0.074 C 
BRANCH  18  19
ATOM     19  C   UNL     1      34.873 -21.898 -20.074  0.00  0.00    +0.025 C 
BRANCH  19  20
ATOM     20  C   UNL     1      33.612 -21.430 -19.361  0.00  0.00    +0.203 C 
BRANCH  20  21
ATOM     21  O   UNL     1      32.857 -22.568 -18.968  0.00  0.00    -0.472 OA
BRANCH  21  22
ATOM     22  C   UNL     1      32.971 -22.965 -17.662  0.00  0.00    +0.172 C 
ATOM     23  C   UNL     1      31.836 -23.095 -16.868  0.00  0.00    +0.172 C 
ATOM     24  C   UNL     1      34.232 -23.234 -17.142  0.00  0.00    +0.040 C 
ATOM     25  C   UNL     1      31.964 -23.500 -15.539  0.00  0.00    +0.043 C 
ATOM     26  C   UNL     1      34.361 -23.639 -15.813  0.00  0.00    +0.006 C 
ATOM     27  C   UNL     1      33.227 -23.771 -15.012  0.00  0.00    +0.038 C 
BRANCH  27  29
ATOM     28  O   UNL     1      32.361 -24.398 -12.908  0.00  0.00    -0.291 OA
ATOM     29  C   UNL     1      33.361 -24.194 -13.626  0.00  0.00    +0.174 C 
ATOM     30  C   UNL     1      34.743 -24.401 -13.016  0.00  0.00    +0.077 C 
ENDBRANCH  27  29
BRANCH  23  31
ATOM     31  O   UNL     1      30.597 -22.834 -17.372  0.00  0.00    -0.468 OA
ATOM     32  C   UNL     1      29.492 -22.979 -16.483  0.00  0.00    +0.253 C 
ENDBRANCH  23  31
ENDBRANCH  21  22
ENDBRANCH  20  21
ENDBRANCH  19  20
ENDBRANCH  18  19
ENDBRANCH   1  18
TORSDOF 8
ENDMDL
MODEL 7
REMARK VINA RESULT:     -10.6      3.710     10.463
REMARK  Name = 71360
REMARK  8 active torsions:
REMARK  status: ('A' for Active; 'I' for Inactive)
REMARK    1  A    between atoms: N_1  and  C_18
REMARK    2  A    between atoms: C_2  and  C_11
REMARK    3  A    between atoms: C_18  and  C_19
REMARK    4  A    between atoms: C_19  and  C_20
REMARK    5  A    between atoms: C_20  and  O_21
REMARK    6  A    between atoms: O_21  and  C_22
REMARK    7  A    between atoms: C_23  and  O_31
REMARK    8  A    between atoms: C_27  and  C_29
REMARK                            x       y       z     vdW  Elec       q    Type
REMARK                         _______ _______ _______ _____ _____    ______ ____
ROOT
ATOM      1  N   UNL     1      34.055 -16.416 -24.393  0.00  0.00    +0.387 N 
ATOM      2  C   UNL     1      33.885 -13.538 -23.849  0.00  0.00    +0.039 C 
ATOM      3  C   UNL     1      34.339 -14.553 -22.788  0.00  0.00    -0.017 C 
ATOM      4  C   UNL     1      32.995 -14.235 -24.891  0.00  0.00    -0.017 C 
ATOM      5  C   UNL     1      34.975 -15.787 -23.435  0.00  0.00    -0.077 C 
ATOM      6  C   UNL     1      33.679 -15.479 -25.462  0.00  0.00    -0.077 C 
ATOM      7  H   UNL     1      33.206 -16.676 -23.890  0.00  0.00    -0.080 HD
ENDROOT
BRANCH   2  11
ATOM      8  F   UNL     1      33.565  -6.849 -23.225  0.00  0.00    -0.204 F 
ATOM      9  O   UNL     1      31.839 -11.182 -22.048  0.00  0.00    -0.354 OA
ATOM     10  N   UNL     1      32.202 -12.471 -22.415  0.00  0.00    -0.081 NA
ATOM     11  C   UNL     1      33.230 -12.316 -23.245  0.00  0.00    +0.100 A 
ATOM     12  C   UNL     1      33.571 -10.971 -23.452  0.00  0.00    +0.054 A 
ATOM     13  C   UNL     1      32.658 -10.288 -22.668  0.00  0.00    +0.179 A 
ATOM     14  C   UNL     1      34.519 -10.243 -24.186  0.00  0.00    +0.007 C 
ATOM     15  C   UNL     1      32.606  -8.903 -22.552  0.00  0.00    +0.070 C 
ATOM     16  C   UNL     1      34.495  -8.843 -24.092  0.00  0.00    +0.030 C 
ATOM     17  C   UNL     1      33.556  -8.188 -23.289  0.00  0.00    +0.143 C 
ENDBRANCH   2  11
BRANCH   1  18
ATOM     18  C   UNL     1      34.655 -17.624 -24.960  0.00  0.00    -0.074 C 
BRANCH  18  19
ATOM     19  C   UNL     1      33.985 -18.867 -24.384  0.00  0.00    +0.025 C 
BRANCH  19  20
ATOM     20  C   UNL     1      34.969 -19.717 -23.593  0.00  0.00    +0.203 C 
BRANCH  20  21
ATOM     21  O   UNL     1      35.033 -19.228 -22.261  0.00  0.00    -0.472 OA
BRANCH  21  22
ATOM     22  C   UNL     1      34.566 -20.057 -21.275  0.00  0.00    +0.172 C 
ATOM     23  C   UNL     1      35.457 -20.767 -20.477  0.00  0.00    +0.172 C 
ATOM     24  C   UNL     1      33.194 -20.179 -21.084  0.00  0.00    +0.040 C 
ATOM     25  C   UNL     1      34.970 -21.608 -19.476  0.00  0.00    +0.043 C 
ATOM     26  C   UNL     1      32.707 -21.020 -20.083  0.00  0.00    +0.006 C 
ATOM     27  C   UNL     1      33.594 -21.735 -19.280  0.00  0.00    +0.038 C 
BRANCH  27  29
ATOM     28  O   UNL     1      31.862 -22.740 -18.034  0.00  0.00    -0.291 OA
ATOM     29  C   UNL     1      33.086 -22.611 -18.236  0.00  0.00    +0.174 C 
ATOM     30  C   UNL     1      34.051 -23.399 -17.357  0.00  0.00    +0.077 C 
ENDBRANCH  27  29
BRANCH  23  31
ATOM     31  O   UNL     1      36.802 -20.652 -20.659  0.00  0.00    -0.468 OA
ATOM     32  C   UNL     1      37.332 -19.331 -20.755  0.00  0.00    +0.253 C 
ENDBRANCH  23  31
ENDBRANCH  21  22
ENDBRANCH  20  21
ENDBRANCH  19  20
ENDBRANCH  18  19
ENDBRANCH   1  18
TORSDOF 8
ENDMDL
MODEL 8
REMARK VINA RESULT:     -10.5      4.626     11.006
REMARK  Name = 71360
REMARK  8 active torsions:
REMARK  status: ('A' for Active; 'I' for Inactive)
REMARK    1  A    between atoms: N_1  and  C_18
REMARK    2  A    between atoms: C_2  and  C_11
REMARK    3  A    between atoms: C_18  and  C_19
REMARK    4  A    between atoms: C_19  and  C_20
REMARK    5  A    between atoms: C_20  and  O_21
REMARK    6  A    between atoms: O_21  and  C_22
REMARK    7  A    between atoms: C_23  and  O_31
REMARK    8  A    between atoms: C_27  and  C_29
REMARK                            x       y       z     vdW  Elec       q    Type
REMARK                         _______ _______ _______ _____ _____    ______ ____
ROOT
ATOM      1  N   UNL     1      34.010 -12.362 -23.810  0.00  0.00    +0.387 N 
ATOM      2  C   UNL     1      32.464  -9.997 -23.023  0.00  0.00    +0.039 C 
ATOM      3  C   UNL     1      33.792  -9.897 -23.790  0.00  0.00    -0.017 C 
ATOM      4  C   UNL     1      32.415 -11.315 -22.234  0.00  0.00    -0.017 C 
ATOM      5  C   UNL     1      34.041 -11.148 -24.637  0.00  0.00    -0.077 C 
ATOM      6  C   UNL     1      32.712 -12.514 -23.137  0.00  0.00    -0.077 C 
ATOM      7  H   UNL     1      34.728 -12.272 -23.092  0.00  0.00    -0.080 HD
ENDROOT
BRANCH   2  11
ATOM      8  F   UNL     1      30.574  -3.566 -22.474  0.00  0.00    -0.204 F 
ATOM      9  O   UNL     1      32.053  -7.619 -20.347  0.00  0.00    -0.354 OA
ATOM     10  N   UNL     1      32.377  -8.877 -20.840  0.00  0.00    -0.081 NA
ATOM     11  C   UNL     1      32.198  -8.787 -22.156  0.00  0.00    +0.100 A 
ATOM     12  C   UNL     1      31.765  -7.518 -22.566  0.00  0.00    +0.054 A 
ATOM     13  C   UNL     1      31.688  -6.809 -21.379  0.00  0.00    +0.179 A 
ATOM     14  C   UNL     1      31.431  -6.874 -23.767  0.00  0.00    +0.007 C 
ATOM     15  C   UNL     1      31.293  -5.479 -21.284  0.00  0.00    +0.070 C 
ATOM     16  C   UNL     1      31.029  -5.531 -23.708  0.00  0.00    +0.030 C 
ATOM     17  C   UNL     1      30.963  -4.848 -22.489  0.00  0.00    +0.143 C 
ENDBRANCH   2  11
BRANCH   1  18
ATOM     18  C   UNL     1      34.305 -13.542 -24.624  0.00  0.00    -0.074 C 
BRANCH  18  19
ATOM     19  C   UNL     1      33.161 -14.546 -24.534  0.00  0.00    +0.025 C 
BRANCH  19  20
ATOM     20  C   UNL     1      33.529 -15.873 -25.182  0.00  0.00    +0.203 C 
BRANCH  20  21
ATOM     21  O   UNL     1      34.834 -16.245 -24.761  0.00  0.00    -0.472 OA
BRANCH  21  22
ATOM     22  C   UNL     1      34.920 -17.200 -23.781  0.00  0.00    +0.172 C 
ATOM     23  C   UNL     1      35.203 -16.834 -22.470  0.00  0.00    +0.172 C 
ATOM     24  C   UNL     1      34.721 -18.535 -24.117  0.00  0.00    +0.040 C 
ATOM     25  C   UNL     1      35.287 -17.816 -21.482  0.00  0.00    +0.043 C 
ATOM     26  C   UNL     1      34.806 -19.516 -23.129  0.00  0.00    +0.006 C 
ATOM     27  C   UNL     1      35.089 -19.157 -21.812  0.00  0.00    +0.038 C 
BRANCH  27  29
ATOM     28  O   UNL     1      36.260 -20.454 -20.227  0.00  0.00    -0.291 OA
ATOM     29  C   UNL     1      35.177 -20.180 -20.781  0.00  0.00    +0.174 C 
ATOM     30  C   UNL     1      33.930 -20.947 -20.353  0.00  0.00    +0.077 C 
ENDBRANCH  27  29
BRANCH  23  31
ATOM     31  O   UNL     1      35.397 -15.528 -22.135  0.00  0.00    -0.468 OA
ATOM     32  C   UNL     1      34.640 -15.021 -21.038  0.00  0.00    +0.253 C 
ENDBRANCH  23  31
ENDBRANCH  21  22
ENDBRANCH  20  21
ENDBRANCH  19  20
ENDBRANCH  18  19
ENDBRANCH   1  18
TORSDOF 8
ENDMDL
MODEL 9
REMARK VINA RESULT:     -10.4      3.941      7.062
REMARK  Name = 71360
REMARK  8 active torsions:
REMARK  status: ('A' for Active; 'I' for Inactive)
REMARK    1  A    between atoms: N_1  and  C_18
REMARK    2  A    between atoms: C_2  and  C_11
REMARK    3  A    between atoms: C_18  and  C_19
REMARK    4  A    between atoms: C_19  and  C_20
REMARK    5  A    between atoms: C_20  and  O_21
REMARK    6  A    between atoms: O_21  and  C_22
REMARK    7  A    between atoms: C_23  and  O_31
REMARK    8  A    between atoms: C_27  and  C_29
REMARK                            x       y       z     vdW  Elec       q    Type
REMARK                         _______ _______ _______ _____ _____    ______ ____
ROOT
ATOM      1  N   UNL     1      31.793 -10.391 -22.497  0.00  0.00    +0.387 N 
ATOM      2  C   UNL     1      33.369 -12.780 -23.141  0.00  0.00    +0.039 C 
ATOM      3  C   UNL     1      33.281 -11.571 -24.085  0.00  0.00    -0.017 C 
ATOM      4  C   UNL     1      32.124 -12.830 -22.240  0.00  0.00    -0.017 C 
ATOM      5  C   UNL     1      33.013 -10.278 -23.309  0.00  0.00    -0.077 C 
ATOM      6  C   UNL     1      31.898 -11.493 -21.530  0.00  0.00    -0.077 C 
ATOM      7  H   UNL     1      31.016 -10.596 -23.124  0.00  0.00    -0.080 HD
ENDROOT
BRANCH   2  11
ATOM      8  F   UNL     1      35.904 -19.009 -23.224  0.00  0.00    -0.204 F 
ATOM      9  O   UNL     1      33.536 -15.496 -25.503  0.00  0.00    -0.354 OA
ATOM     10  N   UNL     1      33.160 -14.214 -25.123  0.00  0.00    -0.081 NA
ATOM     11  C   UNL     1      33.609 -14.079 -23.878  0.00  0.00    +0.100 A 
ATOM     12  C   UNL     1      34.270 -15.222 -23.405  0.00  0.00    +0.054 A 
ATOM     13  C   UNL     1      34.199 -16.096 -24.476  0.00  0.00    +0.179 A 
ATOM     14  C   UNL     1      34.916 -15.635 -22.230  0.00  0.00    +0.007 C 
ATOM     15  C   UNL     1      34.728 -17.382 -24.475  0.00  0.00    +0.070 C 
ATOM     16  C   UNL     1      35.462 -16.926 -22.194  0.00  0.00    +0.030 C 
ATOM     17  C   UNL     1      35.369 -17.782 -23.297  0.00  0.00    +0.143 C 
ENDBRANCH   2  11
BRANCH   1  18
ATOM     18  C   UNL     1      31.521  -9.130 -21.807  0.00  0.00    -0.074 C 
BRANCH  18  19
ATOM     19  C   UNL     1      32.627  -8.826 -20.803  0.00  0.00    +0.025 C 
BRANCH  19  20
ATOM     20  C   UNL     1      33.238  -7.453 -21.043  0.00  0.00    +0.203 C 
BRANCH  20  21
ATOM     21  O   UNL     1      32.361  -6.696 -21.866  0.00  0.00    -0.472 OA
BRANCH  21  22
ATOM     22  C   UNL     1      32.879  -6.207 -23.036  0.00  0.00    +0.172 C 
ATOM     23  C   UNL     1      32.235  -5.173 -23.708  0.00  0.00    +0.172 C 
ATOM     24  C   UNL     1      34.052  -6.757 -23.542  0.00  0.00    +0.040 C 
ATOM     25  C   UNL     1      32.771  -4.683 -24.899  0.00  0.00    +0.043 C 
ATOM     26  C   UNL     1      34.588  -6.267 -24.733  0.00  0.00    +0.006 C 
ATOM     27  C   UNL     1      33.948  -5.231 -25.412  0.00  0.00    +0.038 C 
BRANCH  27  29
ATOM     28  O   UNL     1      33.780  -4.245 -27.548  0.00  0.00    -0.291 OA
ATOM     29  C   UNL     1      34.508  -4.720 -26.653  0.00  0.00    +0.174 C 
ATOM     30  C   UNL     1      36.014  -4.754 -26.888  0.00  0.00    +0.077 C 
ENDBRANCH  27  29
BRANCH  23  31
ATOM     31  O   UNL     1      31.086  -4.630 -23.218  0.00  0.00    -0.468 OA
ATOM     32  C   UNL     1      31.020  -3.207 -23.148  0.00  0.00    +0.253 C 
ENDBRANCH  23  31
ENDBRANCH  21  22
ENDBRANCH  20  21
ENDBRANCH  19  20
ENDBRANCH  18  19
ENDBRANCH   1  18
TORSDOF 8
ENDMDL
