MODEL 1
REMARK VINA RESULT:     -11.8      0.000      0.000
REMARK  Name = 657140
REMARK  9 active torsions:
REMARK  status: ('A' for Active; 'I' for Inactive)
REMARK    1  A    between atoms: C_1  and  N_8
REMARK    2  A    between atoms: C_2  and  O_20
REMARK    3  A    between atoms: C_9  and  C_11
REMARK    4  A    between atoms: C_14  and  N_19
REMARK    5  A    between atoms: O_20  and  C_21
REMARK    6  A    between atoms: C_22  and  C_28
REMARK    7  A    between atoms: C_24  and  C_32
REMARK    8  A    between atoms: C_28  and  O_29
REMARK    9  A    between atoms: C_32  and  O_33
REMARK                            x       y       z     vdW  Elec       q    Type
REMARK                         _______ _______ _______ _____ _____    ______ ____
ROOT
ATOM      1  C   UNL     1      31.617 -23.610 -16.120  0.00  0.00    +0.086 C 
ATOM      2  C   UNL     1      32.288 -23.736 -14.915  0.00  0.00    +0.159 C 
ATOM      3  C   UNL     1      30.392 -24.222 -16.331  0.00  0.00    +0.018 C 
ATOM      4  C   UNL     1      31.720 -24.496 -13.893  0.00  0.00    +0.039 C 
ATOM      5  C   UNL     1      29.823 -24.982 -15.309  0.00  0.00    +0.001 C 
ATOM      6  C   UNL     1      30.488 -25.118 -14.089  0.00  0.00    +0.003 C 
ENDROOT
BRANCH   1   8
ATOM      7  O   UNL     1      33.810 -24.278 -18.052  0.00  0.00    -0.270 OA
ATOM      8  N   UNL     1      32.180 -22.841 -17.168  0.00  0.00    -0.278 N 
ATOM      9  C   UNL     1      33.210 -23.192 -18.052  0.00  0.00    +0.250 C 
ATOM     10  H   UNL     1      31.799 -21.941 -17.290  0.00  0.00    +0.155 HD
BRANCH   9  11
ATOM     11  C   UNL     1      33.595 -22.171 -19.013  0.00  0.00    +0.055 C 
ATOM     12  C   UNL     1      34.942 -21.854 -19.191  0.00  0.00    +0.029 C 
ATOM     13  C   UNL     1      32.619 -21.511 -19.759  0.00  0.00    +0.005 C 
ATOM     14  C   UNL     1      35.312 -20.877 -20.115  0.00  0.00    +0.143 C 
ATOM     15  C   UNL     1      32.989 -20.532 -20.682  0.00  0.00    +0.002 C 
ATOM     16  C   UNL     1      34.335 -20.216 -20.860  0.00  0.00    +0.024 C 
BRANCH  14  19
ATOM     17  O   UNL     1      37.530 -21.480 -20.302  0.00  0.00    -0.126 OA
ATOM     18  O   UNL     1      37.010 -19.353 -20.453  0.00  0.00    -0.126 OA
ATOM     19  N   UNL     1      36.683 -20.554 -20.299  0.00  0.00    +0.058 N 
ENDBRANCH  14  19
ENDBRANCH   9  11
ENDBRANCH   1   8
BRANCH   2  20
ATOM     20  O   UNL     1      33.493 -23.135 -14.702  0.00  0.00    -0.452 OA
BRANCH  20  21
ATOM     21  C   UNL     1      34.524 -23.919 -14.212  0.00  0.00    +0.146 C 
ATOM     22  C   UNL     1      35.843 -24.687 -12.365  0.00  0.00    +0.085 C 
ATOM     23  C   UNL     1      34.805 -23.896 -12.858  0.00  0.00    +0.044 C 
ATOM     24  C   UNL     1      36.583 -25.488 -13.235  0.00  0.00    +0.082 C 
ATOM     25  C   UNL     1      35.246 -24.708 -15.091  0.00  0.00    +0.038 C 
ATOM     26  C   UNL     1      36.284 -25.498 -14.597  0.00  0.00    +0.010 C 
BRANCH  22  28
ATOM     27  O   UNL     1      37.023 -23.990 -10.405  0.00  0.00    -0.245 OA
ATOM     28  C   UNL     1      36.129 -24.654 -10.937  0.00  0.00    +0.338 C 
BRANCH  28  29
ATOM     29  O   UNL     1      35.291 -25.450 -10.222  0.00  0.00    -0.477 OA
ATOM     30  H   UNL     1      34.404 -25.187 -10.079  0.00  0.00    +0.295 HD
ENDBRANCH  28  29
ENDBRANCH  22  28
BRANCH  24  32
ATOM     31  O   UNL     1      38.774 -26.445 -13.295  0.00  0.00    -0.245 OA
ATOM     32  C   UNL     1      37.672 -26.325 -12.752  0.00  0.00    +0.338 C 
BRANCH  32  33
ATOM     33  O   UNL     1      37.351 -26.984 -11.607  0.00  0.00    -0.477 OA
ATOM     34  H   UNL     1      37.263 -26.512 -10.802  0.00  0.00    +0.295 HD
ENDBRANCH  32  33
ENDBRANCH  24  32
ENDBRANCH  20  21
ENDBRANCH   2  20
TORSDOF 9
ENDMDL
MODEL 2
REMARK VINA RESULT:     -11.0      1.732      2.317
REMARK  Name = 657140
REMARK  9 active torsions:
REMARK  status: ('A' for Active; 'I' for Inactive)
REMARK    1  A    between atoms: C_1  and  N_8
REMARK    2  A    between atoms: C_2  and  O_20
REMARK    3  A    between atoms: C_9  and  C_11
REMARK    4  A    between atoms: C_14  and  N_19
REMARK    5  A    between atoms: O_20  and  C_21
REMARK    6  A    between atoms: C_22  and  C_28
REMARK    7  A    between atoms: C_24  and  C_32
REMARK    8  A    between atoms: C_28  and  O_29
REMARK    9  A    between atoms: C_32  and  O_33
REMARK                            x       y       z     vdW  Elec       q    Type
REMARK                         _______ _______ _______ _____ _____    ______ ____
ROOT
ATOM      1  C   UNL     1      32.307 -23.541 -16.052  0.00  0.00    +0.086 C 
ATOM      2  C   UNL     1      33.130 -23.601 -14.940  0.00  0.00    +0.159 C 
ATOM      3  C   UNL     1      31.118 -24.249 -16.110  0.00  0.00    +0.018 C 
ATOM      4  C   UNL     1      32.753 -24.393 -13.855  0.00  0.00    +0.039 C 
ATOM      5  C   UNL     1      30.742 -25.041 -15.026  0.00  0.00    +0.001 C 
ATOM      6  C   UNL     1      31.560 -25.113 -13.898  0.00  0.00    +0.003 C 
ENDROOT
BRANCH   1   8
ATOM      7  O   UNL     1      33.843 -24.247 -18.529  0.00  0.00    -0.270 OA
ATOM      8  N   UNL     1      32.675 -22.740 -17.162  0.00  0.00    -0.278 N 
ATOM      9  C   UNL     1      33.397 -23.110 -18.305  0.00  0.00    +0.250 C 
ATOM     10  H   UNL     1      32.385 -21.799 -17.124  0.00  0.00    +0.155 HD
BRANCH   9  11
ATOM     11  C   UNL     1      33.645 -22.051 -19.269  0.00  0.00    +0.055 C 
ATOM     12  C   UNL     1      34.949 -21.615 -19.505  0.00  0.00    +0.029 C 
ATOM     13  C   UNL     1      32.581 -21.473 -19.960  0.00  0.00    +0.005 C 
ATOM     14  C   UNL     1      35.188 -20.599 -20.431  0.00  0.00    +0.143 C 
ATOM     15  C   UNL     1      32.819 -20.457 -20.886  0.00  0.00    +0.002 C 
ATOM     16  C   UNL     1      34.123 -20.021 -21.122  0.00  0.00    +0.024 C 
BRANCH  14  19
ATOM     17  O   UNL     1      36.693 -19.042 -21.226  0.00  0.00    -0.126 OA
ATOM     18  O   UNL     1      37.474 -20.887 -20.328  0.00  0.00    -0.126 OA
ATOM     19  N   UNL     1      36.515 -20.155 -20.673  0.00  0.00    +0.058 N 
ENDBRANCH  14  19
ENDBRANCH   9  11
ENDBRANCH   1   8
BRANCH   2  20
ATOM     20  O   UNL     1      34.300 -22.905 -14.878  0.00  0.00    -0.452 OA
BRANCH  20  21
ATOM     21  C   UNL     1      35.474 -23.632 -14.780  0.00  0.00    +0.146 C 
ATOM     22  C   UNL     1      36.650 -25.707 -15.011  0.00  0.00    +0.085 C 
ATOM     23  C   UNL     1      35.466 -24.976 -15.109  0.00  0.00    +0.044 C 
ATOM     24  C   UNL     1      37.823 -25.083 -14.586  0.00  0.00    +0.082 C 
ATOM     25  C   UNL     1      36.628 -22.995 -14.356  0.00  0.00    +0.038 C 
ATOM     26  C   UNL     1      37.811 -23.727 -14.258  0.00  0.00    +0.010 C 
BRANCH  22  28
ATOM     27  O   UNL     1      36.677 -27.573 -16.507  0.00  0.00    -0.245 OA
ATOM     28  C   UNL     1      36.629 -27.121 -15.360  0.00  0.00    +0.338 C 
BRANCH  28  29
ATOM     29  O   UNL     1      36.550 -27.924 -14.266  0.00  0.00    -0.477 OA
ATOM     30  H   UNL     1      36.522 -27.547 -13.409  0.00  0.00    +0.295 HD
ENDBRANCH  28  29
ENDBRANCH  22  28
BRANCH  24  32
ATOM     31  O   UNL     1      39.918 -25.934 -15.366  0.00  0.00    -0.245 OA
ATOM     32  C   UNL     1      39.074 -25.819 -14.472  0.00  0.00    +0.338 C 
BRANCH  32  33
ATOM     33  O   UNL     1      39.232 -26.387 -13.247  0.00  0.00    -0.477 OA
ATOM     34  H   UNL     1      39.270 -27.319 -13.164  0.00  0.00    +0.295 HD
ENDBRANCH  32  33
ENDBRANCH  24  32
ENDBRANCH  20  21
ENDBRANCH   2  20
TORSDOF 9
ENDMDL
MODEL 3
REMARK VINA RESULT:     -10.7      1.746      2.504
REMARK  Name = 657140
REMARK  9 active torsions:
REMARK  status: ('A' for Active; 'I' for Inactive)
REMARK    1  A    between atoms: C_1  and  N_8
REMARK    2  A    between atoms: C_2  and  O_20
REMARK    3  A    between atoms: C_9  and  C_11
REMARK    4  A    between atoms: C_14  and  N_19
REMARK    5  A    between atoms: O_20  and  C_21
REMARK    6  A    between atoms: C_22  and  C_28
REMARK    7  A    between atoms: C_24  and  C_32
REMARK    8  A    between atoms: C_28  and  O_29
REMARK    9  A    between atoms: C_32  and  O_33
REMARK                            x       y       z     vdW  Elec       q    Type
REMARK                         _______ _______ _______ _____ _____    ______ ____
ROOT
ATOM      1  C   UNL     1      32.801 -23.172 -16.799  0.00  0.00    +0.086 C 
ATOM      2  C   UNL     1      33.318 -24.212 -16.044  0.00  0.00    +0.159 C 
ATOM      3  C   UNL     1      31.459 -22.833 -16.737  0.00  0.00    +0.018 C 
ATOM      4  C   UNL     1      32.469 -24.934 -15.205  0.00  0.00    +0.039 C 
ATOM      5  C   UNL     1      30.610 -23.555 -15.898  0.00  0.00    +0.001 C 
ATOM      6  C   UNL     1      31.116 -24.606 -15.132  0.00  0.00    +0.003 C 
ENDROOT
BRANCH   1   8
ATOM      7  O   UNL     1      33.833 -23.813 -19.540  0.00  0.00    -0.270 OA
ATOM      8  N   UNL     1      33.650 -22.428 -17.655  0.00  0.00    -0.278 N 
ATOM      9  C   UNL     1      34.112 -22.766 -18.935  0.00  0.00    +0.250 C 
ATOM     10  H   UNL     1      33.957 -21.561 -17.304  0.00  0.00    +0.155 HD
BRANCH   9  11
ATOM     11  C   UNL     1      35.003 -21.803 -19.562  0.00  0.00    +0.055 C 
ATOM     12  C   UNL     1      34.501 -20.888 -20.487  0.00  0.00    +0.029 C 
ATOM     13  C   UNL     1      36.359 -21.793 -19.237  0.00  0.00    +0.005 C 
ATOM     14  C   UNL     1      35.355 -19.962 -21.087  0.00  0.00    +0.143 C 
ATOM     15  C   UNL     1      37.214 -20.869 -19.837  0.00  0.00    +0.002 C 
ATOM     16  C   UNL     1      36.712 -19.954 -20.762  0.00  0.00    +0.024 C 
BRANCH  14  19
ATOM     17  O   UNL     1      35.089 -17.808 -21.866  0.00  0.00    -0.126 OA
ATOM     18  O   UNL     1      34.165 -19.449 -22.994  0.00  0.00    -0.126 OA
ATOM     19  N   UNL     1      34.845 -19.029 -22.027  0.00  0.00    +0.058 N 
ENDBRANCH  14  19
ENDBRANCH   9  11
ENDBRANCH   1   8
BRANCH   2  20
ATOM     20  O   UNL     1      34.638 -24.548 -16.100  0.00  0.00    -0.452 OA
BRANCH  20  21
ATOM     21  C   UNL     1      35.433 -24.207 -15.019  0.00  0.00    +0.146 C 
ATOM     22  C   UNL     1      36.193 -24.640 -12.789  0.00  0.00    +0.085 C 
ATOM     23  C   UNL     1      35.390 -24.985 -13.876  0.00  0.00    +0.044 C 
ATOM     24  C   UNL     1      37.025 -23.523 -12.861  0.00  0.00    +0.082 C 
ATOM     25  C   UNL     1      36.252 -23.095 -15.111  0.00  0.00    +0.038 C 
ATOM     26  C   UNL     1      37.054 -22.751 -14.023  0.00  0.00    +0.010 C 
BRANCH  22  28
ATOM     27  O   UNL     1      35.478 -25.215 -10.580  0.00  0.00    -0.245 OA
ATOM     28  C   UNL     1      36.139 -25.467 -11.590  0.00  0.00    +0.338 C 
BRANCH  28  29
ATOM     29  O   UNL     1      36.911 -26.581 -11.694  0.00  0.00    -0.477 OA
ATOM     30  H   UNL     1      37.792 -26.571 -11.376  0.00  0.00    +0.295 HD
ENDBRANCH  28  29
ENDBRANCH  22  28
BRANCH  24  32
ATOM     31  O   UNL     1      39.080 -23.381 -11.645  0.00  0.00    -0.245 OA
ATOM     32  C   UNL     1      37.874 -23.136 -11.743  0.00  0.00    +0.338 C 
BRANCH  32  33
ATOM     33  O   UNL     1      37.189 -22.457 -10.784  0.00  0.00    -0.477 OA
ATOM     34  H   UNL     1      37.368 -21.550 -10.633  0.00  0.00    +0.295 HD
ENDBRANCH  32  33
ENDBRANCH  24  32
ENDBRANCH  20  21
ENDBRANCH   2  20
TORSDOF 9
ENDMDL
MODEL 4
REMARK VINA RESULT:     -10.6      2.670      7.968
REMARK  Name = 657140
REMARK  9 active torsions:
REMARK  status: ('A' for Active; 'I' for Inactive)
REMARK    1  A    between atoms: C_1  and  N_8
REMARK    2  A    between atoms: C_2  and  O_20
REMARK    3  A    between atoms: C_9  and  C_11
REMARK    4  A    between atoms: C_14  and  N_19
REMARK    5  A    between atoms: O_20  and  C_21
REMARK    6  A    between atoms: C_22  and  C_28
REMARK    7  A    between atoms: C_24  and  C_32
REMARK    8  A    between atoms: C_28  and  O_29
REMARK    9  A    between atoms: C_32  and  O_33
REMARK                            x       y       z     vdW  Elec       q    Type
REMARK                         _______ _______ _______ _____ _____    ______ ____
ROOT
ATOM      1  C   UNL     1      33.834 -23.564 -15.638  0.00  0.00    +0.086 C 
ATOM      2  C   UNL     1      33.749 -23.400 -17.011  0.00  0.00    +0.159 C 
ATOM      3  C   UNL     1      32.723 -23.416 -14.823  0.00  0.00    +0.018 C 
ATOM      4  C   UNL     1      32.519 -23.077 -17.584  0.00  0.00    +0.039 C 
ATOM      5  C   UNL     1      31.493 -23.093 -15.397  0.00  0.00    +0.001 C 
ATOM      6  C   UNL     1      31.392 -22.924 -16.778  0.00  0.00    +0.003 C 
ENDROOT
BRANCH   1   8
ATOM      7  O   UNL     1      35.389 -26.127 -15.688  0.00  0.00    -0.270 OA
ATOM      8  N   UNL     1      35.075 -23.894 -15.040  0.00  0.00    -0.278 N 
ATOM      9  C   UNL     1      35.771 -25.110 -15.087  0.00  0.00    +0.250 C 
ATOM     10  H   UNL     1      35.504 -23.174 -14.522  0.00  0.00    +0.155 HD
BRANCH   9  11
ATOM     11  C   UNL     1      37.019 -25.155 -14.344  0.00  0.00    +0.055 C 
ATOM     12  C   UNL     1      38.156 -25.719 -14.924  0.00  0.00    +0.029 C 
ATOM     13  C   UNL     1      37.082 -24.633 -13.052  0.00  0.00    +0.005 C 
ATOM     14  C   UNL     1      39.355 -25.761 -14.211  0.00  0.00    +0.143 C 
ATOM     15  C   UNL     1      38.279 -24.676 -12.339  0.00  0.00    +0.002 C 
ATOM     16  C   UNL     1      39.416 -25.239 -12.919  0.00  0.00    +0.024 C 
BRANCH  14  19
ATOM     17  O   UNL     1      40.674 -26.237 -16.042  0.00  0.00    -0.126 OA
ATOM     18  O   UNL     1      41.344 -26.918 -14.066  0.00  0.00    -0.126 OA
ATOM     19  N   UNL     1      40.513 -26.333 -14.801  0.00  0.00    +0.058 N 
ENDBRANCH  14  19
ENDBRANCH   9  11
ENDBRANCH   1   8
BRANCH   2  20
ATOM     20  O   UNL     1      34.838 -23.546 -17.817  0.00  0.00    -0.452 OA
BRANCH  20  21
ATOM     21  C   UNL     1      35.201 -22.468 -18.606  0.00  0.00    +0.146 C 
ATOM     22  C   UNL     1      34.642 -20.843 -20.276  0.00  0.00    +0.085 C 
ATOM     23  C   UNL     1      34.275 -21.930 -19.482  0.00  0.00    +0.044 C 
ATOM     24  C   UNL     1      35.928 -20.312 -20.182  0.00  0.00    +0.082 C 
ATOM     25  C   UNL     1      36.482 -21.955 -18.498  0.00  0.00    +0.038 C 
ATOM     26  C   UNL     1      36.848 -20.868 -19.292  0.00  0.00    +0.010 C 
BRANCH  22  28
ATOM     27  O   UNL     1      33.919 -19.710 -22.255  0.00  0.00    -0.245 OA
ATOM     28  C   UNL     1      33.658 -20.285 -21.195  0.00  0.00    +0.338 C 
BRANCH  28  29
ATOM     29  O   UNL     1      32.383 -20.465 -20.761  0.00  0.00    -0.477 OA
ATOM     30  H   UNL     1      32.189 -20.424 -19.846  0.00  0.00    +0.295 HD
ENDBRANCH  28  29
ENDBRANCH  22  28
BRANCH  24  32
ATOM     31  O   UNL     1      37.170 -19.222 -21.912  0.00  0.00    -0.245 OA
ATOM     32  C   UNL     1      36.342 -19.179 -20.997  0.00  0.00    +0.338 C 
BRANCH  32  33
ATOM     33  O   UNL     1      35.708 -18.028 -20.644  0.00  0.00    -0.477 OA
ATOM     34  H   UNL     1      36.207 -17.263 -20.436  0.00  0.00    +0.295 HD
ENDBRANCH  32  33
ENDBRANCH  24  32
ENDBRANCH  20  21
ENDBRANCH   2  20
TORSDOF 9
ENDMDL
MODEL 5
REMARK VINA RESULT:     -10.6      1.585      2.629
REMARK  Name = 657140
REMARK  9 active torsions:
REMARK  status: ('A' for Active; 'I' for Inactive)
REMARK    1  A    between atoms: C_1  and  N_8
REMARK    2  A    between atoms: C_2  and  O_20
REMARK    3  A    between atoms: C_9  and  C_11
REMARK    4  A    between atoms: C_14  and  N_19
REMARK    5  A    between atoms: O_20  and  C_21
REMARK    6  A    between atoms: C_22  and  C_28
REMARK    7  A    between atoms: C_24  and  C_32
REMARK    8  A    between atoms: C_28  and  O_29
REMARK    9  A    between atoms: C_32  and  O_33
REMARK                            x       y       z     vdW  Elec       q    Type
REMARK                         _______ _______ _______ _____ _____    ______ ____
ROOT
ATOM      1  C   UNL     1      31.875 -23.592 -15.904  0.00  0.00    +0.086 C 
ATOM      2  C   UNL     1      32.308 -23.635 -14.589  0.00  0.00    +0.159 C 
ATOM      3  C   UNL     1      30.689 -24.193 -16.294  0.00  0.00    +0.018 C 
ATOM      4  C   UNL     1      31.534 -24.300 -13.638  0.00  0.00    +0.039 C 
ATOM      5  C   UNL     1      29.915 -24.857 -15.343  0.00  0.00    +0.001 C 
ATOM      6  C   UNL     1      30.338 -24.910 -14.014  0.00  0.00    +0.003 C 
ENDROOT
BRANCH   1   8
ATOM      7  O   UNL     1      33.755 -24.679 -17.971  0.00  0.00    -0.270 OA
ATOM      8  N   UNL     1      32.649 -22.920 -16.882  0.00  0.00    -0.278 N 
ATOM      9  C   UNL     1      33.520 -23.468 -17.834  0.00  0.00    +0.250 C 
ATOM     10  H   UNL     1      32.564 -21.939 -16.894  0.00  0.00    +0.155 HD
BRANCH   9  11
ATOM     11  C   UNL     1      34.202 -22.514 -18.694  0.00  0.00    +0.055 C 
ATOM     12  C   UNL     1      33.481 -21.795 -19.647  0.00  0.00    +0.029 C 
ATOM     13  C   UNL     1      35.576 -22.316 -18.563  0.00  0.00    +0.005 C 
ATOM     14  C   UNL     1      34.135 -20.878 -20.471  0.00  0.00    +0.143 C 
ATOM     15  C   UNL     1      36.231 -21.400 -19.386  0.00  0.00    +0.002 C 
ATOM     16  C   UNL     1      35.510 -20.681 -20.340  0.00  0.00    +0.024 C 
BRANCH  14  19
ATOM     17  O   UNL     1      34.029 -19.479 -22.301  0.00  0.00    -0.126 OA
ATOM     18  O   UNL     1      32.149 -20.182 -21.413  0.00  0.00    -0.126 OA
ATOM     19  N   UNL     1      33.403 -20.145 -21.441  0.00  0.00    +0.058 N 
ENDBRANCH  14  19
ENDBRANCH   9  11
ENDBRANCH   1   8
BRANCH   2  20
ATOM     20  O   UNL     1      33.473 -23.044 -14.200  0.00  0.00    -0.452 OA
BRANCH  20  21
ATOM     21  C   UNL     1      34.506 -23.871 -13.790  0.00  0.00    +0.146 C 
ATOM     22  C   UNL     1      36.168 -25.517 -14.305  0.00  0.00    +0.085 C 
ATOM     23  C   UNL     1      35.128 -24.686 -14.719  0.00  0.00    +0.044 C 
ATOM     24  C   UNL     1      36.570 -25.520 -12.970  0.00  0.00    +0.082 C 
ATOM     25  C   UNL     1      34.890 -23.859 -12.461  0.00  0.00    +0.038 C 
ATOM     26  C   UNL     1      35.931 -24.691 -12.048  0.00  0.00    +0.010 C 
BRANCH  22  28
ATOM     27  O   UNL     1      36.317 -27.380 -15.798  0.00  0.00    -0.245 OA
ATOM     28  C   UNL     1      36.816 -26.371 -15.292  0.00  0.00    +0.338 C 
BRANCH  28  29
ATOM     29  O   UNL     1      38.063 -25.937 -15.616  0.00  0.00    -0.477 OA
ATOM     30  H   UNL     1      38.251 -25.664 -16.491  0.00  0.00    +0.295 HD
ENDBRANCH  28  29
ENDBRANCH  22  28
BRANCH  24  32
ATOM     31  O   UNL     1      38.825 -26.316 -12.888  0.00  0.00    -0.245 OA
ATOM     32  C   UNL     1      37.653 -26.377 -12.506  0.00  0.00    +0.338 C 
BRANCH  32  33
ATOM     33  O   UNL     1      37.236 -27.283 -11.581  0.00  0.00    -0.477 OA
ATOM     34  H   UNL     1      36.342 -27.560 -11.566  0.00  0.00    +0.295 HD
ENDBRANCH  32  33
ENDBRANCH  24  32
ENDBRANCH  20  21
ENDBRANCH   2  20
TORSDOF 9
ENDMDL
MODEL 6
REMARK VINA RESULT:     -10.5      2.538      7.756
REMARK  Name = 657140
REMARK  9 active torsions:
REMARK  status: ('A' for Active; 'I' for Inactive)
REMARK    1  A    between atoms: C_1  and  N_8
REMARK    2  A    between atoms: C_2  and  O_20
REMARK    3  A    between atoms: C_9  and  C_11
REMARK    4  A    between atoms: C_14  and  N_19
REMARK    5  A    between atoms: O_20  and  C_21
REMARK    6  A    between atoms: C_22  and  C_28
REMARK    7  A    between atoms: C_24  and  C_32
REMARK    8  A    between atoms: C_28  and  O_29
REMARK    9  A    between atoms: C_32  and  O_33
REMARK                            x       y       z     vdW  Elec       q    Type
REMARK                         _______ _______ _______ _____ _____    ______ ____
ROOT
ATOM      1  C   UNL     1      33.511 -23.726 -15.239  0.00  0.00    +0.086 C 
ATOM      2  C   UNL     1      33.308 -23.549 -16.598  0.00  0.00    +0.159 C 
ATOM      3  C   UNL     1      32.460 -23.662 -14.338  0.00  0.00    +0.018 C 
ATOM      4  C   UNL     1      32.019 -23.299 -17.068  0.00  0.00    +0.039 C 
ATOM      5  C   UNL     1      31.171 -23.413 -14.809  0.00  0.00    +0.001 C 
ATOM      6  C   UNL     1      30.950 -23.232 -16.175  0.00  0.00    +0.003 C 
ENDROOT
BRANCH   1   8
ATOM      7  O   UNL     1      35.282 -26.119 -15.590  0.00  0.00    -0.270 OA
ATOM      8  N   UNL     1      34.814 -23.981 -14.745  0.00  0.00    -0.278 N 
ATOM      9  C   UNL     1      35.611 -25.119 -14.933  0.00  0.00    +0.250 C 
ATOM     10  H   UNL     1      35.211 -23.266 -14.197  0.00  0.00    +0.155 HD
BRANCH   9  11
ATOM     11  C   UNL     1      36.905 -25.102 -14.271  0.00  0.00    +0.055 C 
ATOM     12  C   UNL     1      38.011 -25.687 -14.889  0.00  0.00    +0.029 C 
ATOM     13  C   UNL     1      37.042 -24.500 -13.021  0.00  0.00    +0.005 C 
ATOM     14  C   UNL     1      39.254 -25.669 -14.255  0.00  0.00    +0.143 C 
ATOM     15  C   UNL     1      38.284 -24.483 -12.386  0.00  0.00    +0.002 C 
ATOM     16  C   UNL     1      39.390 -25.068 -13.004  0.00  0.00    +0.024 C 
BRANCH  14  19
ATOM     17  O   UNL     1      41.223 -26.867 -14.176  0.00  0.00    -0.126 OA
ATOM     18  O   UNL     1      40.504 -26.166 -16.128  0.00  0.00    -0.126 OA
ATOM     19  N   UNL     1      40.381 -26.262 -14.883  0.00  0.00    +0.058 N 
ENDBRANCH  14  19
ENDBRANCH   9  11
ENDBRANCH   1   8
BRANCH   2  20
ATOM     20  O   UNL     1      34.338 -23.612 -17.488  0.00  0.00    -0.452 OA
BRANCH  20  21
ATOM     21  C   UNL     1      34.406 -22.628 -18.460  0.00  0.00    +0.146 C 
ATOM     22  C   UNL     1      35.709 -21.127 -19.798  0.00  0.00    +0.085 C 
ATOM     23  C   UNL     1      35.641 -22.118 -18.819  0.00  0.00    +0.044 C 
ATOM     24  C   UNL     1      34.542 -20.662 -20.403  0.00  0.00    +0.082 C 
ATOM     25  C   UNL     1      33.237 -22.179 -19.048  0.00  0.00    +0.038 C 
ATOM     26  C   UNL     1      33.306 -21.188 -20.028  0.00  0.00    +0.010 C 
BRANCH  22  28
ATOM     27  O   UNL     1      37.321 -19.403 -20.189  0.00  0.00    -0.245 OA
ATOM     28  C   UNL     1      37.016 -20.598 -20.168  0.00  0.00    +0.338 C 
BRANCH  28  29
ATOM     29  O   UNL     1      37.898 -21.579 -20.499  0.00  0.00    -0.477 OA
ATOM     30  H   UNL     1      38.778 -21.358 -20.729  0.00  0.00    +0.295 HD
ENDBRANCH  28  29
ENDBRANCH  22  28
BRANCH  24  32
ATOM     31  O   UNL     1      34.407 -19.815 -22.636  0.00  0.00    -0.245 OA
ATOM     32  C   UNL     1      34.580 -19.628 -21.428  0.00  0.00    +0.338 C 
BRANCH  32  33
ATOM     33  O   UNL     1      34.832 -18.396 -20.911  0.00  0.00    -0.477 OA
ATOM     34  H   UNL     1      34.270 -18.040 -20.251  0.00  0.00    +0.295 HD
ENDBRANCH  32  33
ENDBRANCH  24  32
ENDBRANCH  20  21
ENDBRANCH   2  20
TORSDOF 9
ENDMDL
MODEL 7
REMARK VINA RESULT:     -10.0      2.273      5.412
REMARK  Name = 657140
REMARK  9 active torsions:
REMARK  status: ('A' for Active; 'I' for Inactive)
REMARK    1  A    between atoms: C_1  and  N_8
REMARK    2  A    between atoms: C_2  and  O_20
REMARK    3  A    between atoms: C_9  and  C_11
REMARK    4  A    between atoms: C_14  and  N_19
REMARK    5  A    between atoms: O_20  and  C_21
REMARK    6  A    between atoms: C_22  and  C_28
REMARK    7  A    between atoms: C_24  and  C_32
REMARK    8  A    between atoms: C_28  and  O_29
REMARK    9  A    between atoms: C_32  and  O_33
REMARK                            x       y       z     vdW  Elec       q    Type
REMARK                         _______ _______ _______ _____ _____    ______ ____
ROOT
ATOM      1  C   UNL     1      35.891 -24.496 -14.821  0.00  0.00    +0.086 C 
ATOM      2  C   UNL     1      35.253 -24.262 -13.614  0.00  0.00    +0.159 C 
ATOM      3  C   UNL     1      36.962 -25.370 -14.914  0.00  0.00    +0.018 C 
ATOM      4  C   UNL     1      35.700 -24.919 -12.468  0.00  0.00    +0.039 C 
ATOM      5  C   UNL     1      37.409 -26.027 -13.768  0.00  0.00    +0.001 C 
ATOM      6  C   UNL     1      36.777 -25.801 -12.544  0.00  0.00    +0.003 C 
ENDROOT
BRANCH   1   8
ATOM      7  O   UNL     1      37.285 -22.493 -16.562  0.00  0.00    -0.270 OA
ATOM      8  N   UNL     1      35.449 -23.838 -15.995  0.00  0.00    -0.278 N 
ATOM      9  C   UNL     1      36.135 -22.904 -16.783  0.00  0.00    +0.250 C 
ATOM     10  H   UNL     1      34.540 -24.067 -16.297  0.00  0.00    +0.155 HD
BRANCH   9  11
ATOM     11  C   UNL     1      35.403 -22.377 -17.924  0.00  0.00    +0.055 C 
ATOM     12  C   UNL     1      36.032 -21.505 -18.813  0.00  0.00    +0.029 C 
ATOM     13  C   UNL     1      34.074 -22.744 -18.130  0.00  0.00    +0.005 C 
ATOM     14  C   UNL     1      35.331 -21.001 -19.909  0.00  0.00    +0.143 C 
ATOM     15  C   UNL     1      33.372 -22.240 -19.225  0.00  0.00    +0.002 C 
ATOM     16  C   UNL     1      34.001 -21.369 -20.114  0.00  0.00    +0.024 C 
BRANCH  14  19
ATOM     17  O   UNL     1      37.050 -19.574 -20.478  0.00  0.00    -0.126 OA
ATOM     18  O   UNL     1      35.438 -19.898 -21.931  0.00  0.00    -0.126 OA
ATOM     19  N   UNL     1      35.970 -20.115 -20.816  0.00  0.00    +0.058 N 
ENDBRANCH  14  19
ENDBRANCH   9  11
ENDBRANCH   1   8
BRANCH   2  20
ATOM     20  O   UNL     1      34.198 -23.405 -13.518  0.00  0.00    -0.452 OA
BRANCH  20  21
ATOM     21  C   UNL     1      32.961 -23.860 -13.942  0.00  0.00    +0.146 C 
ATOM     22  C   UNL     1      30.972 -23.544 -15.240  0.00  0.00    +0.085 C 
ATOM     23  C   UNL     1      32.218 -23.084 -14.813  0.00  0.00    +0.044 C 
ATOM     24  C   UNL     1      30.489 -24.772 -14.788  0.00  0.00    +0.082 C 
ATOM     25  C   UNL     1      32.500 -25.081 -13.483  0.00  0.00    +0.038 C 
ATOM     26  C   UNL     1      31.254 -25.540 -13.910  0.00  0.00    +0.010 C 
BRANCH  22  28
ATOM     27  O   UNL     1      30.514 -22.458 -17.321  0.00  0.00    -0.245 OA
ATOM     28  C   UNL     1      30.198 -22.717 -16.157  0.00  0.00    +0.338 C 
BRANCH  28  29
ATOM     29  O   UNL     1      29.057 -22.243 -15.591  0.00  0.00    -0.477 OA
ATOM     30  H   UNL     1      28.292 -22.782 -15.555  0.00  0.00    +0.295 HD
ENDBRANCH  28  29
ENDBRANCH  22  28
BRANCH  24  32
ATOM     31  O   UNL     1      28.705 -25.136 -16.340  0.00  0.00    -0.245 OA
ATOM     32  C   UNL     1      29.193 -25.279 -15.215  0.00  0.00    +0.338 C 
BRANCH  32  33
ATOM     33  O   UNL     1      28.547 -25.949 -14.222  0.00  0.00    -0.477 OA
ATOM     34  H   UNL     1      27.819 -25.553 -13.786  0.00  0.00    +0.295 HD
ENDBRANCH  32  33
ENDBRANCH  24  32
ENDBRANCH  20  21
ENDBRANCH   2  20
TORSDOF 9
ENDMDL
MODEL 8
REMARK VINA RESULT:     -10.0      2.325      5.690
REMARK  Name = 657140
REMARK  9 active torsions:
REMARK  status: ('A' for Active; 'I' for Inactive)
REMARK    1  A    between atoms: C_1  and  N_8
REMARK    2  A    between atoms: C_2  and  O_20
REMARK    3  A    between atoms: C_9  and  C_11
REMARK    4  A    between atoms: C_14  and  N_19
REMARK    5  A    between atoms: O_20  and  C_21
REMARK    6  A    between atoms: C_22  and  C_28
REMARK    7  A    between atoms: C_24  and  C_32
REMARK    8  A    between atoms: C_28  and  O_29
REMARK    9  A    between atoms: C_32  and  O_33
REMARK                            x       y       z     vdW  Elec       q    Type
REMARK                         _______ _______ _______ _____ _____    ______ ____
ROOT
ATOM      1  C   UNL     1      34.630 -22.618 -17.988  0.00  0.00    +0.086 C 
ATOM      2  C   UNL     1      35.735 -22.130 -17.311  0.00  0.00    +0.159 C 
ATOM      3  C   UNL     1      34.615 -22.718 -19.370  0.00  0.00    +0.018 C 
ATOM      4  C   UNL     1      36.856 -21.727 -18.037  0.00  0.00    +0.039 C 
ATOM      5  C   UNL     1      35.736 -22.315 -20.095  0.00  0.00    +0.001 C 
ATOM      6  C   UNL     1      36.858 -21.820 -19.428  0.00  0.00    +0.003 C 
ENDROOT
BRANCH   1   8
ATOM      7  O   UNL     1      31.734 -21.964 -18.408  0.00  0.00    -0.270 OA
ATOM      8  N   UNL     1      33.483 -23.033 -17.266  0.00  0.00    -0.278 N 
ATOM      9  C   UNL     1      32.140 -22.702 -17.496  0.00  0.00    +0.250 C 
ATOM     10  H   UNL     1      33.652 -23.630 -16.502  0.00  0.00    +0.155 HD
BRANCH   9  11
ATOM     11  C   UNL     1      31.179 -23.263 -16.560  0.00  0.00    +0.055 C 
ATOM     12  C   UNL     1      31.609 -23.736 -15.320  0.00  0.00    +0.029 C 
ATOM     13  C   UNL     1      29.829 -23.327 -16.901  0.00  0.00    +0.005 C 
ATOM     14  C   UNL     1      30.687 -24.273 -14.421  0.00  0.00    +0.143 C 
ATOM     15  C   UNL     1      28.906 -23.864 -16.004  0.00  0.00    +0.002 C 
ATOM     16  C   UNL     1      29.336 -24.337 -14.764  0.00  0.00    +0.024 C 
BRANCH  14  19
ATOM     17  O   UNL     1      32.198 -25.396 -13.089  0.00  0.00    -0.126 OA
ATOM     18  O   UNL     1      30.420 -24.522 -12.144  0.00  0.00    -0.126 OA
ATOM     19  N   UNL     1      31.122 -24.753 -13.158  0.00  0.00    +0.058 N 
ENDBRANCH  14  19
ENDBRANCH   9  11
ENDBRANCH   1   8
BRANCH   2  20
ATOM     20  O   UNL     1      35.755 -22.032 -15.952  0.00  0.00    -0.452 OA
BRANCH  20  21
ATOM     21  C   UNL     1      36.116 -23.158 -15.233  0.00  0.00    +0.146 C 
ATOM     22  C   UNL     1      37.769 -24.779 -14.615  0.00  0.00    +0.085 C 
ATOM     23  C   UNL     1      37.406 -23.644 -15.341  0.00  0.00    +0.044 C 
ATOM     24  C   UNL     1      36.836 -25.409 -13.793  0.00  0.00    +0.082 C 
ATOM     25  C   UNL     1      35.175 -23.770 -14.422  0.00  0.00    +0.038 C 
ATOM     26  C   UNL     1      35.539 -24.904 -13.697  0.00  0.00    +0.010 C 
BRANCH  22  28
ATOM     27  O   UNL     1      40.095 -24.896 -14.071  0.00  0.00    -0.245 OA
ATOM     28  C   UNL     1      39.131 -25.281 -14.738  0.00  0.00    +0.338 C 
BRANCH  28  29
ATOM     29  O   UNL     1      39.245 -26.247 -15.688  0.00  0.00    -0.477 OA
ATOM     30  H   UNL     1      39.805 -26.983 -15.543  0.00  0.00    +0.295 HD
ENDBRANCH  28  29
ENDBRANCH  22  28
BRANCH  24  32
ATOM     31  O   UNL     1      37.424 -26.615 -11.813  0.00  0.00    -0.245 OA
ATOM     32  C   UNL     1      37.183 -26.596 -13.024  0.00  0.00    +0.338 C 
BRANCH  32  33
ATOM     33  O   UNL     1      37.218 -27.719 -13.790  0.00  0.00    -0.477 OA
ATOM     34  H   UNL     1      38.003 -27.951 -14.245  0.00  0.00    +0.295 HD
ENDBRANCH  32  33
ENDBRANCH  24  32
ENDBRANCH  20  21
ENDBRANCH   2  20
TORSDOF 9
ENDMDL
MODEL 9
REMARK VINA RESULT:      -9.9      2.174      7.835
REMARK  Name = 657140
REMARK  9 active torsions:
REMARK  status: ('A' for Active; 'I' for Inactive)
REMARK    1  A    between atoms: C_1  and  N_8
REMARK    2  A    between atoms: C_2  and  O_20
REMARK    3  A    between atoms: C_9  and  C_11
REMARK    4  A    between atoms: C_14  and  N_19
REMARK    5  A    between atoms: O_20  and  C_21
REMARK    6  A    between atoms: C_22  and  C_28
REMARK    7  A    between atoms: C_24  and  C_32
REMARK    8  A    between atoms: C_28  and  O_29
REMARK    9  A    between atoms: C_32  and  O_33
REMARK                            x       y       z     vdW  Elec       q    Type
REMARK                         _______ _______ _______ _____ _____    ______ ____
ROOT
ATOM      1  C   UNL     1      33.233 -23.638 -15.380  0.00  0.00    +0.086 C 
ATOM      2  C   UNL     1      33.032 -23.462 -16.739  0.00  0.00    +0.159 C 
ATOM      3  C   UNL     1      32.195 -23.499 -14.473  0.00  0.00    +0.018 C 
ATOM      4  C   UNL     1      31.759 -23.134 -17.204  0.00  0.00    +0.039 C 
ATOM      5  C   UNL     1      30.921 -23.171 -14.938  0.00  0.00    +0.001 C 
ATOM      6  C   UNL     1      30.703 -22.990 -16.305  0.00  0.00    +0.003 C 
ENDROOT
BRANCH   1   8
ATOM      7  O   UNL     1      34.928 -26.059 -15.883  0.00  0.00    -0.270 OA
ATOM      8  N   UNL     1      34.520 -23.972 -14.892  0.00  0.00    -0.278 N 
ATOM      9  C   UNL     1      35.281 -25.120 -15.152  0.00  0.00    +0.250 C 
ATOM     10  H   UNL     1      34.933 -23.312 -14.290  0.00  0.00    +0.155 HD
BRANCH   9  11
ATOM     11  C   UNL     1      36.567 -25.195 -14.477  0.00  0.00    +0.055 C 
ATOM     12  C   UNL     1      36.831 -24.367 -13.387  0.00  0.00    +0.029 C 
ATOM     13  C   UNL     1      37.536 -26.097 -14.919  0.00  0.00    +0.005 C 
ATOM     14  C   UNL     1      38.064 -24.440 -12.738  0.00  0.00    +0.143 C 
ATOM     15  C   UNL     1      38.769 -26.170 -14.271  0.00  0.00    +0.002 C 
ATOM     16  C   UNL     1      39.032 -25.341 -13.181  0.00  0.00    +0.024 C 
BRANCH  14  19
ATOM     17  O   UNL     1      39.510 -23.209 -11.430  0.00  0.00    -0.126 OA
ATOM     18  O   UNL     1      37.389 -23.268 -10.870  0.00  0.00    -0.126 OA
ATOM     19  N   UNL     1      38.334 -23.599 -11.626  0.00  0.00    +0.058 N 
ENDBRANCH  14  19
ENDBRANCH   9  11
ENDBRANCH   1   8
BRANCH   2  20
ATOM     20  O   UNL     1      34.050 -23.599 -17.636  0.00  0.00    -0.452 OA
BRANCH  20  21
ATOM     21  C   UNL     1      34.211 -22.601 -18.582  0.00  0.00    +0.146 C 
ATOM     22  C   UNL     1      35.648 -21.173 -19.861  0.00  0.00    +0.085 C 
ATOM     23  C   UNL     1      35.487 -22.178 -18.907  0.00  0.00    +0.044 C 
ATOM     24  C   UNL     1      34.530 -20.607 -20.473  0.00  0.00    +0.082 C 
ATOM     25  C   UNL     1      33.089 -22.052 -19.179  0.00  0.00    +0.038 C 
ATOM     26  C   UNL     1      33.251 -21.047 -20.132  0.00  0.00    +0.010 C 
BRANCH  22  28
ATOM     27  O   UNL     1      37.888 -21.459 -20.649  0.00  0.00    -0.245 OA
ATOM     28  C   UNL     1      36.997 -20.736 -20.195  0.00  0.00    +0.338 C 
BRANCH  28  29
ATOM     29  O   UNL     1      37.188 -19.412 -19.953  0.00  0.00    -0.477 OA
ATOM     30  H   UNL     1      37.824 -18.933 -20.446  0.00  0.00    +0.295 HD
ENDBRANCH  28  29
ENDBRANCH  22  28
BRANCH  24  32
ATOM     31  O   UNL     1      34.577 -19.716 -22.693  0.00  0.00    -0.245 OA
ATOM     32  C   UNL     1      34.665 -19.556 -21.472  0.00  0.00    +0.338 C 
BRANCH  32  33
ATOM     33  O   UNL     1      34.905 -18.339 -20.914  0.00  0.00    -0.477 OA
ATOM     34  H   UNL     1      35.742 -18.153 -20.537  0.00  0.00    +0.295 HD
ENDBRANCH  32  33
ENDBRANCH  24  32
ENDBRANCH  20  21
ENDBRANCH   2  20
TORSDOF 9
ENDMDL
