MODEL 1
REMARK VINA RESULT:     -11.3      0.000      0.000
REMARK  Name = 16045418
REMARK  6 active torsions:
REMARK  status: ('A' for Active; 'I' for Inactive)
REMARK    1  A    between atoms: C_2  and  O_8
REMARK    2  A    between atoms: C_4  and  O_23
REMARK    3  A    between atoms: O_8  and  C_9
REMARK    4  A    between atoms: C_9  and  C_14
REMARK    5  A    between atoms: O_23  and  C_25
REMARK    6  A    between atoms: C_28  and  C_32
REMARK                            x       y       z     vdW  Elec       q    Type
REMARK                         _______ _______ _______ _____ _____    ______ ____
ROOT
ATOM      1 CL   UNL     1      31.123 -23.877 -12.593  0.00  0.00    -0.079 Cl
ATOM      2  C   UNL     1      32.036 -23.214 -16.958  0.00  0.00    +0.142 C 
ATOM      3  C   UNL     1      33.076 -23.501 -16.079  0.00  0.00    +0.075 C 
ATOM      4  C   UNL     1      32.803 -23.708 -14.726  0.00  0.00    +0.159 C 
ATOM      5  C   UNL     1      30.726 -23.132 -16.497  0.00  0.00    +0.038 C 
ATOM      6  C   UNL     1      31.491 -23.627 -14.259  0.00  0.00    +0.092 C 
ATOM      7  C   UNL     1      30.453 -23.338 -15.145  0.00  0.00    +0.018 C 
ENDROOT
BRANCH   2   8
ATOM      8  O   UNL     1      32.305 -23.010 -18.284  0.00  0.00    -0.469 OA
BRANCH   8   9
ATOM      9  C   UNL     1      33.666 -22.738 -18.624  0.00  0.00    +0.249 C 
BRANCH   9  14
ATOM     10  N   UNL     1      32.609 -21.154 -20.218  0.00  0.00    -0.227 N 
ATOM     11  N   UNL     1      32.839 -20.165 -21.107  0.00  0.00    -0.115 NA
ATOM     12  N   UNL     1      34.930 -19.148 -21.796  0.00  0.00    -0.335 NA
ATOM     13  N   UNL     1      37.165 -18.422 -22.199  0.00  0.00    -0.332 N 
ATOM     14  C   UNL     1      33.732 -21.655 -19.618  0.00  0.00    +0.097 C 
ATOM     15  C   UNL     1      34.764 -20.937 -20.158  0.00  0.00    +0.090 C 
ATOM     16  C   UNL     1      34.169 -20.022 -21.078  0.00  0.00    +0.105 C 
ATOM     17  C   UNL     1      36.108 -21.089 -19.855  0.00  0.00    +0.016 C 
ATOM     18  C   UNL     1      36.872 -20.184 -20.600  0.00  0.00    +0.049 C 
ATOM     19  C   UNL     1      36.264 -19.283 -21.508  0.00  0.00    +0.189 C 
ATOM     20  H   UNL     1      31.704 -21.489 -20.018  0.00  0.00    +0.175 HD
ATOM     21  H   UNL     1      36.820 -17.767 -22.847  0.00  0.00    +0.145 HD
ATOM     22  H   UNL     1      38.133 -18.482 -22.027  0.00  0.00    +0.145 HD
ENDBRANCH   9  14
ENDBRANCH   8   9
ENDBRANCH   2   8
BRANCH   4  23
ATOM     23  O   UNL     1      33.837 -23.989 -13.884  0.00  0.00    -0.452 OA
BRANCH  23  25
ATOM     24 CL   UNL     1      37.468 -21.442 -16.379  0.00  0.00    -0.082 Cl
ATOM     25  C   UNL     1      35.115 -23.987 -14.414  0.00  0.00    +0.147 C 
ATOM     26  C   UNL     1      35.897 -25.123 -14.297  0.00  0.00    +0.048 C 
ATOM     27  C   UNL     1      35.581 -22.849 -15.050  0.00  0.00    +0.049 C 
ATOM     28  C   UNL     1      37.184 -25.121 -14.833  0.00  0.00    +0.072 C 
ATOM     29  C   UNL     1      36.868 -22.847 -15.585  0.00  0.00    +0.061 C 
ATOM     30  C   UNL     1      37.671 -23.983 -15.476  0.00  0.00    +0.022 C 
BRANCH  28  32
ATOM     31  N   UNL     1      38.677 -27.232 -14.629  0.00  0.00    -0.191 NA
ATOM     32  C   UNL     1      38.006 -26.285 -14.720  0.00  0.00    +0.101 C 
ENDBRANCH  28  32
ENDBRANCH  23  25
ENDBRANCH   4  23
TORSDOF 6
ENDMDL
MODEL 2
REMARK VINA RESULT:     -11.2      1.621      6.844
REMARK  Name = 16045418
REMARK  6 active torsions:
REMARK  status: ('A' for Active; 'I' for Inactive)
REMARK    1  A    between atoms: C_2  and  O_8
REMARK    2  A    between atoms: C_4  and  O_23
REMARK    3  A    between atoms: O_8  and  C_9
REMARK    4  A    between atoms: C_9  and  C_14
REMARK    5  A    between atoms: O_23  and  C_25
REMARK    6  A    between atoms: C_28  and  C_32
REMARK                            x       y       z     vdW  Elec       q    Type
REMARK                         _______ _______ _______ _____ _____    ______ ____
ROOT
ATOM      1 CL   UNL     1      29.346 -22.773 -16.887  0.00  0.00    -0.079 Cl
ATOM      2  C   UNL     1      32.791 -24.110 -14.304  0.00  0.00    +0.142 C 
ATOM      3  C   UNL     1      32.993 -23.921 -15.669  0.00  0.00    +0.075 C 
ATOM      4  C   UNL     1      31.933 -23.507 -16.475  0.00  0.00    +0.159 C 
ATOM      5  C   UNL     1      31.538 -23.890 -13.740  0.00  0.00    +0.038 C 
ATOM      6  C   UNL     1      30.675 -23.284 -15.914  0.00  0.00    +0.092 C 
ATOM      7  C   UNL     1      30.478 -23.476 -14.547  0.00  0.00    +0.018 C 
ENDROOT
BRANCH   2   8
ATOM      8  O   UNL     1      33.831 -24.516 -13.514  0.00  0.00    -0.469 OA
BRANCH   8   9
ATOM      9  C   UNL     1      35.121 -23.999 -13.843  0.00  0.00    +0.249 C 
BRANCH   9  14
ATOM     10  N   UNL     1      35.534 -26.089 -15.119  0.00  0.00    -0.227 N 
ATOM     11  N   UNL     1      36.462 -27.007 -15.463  0.00  0.00    -0.115 NA
ATOM     12  N   UNL     1      38.811 -27.141 -14.873  0.00  0.00    -0.335 NA
ATOM     13  N   UNL     1      41.046 -26.915 -14.075  0.00  0.00    -0.332 N 
ATOM     14  C   UNL     1      35.997 -25.084 -14.314  0.00  0.00    +0.097 C 
ATOM     15  C   UNL     1      37.321 -25.372 -14.124  0.00  0.00    +0.090 C 
ATOM     16  C   UNL     1      37.571 -26.574 -14.854  0.00  0.00    +0.105 C 
ATOM     17  C   UNL     1      38.216 -24.630 -13.370  0.00  0.00    +0.016 C 
ATOM     18  C   UNL     1      39.480 -25.228 -13.403  0.00  0.00    +0.049 C 
ATOM     19  C   UNL     1      39.711 -26.420 -14.133  0.00  0.00    +0.189 C 
ATOM     20  H   UNL     1      34.598 -26.139 -15.423  0.00  0.00    +0.175 HD
ATOM     21  H   UNL     1      41.285 -27.740 -14.556  0.00  0.00    +0.145 HD
ATOM     22  H   UNL     1      41.728 -26.432 -13.554  0.00  0.00    +0.145 HD
ENDBRANCH   9  14
ENDBRANCH   8   9
ENDBRANCH   2   8
BRANCH   4  23
ATOM     23  O   UNL     1      32.154 -23.327 -17.808  0.00  0.00    -0.452 OA
BRANCH  23  25
ATOM     24 CL   UNL     1      37.116 -22.677 -16.881  0.00  0.00    -0.082 Cl
ATOM     25  C   UNL     1      33.353 -22.746 -18.186  0.00  0.00    +0.147 C 
ATOM     26  C   UNL     1      33.388 -21.944 -19.314  0.00  0.00    +0.048 C 
ATOM     27  C   UNL     1      34.486 -22.982 -17.428  0.00  0.00    +0.049 C 
ATOM     28  C   UNL     1      34.595 -21.359 -19.694  0.00  0.00    +0.072 C 
ATOM     29  C   UNL     1      35.693 -22.397 -17.809  0.00  0.00    +0.061 C 
ATOM     30  C   UNL     1      35.748 -21.585 -18.943  0.00  0.00    +0.022 C 
BRANCH  28  32
ATOM     31  N   UNL     1      34.696 -19.850 -21.801  0.00  0.00    -0.191 NA
ATOM     32  C   UNL     1      34.651 -20.528 -20.856  0.00  0.00    +0.101 C 
ENDBRANCH  28  32
ENDBRANCH  23  25
ENDBRANCH   4  23
TORSDOF 6
ENDMDL
MODEL 3
REMARK VINA RESULT:     -11.1      7.363     12.033
REMARK  Name = 16045418
REMARK  6 active torsions:
REMARK  status: ('A' for Active; 'I' for Inactive)
REMARK    1  A    between atoms: C_2  and  O_8
REMARK    2  A    between atoms: C_4  and  O_23
REMARK    3  A    between atoms: O_8  and  C_9
REMARK    4  A    between atoms: C_9  and  C_14
REMARK    5  A    between atoms: O_23  and  C_25
REMARK    6  A    between atoms: C_28  and  C_32
REMARK                            x       y       z     vdW  Elec       q    Type
REMARK                         _______ _______ _______ _____ _____    ______ ____
ROOT
ATOM      1 CL   UNL     1      32.246 -12.809 -20.388  0.00  0.00    -0.079 Cl
ATOM      2  C   UNL     1      34.859 -15.649 -22.720  0.00  0.00    +0.142 C 
ATOM      3  C   UNL     1      34.114 -14.690 -23.401  0.00  0.00    +0.075 C 
ATOM      4  C   UNL     1      33.303 -13.807 -22.687  0.00  0.00    +0.159 C 
ATOM      5  C   UNL     1      34.800 -15.733 -21.332  0.00  0.00    +0.038 C 
ATOM      6  C   UNL     1      33.241 -13.887 -21.296  0.00  0.00    +0.092 C 
ATOM      7  C   UNL     1      33.988 -14.850 -20.619  0.00  0.00    +0.018 C 
ENDROOT
BRANCH   2   8
ATOM      8  O   UNL     1      35.653 -16.515 -23.420  0.00  0.00    -0.469 OA
BRANCH   8   9
ATOM      9  C   UNL     1      35.242 -17.883 -23.439  0.00  0.00    +0.249 C 
BRANCH   9  14
ATOM     10  N   UNL     1      37.263 -18.462 -22.118  0.00  0.00    -0.227 N 
ATOM     11  N   UNL     1      37.743 -19.225 -21.113  0.00  0.00    -0.115 NA
ATOM     12  N   UNL     1      36.606 -20.841 -19.706  0.00  0.00    -0.335 NA
ATOM     13  N   UNL     1      35.143 -22.329 -18.553  0.00  0.00    -0.332 N 
ATOM     14  C   UNL     1      35.930 -18.634 -22.377  0.00  0.00    +0.097 C 
ATOM     15  C   UNL     1      35.518 -19.574 -21.474  0.00  0.00    +0.090 C 
ATOM     16  C   UNL     1      36.673 -19.917 -20.706  0.00  0.00    +0.105 C 
ATOM     17  C   UNL     1      34.232 -20.078 -21.350  0.00  0.00    +0.016 C 
ATOM     18  C   UNL     1      34.185 -21.022 -20.320  0.00  0.00    +0.049 C 
ATOM     19  C   UNL     1      35.340 -21.350 -19.569  0.00  0.00    +0.189 C 
ATOM     20  H   UNL     1      37.827 -17.834 -22.624  0.00  0.00    +0.175 HD
ATOM     21  H   UNL     1      35.898 -22.611 -17.988  0.00  0.00    +0.145 HD
ATOM     22  H   UNL     1      34.252 -22.725 -18.417  0.00  0.00    +0.145 HD
ENDBRANCH   9  14
ENDBRANCH   8   9
ENDBRANCH   2   8
BRANCH   4  23
ATOM     23  O   UNL     1      32.584 -12.876 -23.375  0.00  0.00    -0.452 OA
BRANCH  23  25
ATOM     24 CL   UNL     1      35.905 -10.390 -26.322  0.00  0.00    -0.082 Cl
ATOM     25  C   UNL     1      33.212 -11.682 -23.687  0.00  0.00    +0.147 C 
ATOM     26  C   UNL     1      32.908 -10.548 -22.954  0.00  0.00    +0.048 C 
ATOM     27  C   UNL     1      34.129 -11.652 -24.723  0.00  0.00    +0.049 C 
ATOM     28  C   UNL     1      33.541  -9.346 -23.268  0.00  0.00    +0.072 C 
ATOM     29  C   UNL     1      34.762 -10.450 -25.037  0.00  0.00    +0.061 C 
ATOM     30  C   UNL     1      34.468  -9.296 -24.309  0.00  0.00    +0.022 C 
BRANCH  28  32
ATOM     31  N   UNL     1      32.992  -7.202 -21.915  0.00  0.00    -0.191 NA
ATOM     32  C   UNL     1      33.239  -8.164 -22.523  0.00  0.00    +0.101 C 
ENDBRANCH  28  32
ENDBRANCH  23  25
ENDBRANCH   4  23
TORSDOF 6
ENDMDL
MODEL 4
REMARK VINA RESULT:     -11.1      5.776     10.757
REMARK  Name = 16045418
REMARK  6 active torsions:
REMARK  status: ('A' for Active; 'I' for Inactive)
REMARK    1  A    between atoms: C_2  and  O_8
REMARK    2  A    between atoms: C_4  and  O_23
REMARK    3  A    between atoms: O_8  and  C_9
REMARK    4  A    between atoms: C_9  and  C_14
REMARK    5  A    between atoms: O_23  and  C_25
REMARK    6  A    between atoms: C_28  and  C_32
REMARK                            x       y       z     vdW  Elec       q    Type
REMARK                         _______ _______ _______ _____ _____    ______ ____
ROOT
ATOM      1 CL   UNL     1      33.736 -15.543 -26.169  0.00  0.00    -0.079 Cl
ATOM      2  C   UNL     1      34.937 -18.786 -23.276  0.00  0.00    +0.142 C 
ATOM      3  C   UNL     1      35.310 -17.470 -23.020  0.00  0.00    +0.075 C 
ATOM      4  C   UNL     1      34.943 -16.460 -23.910  0.00  0.00    +0.159 C 
ATOM      5  C   UNL     1      34.200 -19.102 -24.414  0.00  0.00    +0.038 C 
ATOM      6  C   UNL     1      34.204 -16.771 -25.051  0.00  0.00    +0.092 C 
ATOM      7  C   UNL     1      33.833 -18.092 -25.303  0.00  0.00    +0.018 C 
ENDROOT
BRANCH   2   8
ATOM      8  O   UNL     1      35.298 -19.776 -22.404  0.00  0.00    -0.469 OA
BRANCH   8   9
ATOM      9  C   UNL     1      34.327 -20.149 -21.425  0.00  0.00    +0.249 C 
BRANCH   9  14
ATOM     10  N   UNL     1      36.328 -20.787 -20.101  0.00  0.00    -0.227 N 
ATOM     11  N   UNL     1      36.769 -21.489 -19.035  0.00  0.00    -0.115 NA
ATOM     12  N   UNL     1      35.533 -22.839 -17.444  0.00  0.00    -0.335 NA
ATOM     13  N   UNL     1      33.977 -24.056 -16.109  0.00  0.00    -0.332 N 
ATOM     14  C   UNL     1      34.977 -20.853 -20.309  0.00  0.00    +0.097 C 
ATOM     15  C   UNL     1      34.510 -21.655 -19.304  0.00  0.00    +0.090 C 
ATOM     16  C   UNL     1      35.652 -22.030 -18.534  0.00  0.00    +0.105 C 
ATOM     17  C   UNL     1      33.187 -22.016 -19.098  0.00  0.00    +0.016 C 
ATOM     18  C   UNL     1      33.086 -22.844 -17.976  0.00  0.00    +0.049 C 
ATOM     19  C   UNL     1      34.230 -23.206 -17.223  0.00  0.00    +0.189 C 
ATOM     20  H   UNL     1      36.932 -20.270 -20.683  0.00  0.00    +0.175 HD
ATOM     21  H   UNL     1      34.721 -24.351 -15.536  0.00  0.00    +0.145 HD
ATOM     22  H   UNL     1      33.058 -24.347 -15.911  0.00  0.00    +0.145 HD
ENDBRANCH   9  14
ENDBRANCH   8   9
ENDBRANCH   2   8
BRANCH   4  23
ATOM     23  O   UNL     1      35.318 -15.178 -23.638  0.00  0.00    -0.452 OA
BRANCH  23  25
ATOM     24 CL   UNL     1      32.014 -14.532 -19.822  0.00  0.00    -0.082 Cl
ATOM     25  C   UNL     1      34.395 -14.359 -23.010  0.00  0.00    +0.147 C 
ATOM     26  C   UNL     1      34.137 -13.105 -23.538  0.00  0.00    +0.048 C 
ATOM     27  C   UNL     1      33.754 -14.812 -21.872  0.00  0.00    +0.049 C 
ATOM     28  C   UNL     1      33.207 -12.281 -22.906  0.00  0.00    +0.072 C 
ATOM     29  C   UNL     1      32.823 -13.988 -21.240  0.00  0.00    +0.061 C 
ATOM     30  C   UNL     1      32.550 -12.721 -21.757  0.00  0.00    +0.022 C 
BRANCH  28  32
ATOM     31  N   UNL     1      32.700  -9.926 -23.869  0.00  0.00    -0.191 NA
ATOM     32  C   UNL     1      32.928 -10.983 -23.436  0.00  0.00    +0.101 C 
ENDBRANCH  28  32
ENDBRANCH  23  25
ENDBRANCH   4  23
TORSDOF 6
ENDMDL
MODEL 5
REMARK VINA RESULT:     -11.1      3.185      6.471
REMARK  Name = 16045418
REMARK  6 active torsions:
REMARK  status: ('A' for Active; 'I' for Inactive)
REMARK    1  A    between atoms: C_2  and  O_8
REMARK    2  A    between atoms: C_4  and  O_23
REMARK    3  A    between atoms: O_8  and  C_9
REMARK    4  A    between atoms: C_9  and  C_14
REMARK    5  A    between atoms: O_23  and  C_25
REMARK    6  A    between atoms: C_28  and  C_32
REMARK                            x       y       z     vdW  Elec       q    Type
REMARK                         _______ _______ _______ _____ _____    ______ ____
ROOT
ATOM      1 CL   UNL     1      29.343 -22.782 -16.830  0.00  0.00    -0.079 Cl
ATOM      2  C   UNL     1      32.768 -24.137 -14.230  0.00  0.00    +0.142 C 
ATOM      3  C   UNL     1      32.972 -23.974 -15.598  0.00  0.00    +0.075 C 
ATOM      4  C   UNL     1      31.917 -23.554 -16.410  0.00  0.00    +0.159 C 
ATOM      5  C   UNL     1      31.521 -23.885 -13.668  0.00  0.00    +0.038 C 
ATOM      6  C   UNL     1      30.665 -23.301 -15.851  0.00  0.00    +0.092 C 
ATOM      7  C   UNL     1      30.467 -23.466 -14.480  0.00  0.00    +0.018 C 
ENDROOT
BRANCH   2   8
ATOM      8  O   UNL     1      33.802 -24.549 -13.435  0.00  0.00    -0.469 OA
BRANCH   8   9
ATOM      9  C   UNL     1      35.093 -24.020 -13.743  0.00  0.00    +0.249 C 
BRANCH   9  14
ATOM     10  N   UNL     1      35.505 -26.053 -15.109  0.00  0.00    -0.227 N 
ATOM     11  N   UNL     1      36.432 -26.958 -15.488  0.00  0.00    -0.115 NA
ATOM     12  N   UNL     1      38.776 -27.128 -14.892  0.00  0.00    -0.335 NA
ATOM     13  N   UNL     1      41.008 -26.947 -14.072  0.00  0.00    -0.332 N 
ATOM     14  C   UNL     1      35.967 -25.087 -14.257  0.00  0.00    +0.097 C 
ATOM     15  C   UNL     1      37.289 -25.388 -14.073  0.00  0.00    +0.090 C 
ATOM     16  C   UNL     1      37.539 -26.557 -14.854  0.00  0.00    +0.105 C 
ATOM     17  C   UNL     1      38.183 -24.684 -13.281  0.00  0.00    +0.016 C 
ATOM     18  C   UNL     1      39.445 -25.284 -13.334  0.00  0.00    +0.049 C 
ATOM     19  C   UNL     1      39.675 -26.444 -14.115  0.00  0.00    +0.189 C 
ATOM     20  H   UNL     1      34.571 -26.086 -15.420  0.00  0.00    +0.175 HD
ATOM     21  H   UNL     1      41.247 -27.750 -14.588  0.00  0.00    +0.145 HD
ATOM     22  H   UNL     1      41.689 -26.490 -13.526  0.00  0.00    +0.145 HD
ENDBRANCH   9  14
ENDBRANCH   8   9
ENDBRANCH   2   8
BRANCH   4  23
ATOM     23  O   UNL     1      32.140 -23.400 -17.745  0.00  0.00    -0.452 OA
BRANCH  23  25
ATOM     24 CL   UNL     1      34.593 -20.473 -21.109  0.00  0.00    -0.082 Cl
ATOM     25  C   UNL     1      33.324 -22.798 -18.133  0.00  0.00    +0.147 C 
ATOM     26  C   UNL     1      34.457 -22.975 -17.357  0.00  0.00    +0.048 C 
ATOM     27  C   UNL     1      33.348 -22.034 -19.287  0.00  0.00    +0.049 C 
ATOM     28  C   UNL     1      35.650 -22.368 -17.749  0.00  0.00    +0.072 C 
ATOM     29  C   UNL     1      34.541 -21.428 -19.678  0.00  0.00    +0.061 C 
ATOM     30  C   UNL     1      35.693 -21.595 -18.908  0.00  0.00    +0.022 C 
BRANCH  28  32
ATOM     31  N   UNL     1      37.791 -22.676 -16.316  0.00  0.00    -0.191 NA
ATOM     32  C   UNL     1      36.830 -22.539 -16.960  0.00  0.00    +0.101 C 
ENDBRANCH  28  32
ENDBRANCH  23  25
ENDBRANCH   4  23
TORSDOF 6
ENDMDL
MODEL 6
REMARK VINA RESULT:     -10.8      2.342      2.958
REMARK  Name = 16045418
REMARK  6 active torsions:
REMARK  status: ('A' for Active; 'I' for Inactive)
REMARK    1  A    between atoms: C_2  and  O_8
REMARK    2  A    between atoms: C_4  and  O_23
REMARK    3  A    between atoms: O_8  and  C_9
REMARK    4  A    between atoms: C_9  and  C_14
REMARK    5  A    between atoms: O_23  and  C_25
REMARK    6  A    between atoms: C_28  and  C_32
REMARK                            x       y       z     vdW  Elec       q    Type
REMARK                         _______ _______ _______ _____ _____    ______ ____
ROOT
ATOM      1 CL   UNL     1      30.896 -24.186 -15.090  0.00  0.00    -0.079 Cl
ATOM      2  C   UNL     1      34.263 -22.726 -17.709  0.00  0.00    +0.142 C 
ATOM      3  C   UNL     1      34.555 -23.280 -16.466  0.00  0.00    +0.075 C 
ATOM      4  C   UNL     1      33.520 -23.735 -15.649  0.00  0.00    +0.159 C 
ATOM      5  C   UNL     1      32.944 -22.622 -18.142  0.00  0.00    +0.038 C 
ATOM      6  C   UNL     1      32.196 -23.633 -16.079  0.00  0.00    +0.092 C 
ATOM      7  C   UNL     1      31.909 -23.077 -17.325  0.00  0.00    +0.018 C 
ENDROOT
BRANCH   2   8
ATOM      8  O   UNL     1      35.278 -22.280 -18.509  0.00  0.00    -0.469 OA
BRANCH   8   9
ATOM      9  C   UNL     1      34.953 -22.047 -19.881  0.00  0.00    +0.249 C 
BRANCH   9  14
ATOM     10  N   UNL     1      36.828 -20.419 -19.813  0.00  0.00    -0.227 N 
ATOM     11  N   UNL     1      37.344 -19.307 -20.377  0.00  0.00    -0.115 NA
ATOM     12  N   UNL     1      36.511 -17.965 -22.217  0.00  0.00    -0.335 NA
ATOM     13  N   UNL     1      35.370 -16.926 -24.035  0.00  0.00    -0.332 N 
ATOM     14  C   UNL     1      35.655 -20.849 -20.372  0.00  0.00    +0.097 C 
ATOM     15  C   UNL     1      35.393 -19.951 -21.369  0.00  0.00    +0.090 C 
ATOM     16  C   UNL     1      36.465 -19.007 -21.340  0.00  0.00    +0.105 C 
ATOM     17  C   UNL     1      34.299 -19.973 -22.220  0.00  0.00    +0.016 C 
ATOM     18  C   UNL     1      34.365 -18.897 -23.112  0.00  0.00    +0.049 C 
ATOM     19  C   UNL     1      35.436 -17.971 -23.070  0.00  0.00    +0.189 C 
ATOM     20  H   UNL     1      37.261 -20.884 -19.061  0.00  0.00    +0.175 HD
ATOM     21  H   UNL     1      36.078 -16.243 -24.070  0.00  0.00    +0.145 HD
ATOM     22  H   UNL     1      34.617 -16.888 -24.668  0.00  0.00    +0.145 HD
ENDBRANCH   9  14
ENDBRANCH   8   9
ENDBRANCH   2   8
BRANCH   4  23
ATOM     23  O   UNL     1      33.830 -24.275 -14.437  0.00  0.00    -0.452 OA
BRANCH  23  25
ATOM     24 CL   UNL     1      37.581 -27.511 -15.598  0.00  0.00    -0.082 Cl
ATOM     25  C   UNL     1      35.138 -24.678 -14.230  0.00  0.00    +0.147 C 
ATOM     26  C   UNL     1      35.921 -23.989 -13.320  0.00  0.00    +0.048 C 
ATOM     27  C   UNL     1      35.631 -25.761 -14.937  0.00  0.00    +0.049 C 
ATOM     28  C   UNL     1      37.238 -24.396 -13.111  0.00  0.00    +0.072 C 
ATOM     29  C   UNL     1      36.948 -26.168 -14.728  0.00  0.00    +0.061 C 
ATOM     30  C   UNL     1      37.752 -25.485 -13.816  0.00  0.00    +0.022 C 
BRANCH  28  32
ATOM     31  N   UNL     1      38.734 -23.125 -11.416  0.00  0.00    -0.191 NA
ATOM     32  C   UNL     1      38.062 -23.696 -12.177  0.00  0.00    +0.101 C 
ENDBRANCH  28  32
ENDBRANCH  23  25
ENDBRANCH   4  23
TORSDOF 6
ENDMDL
MODEL 7
REMARK VINA RESULT:     -10.8      2.012      2.547
REMARK  Name = 16045418
REMARK  6 active torsions:
REMARK  status: ('A' for Active; 'I' for Inactive)
REMARK    1  A    between atoms: C_2  and  O_8
REMARK    2  A    between atoms: C_4  and  O_23
REMARK    3  A    between atoms: O_8  and  C_9
REMARK    4  A    between atoms: C_9  and  C_14
REMARK    5  A    between atoms: O_23  and  C_25
REMARK    6  A    between atoms: C_28  and  C_32
REMARK                            x       y       z     vdW  Elec       q    Type
REMARK                         _______ _______ _______ _____ _____    ______ ____
ROOT
ATOM      1 CL   UNL     1      31.694 -24.721 -14.217  0.00  0.00    -0.079 Cl
ATOM      2  C   UNL     1      34.289 -23.160 -17.557  0.00  0.00    +0.142 C 
ATOM      3  C   UNL     1      34.840 -24.016 -16.606  0.00  0.00    +0.075 C 
ATOM      4  C   UNL     1      34.044 -24.504 -15.570  0.00  0.00    +0.159 C 
ATOM      5  C   UNL     1      32.950 -22.788 -17.479  0.00  0.00    +0.038 C 
ATOM      6  C   UNL     1      32.701 -24.134 -15.487  0.00  0.00    +0.092 C 
ATOM      7  C   UNL     1      32.155 -23.276 -16.442  0.00  0.00    +0.018 C 
ENDROOT
BRANCH   2   8
ATOM      8  O   UNL     1      35.070 -22.682 -18.572  0.00  0.00    -0.469 OA
BRANCH   8   9
ATOM      9  C   UNL     1      34.398 -21.963 -19.608  0.00  0.00    +0.249 C 
BRANCH   9  14
ATOM     10  N   UNL     1      36.488 -20.622 -19.579  0.00  0.00    -0.227 N 
ATOM     11  N   UNL     1      37.167 -19.622 -20.180  0.00  0.00    -0.115 NA
ATOM     12  N   UNL     1      36.556 -18.258 -22.090  0.00  0.00    -0.335 NA
ATOM     13  N   UNL     1      35.598 -17.148 -23.970  0.00  0.00    -0.332 N 
ATOM     14  C   UNL     1      35.271 -20.903 -20.138  0.00  0.00    +0.097 C 
ATOM     15  C   UNL     1      35.154 -20.021 -21.177  0.00  0.00    +0.090 C 
ATOM     16  C   UNL     1      36.351 -19.243 -21.171  0.00  0.00    +0.105 C 
ATOM     17  C   UNL     1      34.077 -19.923 -22.045  0.00  0.00    +0.016 C 
ATOM     18  C   UNL     1      34.308 -18.909 -22.980  0.00  0.00    +0.049 C 
ATOM     19  C   UNL     1      35.502 -18.147 -22.959  0.00  0.00    +0.189 C 
ATOM     20  H   UNL     1      36.842 -21.111 -18.799  0.00  0.00    +0.175 HD
ATOM     21  H   UNL     1      36.398 -16.576 -24.022  0.00  0.00    +0.145 HD
ATOM     22  H   UNL     1      34.865 -17.029 -24.617  0.00  0.00    +0.145 HD
ENDBRANCH   9  14
ENDBRANCH   8   9
ENDBRANCH   2   8
BRANCH   4  23
ATOM     23  O   UNL     1      34.604 -25.341 -14.652  0.00  0.00    -0.452 OA
BRANCH  23  25
ATOM     24 CL   UNL     1      37.355 -22.722 -11.266  0.00  0.00    -0.082 Cl
ATOM     25  C   UNL     1      35.855 -25.010 -14.161  0.00  0.00    +0.147 C 
ATOM     26  C   UNL     1      36.979 -25.559 -14.753  0.00  0.00    +0.048 C 
ATOM     27  C   UNL     1      35.952 -24.138 -13.091  0.00  0.00    +0.049 C 
ATOM     28  C   UNL     1      38.240 -25.224 -14.259  0.00  0.00    +0.072 C 
ATOM     29  C   UNL     1      37.212 -23.804 -12.597  0.00  0.00    +0.061 C 
ATOM     30  C   UNL     1      38.356 -24.347 -13.180  0.00  0.00    +0.022 C 
BRANCH  28  32
ATOM     31  N   UNL     1      40.366 -26.237 -15.344  0.00  0.00    -0.191 NA
ATOM     32  C   UNL     1      39.412 -25.782 -14.857  0.00  0.00    +0.101 C 
ENDBRANCH  28  32
ENDBRANCH  23  25
ENDBRANCH   4  23
TORSDOF 6
ENDMDL
MODEL 8
REMARK VINA RESULT:     -10.7     11.618     15.952
REMARK  Name = 16045418
REMARK  6 active torsions:
REMARK  status: ('A' for Active; 'I' for Inactive)
REMARK    1  A    between atoms: C_2  and  O_8
REMARK    2  A    between atoms: C_4  and  O_23
REMARK    3  A    between atoms: O_8  and  C_9
REMARK    4  A    between atoms: C_9  and  C_14
REMARK    5  A    between atoms: O_23  and  C_25
REMARK    6  A    between atoms: C_28  and  C_32
REMARK                            x       y       z     vdW  Elec       q    Type
REMARK                         _______ _______ _______ _____ _____    ______ ____
ROOT
ATOM      1 CL   UNL     1      31.973  -7.271 -20.590  0.00  0.00    -0.079 Cl
ATOM      2  C   UNL     1      33.175 -10.588 -23.397  0.00  0.00    +0.142 C 
ATOM      3  C   UNL     1      33.873  -9.384 -23.424  0.00  0.00    +0.075 C 
ATOM      4  C   UNL     1      33.508  -8.353 -22.558  0.00  0.00    +0.159 C 
ATOM      5  C   UNL     1      32.115 -10.769 -22.514  0.00  0.00    +0.038 C 
ATOM      6  C   UNL     1      32.447  -8.529 -21.671  0.00  0.00    +0.092 C 
ATOM      7  C   UNL     1      31.750  -9.737 -21.649  0.00  0.00    +0.018 C 
ENDROOT
BRANCH   2   8
ATOM      8  O   UNL     1      33.533 -11.599 -24.246  0.00  0.00    -0.469 OA
BRANCH   8   9
ATOM      9  C   UNL     1      33.858 -12.853 -23.643  0.00  0.00    +0.249 C 
BRANCH   9  14
ATOM     10  N   UNL     1      32.856 -13.760 -25.726  0.00  0.00    -0.227 N 
ATOM     11  N   UNL     1      32.686 -14.869 -26.477  0.00  0.00    -0.115 NA
ATOM     12  N   UNL     1      33.463 -17.136 -26.102  0.00  0.00    -0.335 NA
ATOM     13  N   UNL     1      34.397 -19.206 -25.376  0.00  0.00    -0.332 N 
ATOM     14  C   UNL     1      33.577 -13.953 -24.579  0.00  0.00    +0.097 C 
ATOM     15  C   UNL     1      33.898 -15.283 -24.589  0.00  0.00    +0.090 C 
ATOM     16  C   UNL     1      33.327 -15.818 -25.784  0.00  0.00    +0.105 C 
ATOM     17  C   UNL     1      34.632 -15.952 -23.621  0.00  0.00    +0.016 C 
ATOM     18  C   UNL     1      34.761 -17.301 -23.966  0.00  0.00    +0.049 C 
ATOM     19  C   UNL     1      34.187 -17.814 -25.155  0.00  0.00    +0.189 C 
ATOM     20  H   UNL     1      32.489 -12.883 -25.983  0.00  0.00    +0.175 HD
ATOM     21  H   UNL     1      34.030 -19.637 -26.181  0.00  0.00    +0.145 HD
ATOM     22  H   UNL     1      34.910 -19.736 -24.723  0.00  0.00    +0.145 HD
ENDBRANCH   9  14
ENDBRANCH   8   9
ENDBRANCH   2   8
BRANCH   4  23
ATOM     23  O   UNL     1      34.207  -7.183 -22.601  0.00  0.00    -0.452 OA
BRANCH  23  25
ATOM     24 CL   UNL     1      35.342  -5.057 -27.083  0.00  0.00    -0.082 Cl
ATOM     25  C   UNL     1      33.870  -6.270 -23.586  0.00  0.00    +0.147 C 
ATOM     26  C   UNL     1      32.729  -5.503 -23.433  0.00  0.00    +0.048 C 
ATOM     27  C   UNL     1      34.684  -6.147 -24.698  0.00  0.00    +0.049 C 
ATOM     28  C   UNL     1      32.390  -4.583 -24.425  0.00  0.00    +0.072 C 
ATOM     29  C   UNL     1      34.345  -5.226 -25.690  0.00  0.00    +0.061 C 
ATOM     30  C   UNL     1      33.198  -4.445 -25.553  0.00  0.00    +0.022 C 
BRANCH  28  32
ATOM     31  N   UNL     1      30.257  -3.130 -24.169  0.00  0.00    -0.191 NA
ATOM     32  C   UNL     1      31.214  -3.783 -24.285  0.00  0.00    +0.101 C 
ENDBRANCH  28  32
ENDBRANCH  23  25
ENDBRANCH   4  23
TORSDOF 6
ENDMDL
MODEL 9
REMARK VINA RESULT:     -10.7     11.395     15.740
REMARK  Name = 16045418
REMARK  6 active torsions:
REMARK  status: ('A' for Active; 'I' for Inactive)
REMARK    1  A    between atoms: C_2  and  O_8
REMARK    2  A    between atoms: C_4  and  O_23
REMARK    3  A    between atoms: O_8  and  C_9
REMARK    4  A    between atoms: C_9  and  C_14
REMARK    5  A    between atoms: O_23  and  C_25
REMARK    6  A    between atoms: C_28  and  C_32
REMARK                            x       y       z     vdW  Elec       q    Type
REMARK                         _______ _______ _______ _____ _____    ______ ____
ROOT
ATOM      1 CL   UNL     1      31.965  -7.513 -20.347  0.00  0.00    -0.079 Cl
ATOM      2  C   UNL     1      33.078 -10.699 -23.336  0.00  0.00    +0.142 C 
ATOM      3  C   UNL     1      33.761  -9.486 -23.345  0.00  0.00    +0.075 C 
ATOM      4  C   UNL     1      33.423  -8.494 -22.423  0.00  0.00    +0.159 C 
ATOM      5  C   UNL     1      32.062 -10.930 -22.414  0.00  0.00    +0.038 C 
ATOM      6  C   UNL     1      32.404  -8.721 -21.497  0.00  0.00    +0.092 C 
ATOM      7  C   UNL     1      31.724  -9.938 -21.493  0.00  0.00    +0.018 C 
ENDROOT
BRANCH   2   8
ATOM      8  O   UNL     1      33.410 -11.671 -24.240  0.00  0.00    -0.469 OA
BRANCH   8   9
ATOM      9  C   UNL     1      33.909 -12.897 -23.704  0.00  0.00    +0.249 C 
BRANCH   9  14
ATOM     10  N   UNL     1      32.887 -13.827 -25.767  0.00  0.00    -0.227 N 
ATOM     11  N   UNL     1      32.702 -14.946 -26.500  0.00  0.00    -0.115 NA
ATOM     12  N   UNL     1      33.459 -17.214 -26.093  0.00  0.00    -0.335 NA
ATOM     13  N   UNL     1      34.376 -19.282 -25.340  0.00  0.00    -0.332 N 
ATOM     14  C   UNL     1      33.612 -14.009 -24.621  0.00  0.00    +0.097 C 
ATOM     15  C   UNL     1      33.920 -15.342 -24.612  0.00  0.00    +0.090 C 
ATOM     16  C   UNL     1      33.337 -15.889 -25.795  0.00  0.00    +0.105 C 
ATOM     17  C   UNL     1      34.652 -16.003 -23.638  0.00  0.00    +0.016 C 
ATOM     18  C   UNL     1      34.766 -17.358 -23.962  0.00  0.00    +0.049 C 
ATOM     19  C   UNL     1      34.181 -17.884 -25.140  0.00  0.00    +0.189 C 
ATOM     20  H   UNL     1      32.527 -12.950 -26.036  0.00  0.00    +0.175 HD
ATOM     21  H   UNL     1      34.000 -19.722 -26.136  0.00  0.00    +0.145 HD
ATOM     22  H   UNL     1      34.888 -19.806 -24.682  0.00  0.00    +0.145 HD
ENDBRANCH   9  14
ENDBRANCH   8   9
ENDBRANCH   2   8
BRANCH   4  23
ATOM     23  O   UNL     1      34.105  -7.315 -22.450  0.00  0.00    -0.452 OA
BRANCH  23  25
ATOM     24 CL   UNL     1      30.745  -3.915 -24.197  0.00  0.00    -0.082 Cl
ATOM     25  C   UNL     1      33.764  -6.398 -23.430  0.00  0.00    +0.147 C 
ATOM     26  C   UNL     1      34.626  -6.196 -24.494  0.00  0.00    +0.048 C 
ATOM     27  C   UNL     1      32.569  -5.708 -23.323  0.00  0.00    +0.049 C 
ATOM     28  C   UNL     1      34.281  -5.274 -25.482  0.00  0.00    +0.072 C 
ATOM     29  C   UNL     1      32.225  -4.786 -24.311  0.00  0.00    +0.061 C 
ATOM     30  C   UNL     1      33.082  -4.568 -25.390  0.00  0.00    +0.022 C 
BRANCH  28  32
ATOM     31  N   UNL     1      35.876  -4.870 -27.487  0.00  0.00    -0.191 NA
ATOM     32  C   UNL     1      35.159  -5.051 -26.587  0.00  0.00    +0.101 C 
ENDBRANCH  28  32
ENDBRANCH  23  25
ENDBRANCH   4  23
TORSDOF 6
ENDMDL
