MODEL 1
REMARK VINA RESULT:     -11.9      0.000      0.000
REMARK  Name = 15985904
REMARK  7 active torsions:
REMARK  status: ('A' for Active; 'I' for Inactive)
REMARK    1  A    between atoms: N_1  and  S_6
REMARK    2  A    between atoms: C_4  and  C_21
REMARK    3  A    between atoms: S_6  and  C_9
REMARK    4  A    between atoms: C_10  and  C_17
REMARK    5  A    between atoms: C_22  and  C_25
REMARK    6  A    between atoms: N_24  and  C_27
REMARK    7  A    between atoms: C_28  and  N_33
REMARK                            x       y       z     vdW  Elec       q    Type
REMARK                         _______ _______ _______ _____ _____    ______ ____
ROOT
ATOM      1  N   UNL     1      35.186 -17.229 -22.323  0.00  0.00    -0.167 N 
ATOM      2  C   UNL     1      34.988 -16.235 -23.189  0.00  0.00    +0.089 C 
ATOM      3  C   UNL     1      35.063 -16.874 -21.044  0.00  0.00    +0.089 C 
ATOM      4  C   UNL     1      34.710 -15.126 -22.420  0.00  0.00    +0.018 C 
ATOM      5  C   UNL     1      34.758 -15.531 -21.062  0.00  0.00    +0.019 C 
ENDROOT
BRANCH   1   6
ATOM      6  S   UNL     1      35.570 -18.840 -22.817  0.00  0.00    +0.080 S 
ATOM      7  O   UNL     1      37.021 -18.826 -22.869  0.00  0.00    -0.149 OA
ATOM      8  O   UNL     1      34.752 -19.103 -23.986  0.00  0.00    -0.149 OA
BRANCH   6   9
ATOM      9  C   UNL     1      35.018 -19.872 -21.521  0.00  0.00    +0.126 C 
ATOM     10  C   UNL     1      34.137 -21.520 -19.449  0.00  0.00    +0.003 C 
ATOM     11  C   UNL     1      33.652 -20.055 -21.308  0.00  0.00    +0.020 C 
ATOM     12  C   UNL     1      35.944 -20.514 -20.698  0.00  0.00    +0.020 C 
ATOM     13  C   UNL     1      33.212 -20.878 -20.272  0.00  0.00    +0.001 C 
ATOM     14  C   UNL     1      35.503 -21.338 -19.662  0.00  0.00    +0.001 C 
BRANCH  10  17
ATOM     15  N   UNL     1      32.370 -23.355 -16.952  0.00  0.00    -0.208 N 
ATOM     16  N   UNL     1      33.581 -23.866 -16.670  0.00  0.00    -0.176 NA
ATOM     17  C   UNL     1      33.683 -22.368 -18.383  0.00  0.00    +0.037 C 
ATOM     18  C   UNL     1      32.377 -22.451 -17.974  0.00  0.00    +0.086 C 
ATOM     19  C   UNL     1      34.379 -23.257 -17.549  0.00  0.00    +0.119 C 
ATOM     20  C   UNL     1      31.218 -23.782 -16.194  0.00  0.00    +0.140 C 
ENDBRANCH  10  17
ENDBRANCH   6   9
ENDBRANCH   1   6
BRANCH   4  21
ATOM     21  C   UNL     1      34.432 -13.839 -22.924  0.00  0.00    +0.006 C 
ATOM     22  C   UNL     1      33.917 -13.500 -24.140  0.00  0.00    +0.058 C 
BRANCH  22  25
ATOM     23  O   UNL     1      33.514 -11.739 -25.687  0.00  0.00    -0.270 OA
ATOM     24  N   UNL     1      33.688 -11.252 -23.397  0.00  0.00    -0.279 N 
ATOM     25  C   UNL     1      33.682 -12.070 -24.519  0.00  0.00    +0.250 C 
ATOM     26  H   UNL     1      33.840 -11.698 -22.532  0.00  0.00    +0.155 HD
BRANCH  24  27
ATOM     27  C   UNL     1      33.501  -9.848 -23.357  0.00  0.00    +0.064 C 
ATOM     28  C   UNL     1      32.349  -9.311 -22.805  0.00  0.00    +0.055 C 
ATOM     29  C   UNL     1      34.495  -9.037 -23.881  0.00  0.00    +0.016 C 
ATOM     30  C   UNL     1      32.187  -7.926 -22.776  0.00  0.00    +0.015 C 
ATOM     31  C   UNL     1      34.333  -7.652 -23.853  0.00  0.00    +0.001 C 
ATOM     32  C   UNL     1      33.179  -7.096 -23.301  0.00  0.00    +0.001 C 
BRANCH  28  33
ATOM     33  N   UNL     1      31.332 -10.131 -22.267  0.00  0.00    -0.356 N 
ATOM     34  H   UNL     1      31.538 -10.746 -21.526  0.00  0.00    +0.142 HD
ATOM     35  H   UNL     1      30.419 -10.086 -22.631  0.00  0.00    +0.142 HD
ENDBRANCH  28  33
ENDBRANCH  24  27
ENDBRANCH  22  25
ENDBRANCH   4  21
TORSDOF 7
ENDMDL
MODEL 2
REMARK VINA RESULT:     -11.3      2.303     11.782
REMARK  Name = 15985904
REMARK  7 active torsions:
REMARK  status: ('A' for Active; 'I' for Inactive)
REMARK    1  A    between atoms: N_1  and  S_6
REMARK    2  A    between atoms: C_4  and  C_21
REMARK    3  A    between atoms: S_6  and  C_9
REMARK    4  A    between atoms: C_10  and  C_17
REMARK    5  A    between atoms: C_22  and  C_25
REMARK    6  A    between atoms: N_24  and  C_27
REMARK    7  A    between atoms: C_28  and  N_33
REMARK                            x       y       z     vdW  Elec       q    Type
REMARK                         _______ _______ _______ _____ _____    ______ ____
ROOT
ATOM      1  N   UNL     1      34.705 -19.723 -21.284  0.00  0.00    -0.167 N 
ATOM      2  C   UNL     1      34.893 -20.548 -20.253  0.00  0.00    +0.089 C 
ATOM      3  C   UNL     1      33.453 -19.693 -21.741  0.00  0.00    +0.089 C 
ATOM      4  C   UNL     1      33.661 -21.113 -20.005  0.00  0.00    +0.018 C 
ATOM      5  C   UNL     1      32.750 -20.572 -20.946  0.00  0.00    +0.019 C 
ENDROOT
BRANCH   1   6
ATOM      6  S   UNL     1      35.977 -18.773 -21.969  0.00  0.00    +0.080 S 
ATOM      7  O   UNL     1      36.212 -19.422 -23.246  0.00  0.00    -0.149 OA
ATOM      8  O   UNL     1      36.999 -18.680 -20.944  0.00  0.00    -0.149 OA
BRANCH   6   9
ATOM      9  C   UNL     1      35.297 -17.183 -22.210  0.00  0.00    +0.126 C 
ATOM     10  C   UNL     1      34.214 -14.641 -22.595  0.00  0.00    +0.003 C 
ATOM     11  C   UNL     1      35.004 -16.738 -23.499  0.00  0.00    +0.020 C 
ATOM     12  C   UNL     1      35.049 -16.357 -21.114  0.00  0.00    +0.020 C 
ATOM     13  C   UNL     1      34.462 -15.468 -23.692  0.00  0.00    +0.001 C 
ATOM     14  C   UNL     1      34.507 -15.086 -21.307  0.00  0.00    +0.001 C 
BRANCH  10  17
ATOM     15  N   UNL     1      32.446 -11.544 -22.509  0.00  0.00    -0.208 N 
ATOM     16  N   UNL     1      33.172 -11.259 -23.604  0.00  0.00    -0.176 NA
ATOM     17  C   UNL     1      33.656 -13.333 -22.794  0.00  0.00    +0.037 C 
ATOM     18  C   UNL     1      32.700 -12.777 -21.984  0.00  0.00    +0.086 C 
ATOM     19  C   UNL     1      33.910 -12.359 -23.772  0.00  0.00    +0.119 C 
ATOM     20  C   UNL     1      31.507 -10.573 -22.001  0.00  0.00    +0.140 C 
ENDBRANCH  10  17
ENDBRANCH   6   9
ENDBRANCH   1   6
BRANCH   4  21
ATOM     21  C   UNL     1      33.392 -22.055 -18.991  0.00  0.00    +0.006 C 
ATOM     22  C   UNL     1      34.250 -22.570 -18.064  0.00  0.00    +0.058 C 
BRANCH  22  25
ATOM     23  O   UNL     1      34.500 -24.520 -16.727  0.00  0.00    -0.270 OA
ATOM     24  N   UNL     1      32.529 -23.254 -16.571  0.00  0.00    -0.279 N 
ATOM     25  C   UNL     1      33.794 -23.570 -17.048  0.00  0.00    +0.250 C 
ATOM     26  H   UNL     1      32.110 -22.446 -16.948  0.00  0.00    +0.155 HD
BRANCH  24  27
ATOM     27  C   UNL     1      31.772 -23.963 -15.606  0.00  0.00    +0.064 C 
ATOM     28  C   UNL     1      32.255 -24.122 -14.317  0.00  0.00    +0.055 C 
ATOM     29  C   UNL     1      30.547 -24.487 -15.987  0.00  0.00    +0.016 C 
ATOM     30  C   UNL     1      31.492 -24.824 -13.384  0.00  0.00    +0.015 C 
ATOM     31  C   UNL     1      29.785 -25.189 -15.054  0.00  0.00    +0.001 C 
ATOM     32  C   UNL     1      30.257 -25.359 -13.752  0.00  0.00    +0.001 C 
BRANCH  28  33
ATOM     33  N   UNL     1      33.502 -23.589 -13.921  0.00  0.00    -0.356 N 
ATOM     34  H   UNL     1      33.587 -23.129 -13.055  0.00  0.00    +0.142 HD
ATOM     35  H   UNL     1      34.285 -23.678 -14.510  0.00  0.00    +0.142 HD
ENDBRANCH  28  33
ENDBRANCH  24  27
ENDBRANCH  22  25
ENDBRANCH   4  21
TORSDOF 7
ENDMDL
MODEL 3
REMARK VINA RESULT:     -11.2      3.205     12.108
REMARK  Name = 15985904
REMARK  7 active torsions:
REMARK  status: ('A' for Active; 'I' for Inactive)
REMARK    1  A    between atoms: N_1  and  S_6
REMARK    2  A    between atoms: C_4  and  C_21
REMARK    3  A    between atoms: S_6  and  C_9
REMARK    4  A    between atoms: C_10  and  C_17
REMARK    5  A    between atoms: C_22  and  C_25
REMARK    6  A    between atoms: N_24  and  C_27
REMARK    7  A    between atoms: C_28  and  N_33
REMARK                            x       y       z     vdW  Elec       q    Type
REMARK                         _______ _______ _______ _____ _____    ______ ____
ROOT
ATOM      1  N   UNL     1      35.376 -19.984 -21.118  0.00  0.00    -0.167 N 
ATOM      2  C   UNL     1      35.876 -20.805 -20.194  0.00  0.00    +0.089 C 
ATOM      3  C   UNL     1      34.046 -20.010 -21.212  0.00  0.00    +0.089 C 
ATOM      4  C   UNL     1      34.785 -21.427 -19.627  0.00  0.00    +0.018 C 
ATOM      5  C   UNL     1      33.628 -20.924 -20.271  0.00  0.00    +0.019 C 
ENDROOT
BRANCH   1   6
ATOM      6  S   UNL     1      36.367 -18.973 -22.109  0.00  0.00    +0.080 S 
ATOM      7  O   UNL     1      36.324 -19.641 -23.398  0.00  0.00    -0.149 OA
ATOM      8  O   UNL     1      37.602 -18.783 -21.372  0.00  0.00    -0.149 OA
BRANCH   6   9
ATOM      9  C   UNL     1      35.539 -17.438 -22.192  0.00  0.00    +0.126 C 
ATOM     10  C   UNL     1      34.213 -14.987 -22.324  0.00  0.00    +0.003 C 
ATOM     11  C   UNL     1      35.241 -16.743 -21.021  0.00  0.00    +0.020 C 
ATOM     12  C   UNL     1      35.174 -16.908 -23.430  0.00  0.00    +0.020 C 
ATOM     13  C   UNL     1      34.578 -15.517 -21.087  0.00  0.00    +0.001 C 
ATOM     14  C   UNL     1      34.511 -15.683 -23.496  0.00  0.00    +0.001 C 
BRANCH  10  17
ATOM     15  N   UNL     1      32.148 -12.104 -21.939  0.00  0.00    -0.208 N 
ATOM     16  N   UNL     1      32.851 -11.633 -22.984  0.00  0.00    -0.176 NA
ATOM     17  C   UNL     1      33.531 -13.725 -22.392  0.00  0.00    +0.037 C 
ATOM     18  C   UNL     1      32.518 -13.356 -21.545  0.00  0.00    +0.086 C 
ATOM     19  C   UNL     1      33.695 -12.631 -23.255  0.00  0.00    +0.119 C 
ATOM     20  C   UNL     1      31.113 -11.290 -21.347  0.00  0.00    +0.140 C 
ENDBRANCH  10  17
ENDBRANCH   6   9
ENDBRANCH   1   6
BRANCH   4  21
ATOM     21  C   UNL     1      34.846 -22.386 -18.594  0.00  0.00    +0.006 C 
ATOM     22  C   UNL     1      35.609 -22.364 -17.463  0.00  0.00    +0.058 C 
BRANCH  22  25
ATOM     23  O   UNL     1      34.618 -24.269 -16.442  0.00  0.00    -0.270 OA
ATOM     24  N   UNL     1      36.656 -23.443 -15.620  0.00  0.00    -0.279 N 
ATOM     25  C   UNL     1      35.551 -23.474 -16.460  0.00  0.00    +0.250 C 
ATOM     26  H   UNL     1      37.310 -22.725 -15.785  0.00  0.00    +0.155 HD
BRANCH  24  27
ATOM     27  C   UNL     1      36.949 -24.327 -14.553  0.00  0.00    +0.064 C 
ATOM     28  C   UNL     1      36.139 -24.361 -13.429  0.00  0.00    +0.055 C 
ATOM     29  C   UNL     1      38.058 -25.149 -14.667  0.00  0.00    +0.016 C 
ATOM     30  C   UNL     1      36.448 -25.240 -12.391  0.00  0.00    +0.015 C 
ATOM     31  C   UNL     1      38.367 -26.028 -13.629  0.00  0.00    +0.001 C 
ATOM     32  C   UNL     1      37.562 -26.073 -12.491  0.00  0.00    +0.001 C 
BRANCH  28  33
ATOM     33  N   UNL     1      35.006 -23.528 -13.306  0.00  0.00    -0.356 N 
ATOM     34  H   UNL     1      34.894 -22.758 -13.910  0.00  0.00    +0.142 HD
ATOM     35  H   UNL     1      34.327 -23.716 -12.619  0.00  0.00    +0.142 HD
ENDBRANCH  28  33
ENDBRANCH  24  27
ENDBRANCH  22  25
ENDBRANCH   4  21
TORSDOF 7
ENDMDL
MODEL 4
REMARK VINA RESULT:     -11.0      2.255     11.567
REMARK  Name = 15985904
REMARK  7 active torsions:
REMARK  status: ('A' for Active; 'I' for Inactive)
REMARK    1  A    between atoms: N_1  and  S_6
REMARK    2  A    between atoms: C_4  and  C_21
REMARK    3  A    between atoms: S_6  and  C_9
REMARK    4  A    between atoms: C_10  and  C_17
REMARK    5  A    between atoms: C_22  and  C_25
REMARK    6  A    between atoms: N_24  and  C_27
REMARK    7  A    between atoms: C_28  and  N_33
REMARK                            x       y       z     vdW  Elec       q    Type
REMARK                         _______ _______ _______ _____ _____    ______ ____
ROOT
ATOM      1  N   UNL     1      34.784 -18.245 -23.552  0.00  0.00    -0.167 N 
ATOM      2  C   UNL     1      34.192 -19.269 -22.938  0.00  0.00    +0.089 C 
ATOM      3  C   UNL     1      35.912 -17.835 -22.970  0.00  0.00    +0.089 C 
ATOM      4  C   UNL     1      34.995 -19.565 -21.858  0.00  0.00    +0.018 C 
ATOM      5  C   UNL     1      36.083 -18.657 -21.878  0.00  0.00    +0.019 C 
ENDROOT
BRANCH   1   6
ATOM      6  S   UNL     1      34.145 -17.509 -24.979  0.00  0.00    +0.080 S 
ATOM      7  O   UNL     1      32.854 -18.157 -25.126  0.00  0.00    -0.149 OA
ATOM      8  O   UNL     1      35.188 -17.617 -25.982  0.00  0.00    -0.149 OA
BRANCH   6   9
ATOM      9  C   UNL     1      33.937 -15.821 -24.586  0.00  0.00    +0.126 C 
ATOM     10  C   UNL     1      33.603 -13.124 -23.956  0.00  0.00    +0.003 C 
ATOM     11  C   UNL     1      34.394 -15.329 -23.364  0.00  0.00    +0.020 C 
ATOM     12  C   UNL     1      33.313 -14.965 -25.493  0.00  0.00    +0.020 C 
ATOM     13  C   UNL     1      34.227 -13.980 -23.049  0.00  0.00    +0.001 C 
ATOM     14  C   UNL     1      33.146 -13.616 -25.178  0.00  0.00    +0.001 C 
BRANCH  10  17
ATOM     15  N   UNL     1      32.682  -9.915 -22.700  0.00  0.00    -0.208 N 
ATOM     16  N   UNL     1      33.620  -9.467 -23.551  0.00  0.00    -0.176 NA
ATOM     17  C   UNL     1      33.432 -11.736 -23.631  0.00  0.00    +0.037 C 
ATOM     18  C   UNL     1      32.530 -11.270 -22.710  0.00  0.00    +0.086 C 
ATOM     19  C   UNL     1      34.075 -10.587 -24.117  0.00  0.00    +0.119 C 
ATOM     20  C   UNL     1      31.948  -8.977 -21.884  0.00  0.00    +0.140 C 
ENDBRANCH  10  17
ENDBRANCH   6   9
ENDBRANCH   1   6
BRANCH   4  21
ATOM     21  C   UNL     1      34.749 -20.592 -20.923  0.00  0.00    +0.006 C 
ATOM     22  C   UNL     1      35.650 -21.279 -20.165  0.00  0.00    +0.058 C 
BRANCH  22  25
ATOM     23  O   UNL     1      34.536 -23.299 -19.586  0.00  0.00    -0.270 OA
ATOM     24  N   UNL     1      35.681 -22.092 -17.929  0.00  0.00    -0.279 N 
ATOM     25  C   UNL     1      35.215 -22.349 -19.212  0.00  0.00    +0.250 C 
ATOM     26  H   UNL     1      36.216 -21.273 -17.815  0.00  0.00    +0.155 HD
BRANCH  24  27
ATOM     27  C   UNL     1      35.473 -22.875 -16.767  0.00  0.00    +0.064 C 
ATOM     28  C   UNL     1      36.547 -23.257 -15.979  0.00  0.00    +0.055 C 
ATOM     29  C   UNL     1      34.176 -23.242 -16.445  0.00  0.00    +0.016 C 
ATOM     30  C   UNL     1      36.318 -24.028 -14.840  0.00  0.00    +0.015 C 
ATOM     31  C   UNL     1      33.947 -24.013 -15.305  0.00  0.00    +0.001 C 
ATOM     32  C   UNL     1      35.018 -24.406 -14.503  0.00  0.00    +0.001 C 
BRANCH  28  33
ATOM     33  N   UNL     1      37.871 -22.885 -16.300  0.00  0.00    -0.356 N 
ATOM     34  H   UNL     1      38.587 -23.562 -16.295  0.00  0.00    +0.142 HD
ATOM     35  H   UNL     1      38.079 -21.951 -16.529  0.00  0.00    +0.142 HD
ENDBRANCH  28  33
ENDBRANCH  24  27
ENDBRANCH  22  25
ENDBRANCH   4  21
TORSDOF 7
ENDMDL
MODEL 5
REMARK VINA RESULT:      -9.9      2.752      4.365
REMARK  Name = 15985904
REMARK  7 active torsions:
REMARK  status: ('A' for Active; 'I' for Inactive)
REMARK    1  A    between atoms: N_1  and  S_6
REMARK    2  A    between atoms: C_4  and  C_21
REMARK    3  A    between atoms: S_6  and  C_9
REMARK    4  A    between atoms: C_10  and  C_17
REMARK    5  A    between atoms: C_22  and  C_25
REMARK    6  A    between atoms: N_24  and  C_27
REMARK    7  A    between atoms: C_28  and  N_33
REMARK                            x       y       z     vdW  Elec       q    Type
REMARK                         _______ _______ _______ _____ _____    ______ ____
ROOT
ATOM      1  N   UNL     1      33.577 -14.151 -24.608  0.00  0.00    -0.167 N 
ATOM      2  C   UNL     1      33.944 -12.957 -25.075  0.00  0.00    +0.089 C 
ATOM      3  C   UNL     1      32.968 -14.113 -23.423  0.00  0.00    +0.089 C 
ATOM      4  C   UNL     1      33.544 -12.050 -24.119  0.00  0.00    +0.018 C 
ATOM      5  C   UNL     1      32.925 -12.781 -23.074  0.00  0.00    +0.019 C 
ENDROOT
BRANCH   1   6
ATOM      6  S   UNL     1      33.868 -15.623 -25.466  0.00  0.00    +0.080 S 
ATOM      7  O   UNL     1      34.958 -15.269 -26.358  0.00  0.00    -0.149 OA
ATOM      8  O   UNL     1      32.574 -16.060 -25.955  0.00  0.00    -0.149 OA
BRANCH   6   9
ATOM      9  C   UNL     1      34.413 -16.767 -24.265  0.00  0.00    +0.126 C 
ATOM     10  C   UNL     1      35.283 -18.595 -22.345  0.00  0.00    +0.003 C 
ATOM     11  C   UNL     1      34.165 -18.129 -24.435  0.00  0.00    +0.020 C 
ATOM     12  C   UNL     1      35.097 -16.319 -23.134  0.00  0.00    +0.020 C 
ATOM     13  C   UNL     1      34.600 -19.042 -23.476  0.00  0.00    +0.001 C 
ATOM     14  C   UNL     1      35.531 -17.233 -22.174  0.00  0.00    +0.001 C 
BRANCH  10  17
ATOM     15  N   UNL     1      35.722 -21.164 -19.909  0.00  0.00    -0.208 N 
ATOM     16  N   UNL     1      36.992 -20.723 -19.877  0.00  0.00    -0.176 NA
ATOM     17  C   UNL     1      35.730 -19.535 -21.357  0.00  0.00    +0.037 C 
ATOM     18  C   UNL     1      34.924 -20.484 -20.782  0.00  0.00    +0.086 C 
ATOM     19  C   UNL     1      36.989 -19.727 -20.766  0.00  0.00    +0.119 C 
ATOM     20  C   UNL     1      35.324 -22.264 -19.064  0.00  0.00    +0.140 C 
ENDBRANCH  10  17
ENDBRANCH   6   9
ENDBRANCH   1   6
BRANCH   4  21
ATOM     21  C   UNL     1      33.730 -10.654 -24.198  0.00  0.00    +0.006 C 
ATOM     22  C   UNL     1      33.266  -9.689 -23.354  0.00  0.00    +0.058 C 
BRANCH  22  25
ATOM     23  O   UNL     1      34.709  -7.814 -23.587  0.00  0.00    -0.270 OA
ATOM     24  N   UNL     1      32.388  -7.521 -23.785  0.00  0.00    -0.279 N 
ATOM     25  C   UNL     1      33.559  -8.239 -23.587  0.00  0.00    +0.250 C 
ATOM     26  H   UNL     1      31.549  -8.035 -23.750  0.00  0.00    +0.155 HD
BRANCH  24  27
ATOM     27  C   UNL     1      32.264  -6.132 -24.034  0.00  0.00    +0.064 C 
ATOM     28  C   UNL     1      31.650  -5.306 -23.106  0.00  0.00    +0.055 C 
ATOM     29  C   UNL     1      32.772  -5.629 -25.221  0.00  0.00    +0.016 C 
ATOM     30  C   UNL     1      31.540  -3.942 -23.373  0.00  0.00    +0.015 C 
ATOM     31  C   UNL     1      32.661  -4.264 -25.488  0.00  0.00    +0.001 C 
ATOM     32  C   UNL     1      32.045  -3.421 -24.564  0.00  0.00    +0.001 C 
BRANCH  28  33
ATOM     33  N   UNL     1      31.133  -5.811 -21.892  0.00  0.00    -0.356 N 
ATOM     34  H   UNL     1      30.549  -6.604 -21.899  0.00  0.00    +0.142 HD
ATOM     35  H   UNL     1      31.355  -5.371 -21.041  0.00  0.00    +0.142 HD
ENDBRANCH  28  33
ENDBRANCH  24  27
ENDBRANCH  22  25
ENDBRANCH   4  21
TORSDOF 7
ENDMDL
MODEL 6
REMARK VINA RESULT:      -9.8      5.333     13.042
REMARK  Name = 15985904
REMARK  7 active torsions:
REMARK  status: ('A' for Active; 'I' for Inactive)
REMARK    1  A    between atoms: N_1  and  S_6
REMARK    2  A    between atoms: C_4  and  C_21
REMARK    3  A    between atoms: S_6  and  C_9
REMARK    4  A    between atoms: C_10  and  C_17
REMARK    5  A    between atoms: C_22  and  C_25
REMARK    6  A    between atoms: N_24  and  C_27
REMARK    7  A    between atoms: C_28  and  N_33
REMARK                            x       y       z     vdW  Elec       q    Type
REMARK                         _______ _______ _______ _____ _____    ______ ____
ROOT
ATOM      1  N   UNL     1      32.166  -8.842 -20.997  0.00  0.00    -0.167 N 
ATOM      2  C   UNL     1      32.623  -9.515 -22.053  0.00  0.00    +0.089 C 
ATOM      3  C   UNL     1      31.501  -9.590 -20.116  0.00  0.00    +0.089 C 
ATOM      4  C   UNL     1      32.229 -10.820 -21.856  0.00  0.00    +0.018 C 
ATOM      5  C   UNL     1      31.519 -10.868 -20.630  0.00  0.00    +0.019 C 
ENDROOT
BRANCH   1   6
ATOM      6  S   UNL     1      32.412  -7.144 -20.788  0.00  0.00    +0.080 S 
ATOM      7  O   UNL     1      33.488  -7.091 -19.815  0.00  0.00    -0.149 OA
ATOM      8  O   UNL     1      31.100  -6.581 -20.528  0.00  0.00    -0.149 OA
BRANCH   6   9
ATOM      9  C   UNL     1      32.963  -6.555 -22.336  0.00  0.00    +0.126 C 
ATOM     10  C   UNL     1      33.843  -5.613 -24.810  0.00  0.00    +0.003 C 
ATOM     11  C   UNL     1      34.118  -7.083 -22.913  0.00  0.00    +0.020 C 
ATOM     12  C   UNL     1      32.248  -5.556 -22.997  0.00  0.00    +0.020 C 
ATOM     13  C   UNL     1      34.558  -6.612 -24.149  0.00  0.00    +0.001 C 
ATOM     14  C   UNL     1      32.688  -5.085 -24.234  0.00  0.00    +0.001 C 
BRANCH  10  17
ATOM     15  N   UNL     1      34.279  -4.306 -28.101  0.00  0.00    -0.208 N 
ATOM     16  N   UNL     1      35.586  -4.498 -27.854  0.00  0.00    -0.176 NA
ATOM     17  C   UNL     1      34.297  -5.128 -26.083  0.00  0.00    +0.037 C 
ATOM     18  C   UNL     1      33.463  -4.668 -27.069  0.00  0.00    +0.086 C 
ATOM     19  C   UNL     1      35.589  -5.001 -26.617  0.00  0.00    +0.119 C 
ATOM     20  C   UNL     1      33.863  -3.760 -29.371  0.00  0.00    +0.140 C 
ENDBRANCH  10  17
ENDBRANCH   6   9
ENDBRANCH   1   6
BRANCH   4  21
ATOM     21  C   UNL     1      32.501 -11.890 -22.735  0.00  0.00    +0.006 C 
ATOM     22  C   UNL     1      33.397 -11.934 -23.762  0.00  0.00    +0.058 C 
BRANCH  22  25
ATOM     23  O   UNL     1      33.501 -13.109 -25.827  0.00  0.00    -0.270 OA
ATOM     24  N   UNL     1      33.776 -14.282 -23.812  0.00  0.00    -0.279 N 
ATOM     25  C   UNL     1      33.561 -13.162 -24.604  0.00  0.00    +0.250 C 
ATOM     26  H   UNL     1      33.792 -14.132 -22.838  0.00  0.00    +0.155 HD
BRANCH  24  27
ATOM     27  C   UNL     1      33.974 -15.616 -24.247  0.00  0.00    +0.064 C 
ATOM     28  C   UNL     1      34.720 -16.498 -23.482  0.00  0.00    +0.055 C 
ATOM     29  C   UNL     1      33.403 -16.007 -25.447  0.00  0.00    +0.016 C 
ATOM     30  C   UNL     1      34.901 -17.806 -23.930  0.00  0.00    +0.015 C 
ATOM     31  C   UNL     1      33.585 -17.315 -25.896  0.00  0.00    +0.001 C 
ATOM     32  C   UNL     1      34.334 -18.215 -25.137  0.00  0.00    +0.001 C 
BRANCH  28  33
ATOM     33  N   UNL     1      35.302 -16.107 -22.256  0.00  0.00    -0.356 N 
ATOM     34  H   UNL     1      35.659 -16.789 -21.642  0.00  0.00    +0.142 HD
ATOM     35  H   UNL     1      35.352 -15.154 -22.016  0.00  0.00    +0.142 HD
ENDBRANCH  28  33
ENDBRANCH  24  27
ENDBRANCH  22  25
ENDBRANCH   4  21
TORSDOF 7
ENDMDL
MODEL 7
REMARK VINA RESULT:      -9.7      5.879     13.770
REMARK  Name = 15985904
REMARK  7 active torsions:
REMARK  status: ('A' for Active; 'I' for Inactive)
REMARK    1  A    between atoms: N_1  and  S_6
REMARK    2  A    between atoms: C_4  and  C_21
REMARK    3  A    between atoms: S_6  and  C_9
REMARK    4  A    between atoms: C_10  and  C_17
REMARK    5  A    between atoms: C_22  and  C_25
REMARK    6  A    between atoms: N_24  and  C_27
REMARK    7  A    between atoms: C_28  and  N_33
REMARK                            x       y       z     vdW  Elec       q    Type
REMARK                         _______ _______ _______ _____ _____    ______ ____
ROOT
ATOM      1  N   UNL     1      31.845  -7.284 -22.329  0.00  0.00    -0.167 N 
ATOM      2  C   UNL     1      31.741  -8.530 -22.791  0.00  0.00    +0.089 C 
ATOM      3  C   UNL     1      32.400  -7.193 -21.121  0.00  0.00    +0.089 C 
ATOM      4  C   UNL     1      32.273  -9.334 -21.807  0.00  0.00    +0.018 C 
ATOM      5  C   UNL     1      32.690  -8.487 -20.749  0.00  0.00    +0.019 C 
ENDROOT
BRANCH   1   6
ATOM      6  S   UNL     1      31.305  -5.905 -23.220  0.00  0.00    +0.080 S 
ATOM      7  O   UNL     1      31.195  -4.881 -22.196  0.00  0.00    -0.149 OA
ATOM      8  O   UNL     1      30.165  -6.355 -23.996  0.00  0.00    -0.149 OA
BRANCH   6   9
ATOM      9  C   UNL     1      32.602  -5.523 -24.325  0.00  0.00    +0.126 C 
ATOM     10  C   UNL     1      34.674  -4.913 -26.091  0.00  0.00    +0.003 C 
ATOM     11  C   UNL     1      32.398  -4.594 -25.345  0.00  0.00    +0.020 C 
ATOM     12  C   UNL     1      33.842  -6.147 -24.188  0.00  0.00    +0.020 C 
ATOM     13  C   UNL     1      33.433  -4.289 -26.228  0.00  0.00    +0.001 C 
ATOM     14  C   UNL     1      34.878  -5.842 -25.071  0.00  0.00    +0.001 C 
BRANCH  10  17
ATOM     15  N   UNL     1      36.809  -3.824 -28.733  0.00  0.00    -0.208 N 
ATOM     16  N   UNL     1      37.776  -4.410 -28.006  0.00  0.00    -0.176 NA
ATOM     17  C   UNL     1      35.740  -4.599 -27.001  0.00  0.00    +0.037 C 
ATOM     18  C   UNL     1      35.568  -3.909 -28.173  0.00  0.00    +0.086 C 
ATOM     19  C   UNL     1      37.113  -4.882 -26.947  0.00  0.00    +0.119 C 
ATOM     20  C   UNL     1      37.142  -3.182 -29.983  0.00  0.00    +0.140 C 
ENDBRANCH  10  17
ENDBRANCH   6   9
ENDBRANCH   1   6
BRANCH   4  21
ATOM     21  C   UNL     1      32.369 -10.739 -21.872  0.00  0.00    +0.006 C 
ATOM     22  C   UNL     1      32.856 -11.508 -22.888  0.00  0.00    +0.058 C 
BRANCH  22  25
ATOM     23  O   UNL     1      32.151 -13.607 -22.021  0.00  0.00    -0.270 OA
ATOM     24  N   UNL     1      33.823 -13.536 -23.667  0.00  0.00    -0.279 N 
ATOM     25  C   UNL     1      32.886 -13.002 -22.793  0.00  0.00    +0.250 C 
ATOM     26  H   UNL     1      34.328 -12.891 -24.215  0.00  0.00    +0.155 HD
BRANCH  24  27
ATOM     27  C   UNL     1      34.137 -14.904 -23.859  0.00  0.00    +0.064 C 
ATOM     28  C   UNL     1      33.672 -15.579 -24.976  0.00  0.00    +0.055 C 
ATOM     29  C   UNL     1      34.915 -15.540 -22.905  0.00  0.00    +0.016 C 
ATOM     30  C   UNL     1      33.994 -16.926 -25.144  0.00  0.00    +0.015 C 
ATOM     31  C   UNL     1      35.236 -16.887 -23.072  0.00  0.00    +0.001 C 
ATOM     32  C   UNL     1      34.775 -17.580 -24.191  0.00  0.00    +0.001 C 
BRANCH  28  33
ATOM     33  N   UNL     1      32.881 -14.937 -25.954  0.00  0.00    -0.356 N 
ATOM     34  H   UNL     1      32.073 -15.381 -26.302  0.00  0.00    +0.142 HD
ATOM     35  H   UNL     1      33.135 -14.047 -26.287  0.00  0.00    +0.142 HD
ENDBRANCH  28  33
ENDBRANCH  24  27
ENDBRANCH  22  25
ENDBRANCH   4  21
TORSDOF 7
ENDMDL
MODEL 8
REMARK VINA RESULT:      -9.4      2.925      4.430
REMARK  Name = 15985904
REMARK  7 active torsions:
REMARK  status: ('A' for Active; 'I' for Inactive)
REMARK    1  A    between atoms: N_1  and  S_6
REMARK    2  A    between atoms: C_4  and  C_21
REMARK    3  A    between atoms: S_6  and  C_9
REMARK    4  A    between atoms: C_10  and  C_17
REMARK    5  A    between atoms: C_22  and  C_25
REMARK    6  A    between atoms: N_24  and  C_27
REMARK    7  A    between atoms: C_28  and  N_33
REMARK                            x       y       z     vdW  Elec       q    Type
REMARK                         _______ _______ _______ _____ _____    ______ ____
ROOT
ATOM      1  N   UNL     1      35.389 -20.616 -20.440  0.00  0.00    -0.167 N 
ATOM      2  C   UNL     1      35.813 -19.629 -21.230  0.00  0.00    +0.089 C 
ATOM      3  C   UNL     1      34.075 -20.835 -20.494  0.00  0.00    +0.089 C 
ATOM      4  C   UNL     1      34.685 -19.154 -21.862  0.00  0.00    +0.018 C 
ATOM      5  C   UNL     1      33.585 -19.917 -21.396  0.00  0.00    +0.019 C 
ENDROOT
BRANCH   1   6
ATOM      6  S   UNL     1      36.453 -21.533 -19.432  0.00  0.00    +0.080 S 
ATOM      7  O   UNL     1      37.291 -20.511 -18.832  0.00  0.00    -0.149 OA
ATOM      8  O   UNL     1      36.990 -22.585 -20.275  0.00  0.00    -0.149 OA
BRANCH   6   9
ATOM      9  C   UNL     1      35.433 -22.271 -18.222  0.00  0.00    +0.126 C 
ATOM     10  C   UNL     1      33.803 -23.447 -16.287  0.00  0.00    +0.003 C 
ATOM     11  C   UNL     1      34.126 -22.637 -18.540  0.00  0.00    +0.020 C 
ATOM     12  C   UNL     1      35.925 -22.493 -16.935  0.00  0.00    +0.020 C 
ATOM     13  C   UNL     1      33.311 -23.225 -17.574  0.00  0.00    +0.001 C 
ATOM     14  C   UNL     1      35.110 -23.081 -15.968  0.00  0.00    +0.001 C 
BRANCH  10  17
ATOM     15  N   UNL     1      31.213 -24.904 -14.313  0.00  0.00    -0.208 N 
ATOM     16  N   UNL     1      32.171 -24.994 -13.374  0.00  0.00    -0.176 NA
ATOM     17  C   UNL     1      32.964 -24.053 -15.292  0.00  0.00    +0.037 C 
ATOM     18  C   UNL     1      31.638 -24.347 -15.483  0.00  0.00    +0.086 C 
ATOM     19  C   UNL     1      33.239 -24.471 -13.981  0.00  0.00    +0.119 C 
ATOM     20  C   UNL     1      29.882 -25.381 -14.025  0.00  0.00    +0.140 C 
ENDBRANCH  10  17
ENDBRANCH   6   9
ENDBRANCH   1   6
BRANCH   4  21
ATOM     21  C   UNL     1      34.664 -18.098 -22.797  0.00  0.00    +0.006 C 
ATOM     22  C   UNL     1      34.381 -18.154 -24.130  0.00  0.00    +0.058 C 
BRANCH  22  25
ATOM     23  O   UNL     1      34.844 -16.954 -26.130  0.00  0.00    -0.270 OA
ATOM     24  N   UNL     1      33.880 -15.835 -24.305  0.00  0.00    -0.279 N 
ATOM     25  C   UNL     1      34.404 -16.926 -24.986  0.00  0.00    +0.250 C 
ATOM     26  H   UNL     1      33.572 -16.002 -23.384  0.00  0.00    +0.155 HD
BRANCH  24  27
ATOM     27  C   UNL     1      33.738 -14.510 -24.786  0.00  0.00    +0.064 C 
ATOM     28  C   UNL     1      34.020 -13.432 -23.962  0.00  0.00    +0.055 C 
ATOM     29  C   UNL     1      33.313 -14.327 -26.092  0.00  0.00    +0.016 C 
ATOM     30  C   UNL     1      33.872 -12.137 -24.457  0.00  0.00    +0.015 C 
ATOM     31  C   UNL     1      33.165 -13.031 -26.587  0.00  0.00    +0.001 C 
ATOM     32  C   UNL     1      33.444 -11.936 -25.769  0.00  0.00    +0.001 C 
BRANCH  28  33
ATOM     33  N   UNL     1      34.455 -13.611 -22.630  0.00  0.00    -0.356 N 
ATOM     34  H   UNL     1      35.114 -12.991 -22.240  0.00  0.00    +0.142 HD
ATOM     35  H   UNL     1      34.101 -14.355 -22.091  0.00  0.00    +0.142 HD
ENDBRANCH  28  33
ENDBRANCH  24  27
ENDBRANCH  22  25
ENDBRANCH   4  21
TORSDOF 7
ENDMDL
MODEL 9
REMARK VINA RESULT:      -9.4      6.528      9.996
REMARK  Name = 15985904
REMARK  7 active torsions:
REMARK  status: ('A' for Active; 'I' for Inactive)
REMARK    1  A    between atoms: N_1  and  S_6
REMARK    2  A    between atoms: C_4  and  C_21
REMARK    3  A    between atoms: S_6  and  C_9
REMARK    4  A    between atoms: C_10  and  C_17
REMARK    5  A    between atoms: C_22  and  C_25
REMARK    6  A    between atoms: N_24  and  C_27
REMARK    7  A    between atoms: C_28  and  N_33
REMARK                            x       y       z     vdW  Elec       q    Type
REMARK                         _______ _______ _______ _____ _____    ______ ____
ROOT
ATOM      1  N   UNL     1      31.735 -23.871 -14.920  0.00  0.00    -0.167 N 
ATOM      2  C   UNL     1      32.408 -23.120 -15.792  0.00  0.00    +0.089 C 
ATOM      3  C   UNL     1      30.521 -24.236 -15.333  0.00  0.00    +0.089 C 
ATOM      4  C   UNL     1      31.570 -22.977 -16.876  0.00  0.00    +0.018 C 
ATOM      5  C   UNL     1      30.376 -23.682 -16.585  0.00  0.00    +0.019 C 
ENDROOT
BRANCH   1   6
ATOM      6  S   UNL     1      32.380 -24.330 -13.383  0.00  0.00    +0.080 S 
ATOM      7  O   UNL     1      31.705 -25.586 -13.110  0.00  0.00    -0.149 OA
ATOM      8  O   UNL     1      32.235 -23.166 -12.528  0.00  0.00    -0.149 OA
BRANCH   6   9
ATOM      9  C   UNL     1      34.084 -24.602 -13.652  0.00  0.00    +0.126 C 
ATOM     10  C   UNL     1      36.806 -25.037 -14.080  0.00  0.00    +0.003 C 
ATOM     11  C   UNL     1      34.531 -25.055 -14.893  0.00  0.00    +0.020 C 
ATOM     12  C   UNL     1      34.999 -24.366 -12.625  0.00  0.00    +0.020 C 
ATOM     13  C   UNL     1      35.891 -25.273 -15.107  0.00  0.00    +0.001 C 
ATOM     14  C   UNL     1      36.359 -24.584 -12.839  0.00  0.00    +0.001 C 
BRANCH  10  17
ATOM     15  N   UNL     1      40.189 -26.163 -14.212  0.00  0.00    -0.208 N 
ATOM     16  N   UNL     1      40.368 -25.090 -15.002  0.00  0.00    -0.176 NA
ATOM     17  C   UNL     1      38.207 -25.262 -14.301  0.00  0.00    +0.037 C 
ATOM     18  C   UNL     1      38.909 -26.311 -13.765  0.00  0.00    +0.086 C 
ATOM     19  C   UNL     1      39.151 -24.544 -15.052  0.00  0.00    +0.119 C 
ATOM     20  C   UNL     1      41.305 -27.028 -13.915  0.00  0.00    +0.140 C 
ENDBRANCH  10  17
ENDBRANCH   6   9
ENDBRANCH   1   6
BRANCH   4  21
ATOM     21  C   UNL     1      31.877 -22.252 -18.047  0.00  0.00    +0.006 C 
ATOM     22  C   UNL     1      33.086 -22.110 -18.662  0.00  0.00    +0.058 C 
BRANCH  22  25
ATOM     23  O   UNL     1      32.295 -21.118 -20.673  0.00  0.00    -0.270 OA
ATOM     24  N   UNL     1      34.536 -20.824 -20.040  0.00  0.00    -0.279 N 
ATOM     25  C   UNL     1      33.238 -21.298 -19.910  0.00  0.00    +0.250 C 
ATOM     26  H   UNL     1      35.165 -21.071 -19.323  0.00  0.00    +0.155 HD
BRANCH  24  27
ATOM     27  C   UNL     1      35.058 -20.024 -21.086  0.00  0.00    +0.064 C 
ATOM     28  C   UNL     1      36.350 -19.528 -21.011  0.00  0.00    +0.055 C 
ATOM     29  C   UNL     1      34.245 -19.755 -22.176  0.00  0.00    +0.016 C 
ATOM     30  C   UNL     1      36.842 -18.743 -22.053  0.00  0.00    +0.015 C 
ATOM     31  C   UNL     1      34.737 -18.970 -23.218  0.00  0.00    +0.001 C 
ATOM     32  C   UNL     1      36.035 -18.463 -23.157  0.00  0.00    +0.001 C 
BRANCH  28  33
ATOM     33  N   UNL     1      37.185 -19.799 -19.905  0.00  0.00    -0.356 N 
ATOM     34  H   UNL     1      37.716 -19.075 -19.501  0.00  0.00    +0.142 HD
ATOM     35  H   UNL     1      37.235 -20.711 -19.537  0.00  0.00    +0.142 HD
ENDBRANCH  28  33
ENDBRANCH  24  27
ENDBRANCH  22  25
ENDBRANCH   4  21
TORSDOF 7
ENDMDL
