MODEL 1
REMARK VINA RESULT:     -12.8      0.000      0.000
REMARK  Name = 10157080
REMARK  5 active torsions:
REMARK  status: ('A' for Active; 'I' for Inactive)
REMARK    1  A    between atoms: C_3  and  O_8
REMARK    2  A    between atoms: C_6  and  O_18
REMARK    3  A    between atoms: O_8  and  C_13
REMARK    4  A    between atoms: O_18  and  C_20
REMARK    5  A    between atoms: C_19  and  N_25
REMARK                            x       y       z     vdW  Elec       q    Type
REMARK                         _______ _______ _______ _____ _____    ______ ____
ROOT
ATOM      1  N   UNL     1      34.741 -23.403 -16.699  0.00  0.00    -0.277 NA
ATOM      2  N   UNL     1      32.352 -23.460 -17.017  0.00  0.00    -0.319 NA
ATOM      3  C   UNL     1      34.512 -23.287 -15.380  0.00  0.00    +0.278 C 
ATOM      4  C   UNL     1      33.268 -23.249 -14.801  0.00  0.00    +0.156 C 
ATOM      5  C   UNL     1      32.209 -23.341 -15.680  0.00  0.00    +0.113 C 
ATOM      6  C   UNL     1      33.627 -23.484 -17.451  0.00  0.00    +0.317 C 
ATOM      7  C   UNL     1      30.813 -23.310 -15.155  0.00  0.00    +0.063 C 
ENDROOT
BRANCH   3   8
ATOM      8  O   UNL     1      35.628 -23.204 -14.566  0.00  0.00    -0.429 OA
BRANCH   8  13
ATOM      9  O   UNL     1      40.128 -24.933 -14.684  0.00  0.00    -0.435 OA
ATOM     10  O   UNL     1      39.341 -27.210 -14.779  0.00  0.00    -0.435 OA
ATOM     11  C   UNL     1      38.769 -25.012 -14.675  0.00  0.00    +0.179 C 
ATOM     12  C   UNL     1      38.320 -26.311 -14.729  0.00  0.00    +0.177 C 
ATOM     13  C   UNL     1      36.528 -24.225 -14.620  0.00  0.00    +0.151 C 
ATOM     14  C   UNL     1      37.897 -23.945 -14.620  0.00  0.00    +0.078 C 
ATOM     15  C   UNL     1      36.974 -26.616 -14.731  0.00  0.00    +0.043 C 
ATOM     16  C   UNL     1      36.070 -25.553 -14.675  0.00  0.00    +0.041 C 
ATOM     17  C   UNL     1      40.483 -26.330 -14.749  0.00  0.00    +0.429 C 
ENDBRANCH   8  13
ENDBRANCH   3   8
BRANCH   6  18
ATOM     18  O   UNL     1      33.811 -23.601 -18.809  0.00  0.00    -0.375 OA
BRANCH  18  20
ATOM     19  C   UNL     1      34.690 -20.130 -20.908  0.00  0.00    +0.057 C 
ATOM     20  C   UNL     1      34.103 -22.448 -19.506  0.00  0.00    +0.161 C 
ATOM     21  C   UNL     1      33.362 -20.480 -20.664  0.00  0.00    +0.018 C 
ATOM     22  C   UNL     1      35.722 -20.946 -20.447  0.00  0.00    +0.018 C 
ATOM     23  C   UNL     1      33.066 -21.646 -19.958  0.00  0.00    +0.040 C 
ATOM     24  C   UNL     1      35.428 -22.112 -19.741  0.00  0.00    +0.040 C 
BRANCH  19  25
ATOM     25  N   UNL     1      34.982 -18.974 -21.608  0.00  0.00    -0.246 N 
ATOM     26  N   UNL     1      35.566 -16.858 -21.998  0.00  0.00    -0.224 NA
ATOM     27  C   UNL     1      34.958 -18.813 -22.971  0.00  0.00    +0.092 C 
ATOM     28  C   UNL     1      35.354 -17.766 -21.072  0.00  0.00    +0.172 C 
ATOM     29  C   UNL     1      35.320 -17.504 -23.183  0.00  0.00    +0.117 C 
ENDBRANCH  19  25
ENDBRANCH  18  20
ENDBRANCH   6  18
TORSDOF 5
ENDMDL
MODEL 2
REMARK VINA RESULT:     -12.0      2.616      5.636
REMARK  Name = 10157080
REMARK  5 active torsions:
REMARK  status: ('A' for Active; 'I' for Inactive)
REMARK    1  A    between atoms: C_3  and  O_8
REMARK    2  A    between atoms: C_6  and  O_18
REMARK    3  A    between atoms: O_8  and  C_13
REMARK    4  A    between atoms: O_18  and  C_20
REMARK    5  A    between atoms: C_19  and  N_25
REMARK                            x       y       z     vdW  Elec       q    Type
REMARK                         _______ _______ _______ _____ _____    ______ ____
ROOT
ATOM      1  N   UNL     1      33.363 -23.588 -16.481  0.00  0.00    -0.277 NA
ATOM      2  N   UNL     1      35.691 -23.155 -16.931  0.00  0.00    -0.319 NA
ATOM      3  C   UNL     1      33.649 -23.491 -15.172  0.00  0.00    +0.278 C 
ATOM      4  C   UNL     1      34.898 -23.237 -14.660  0.00  0.00    +0.156 C 
ATOM      5  C   UNL     1      35.895 -23.074 -15.599  0.00  0.00    +0.113 C 
ATOM      6  C   UNL     1      34.420 -23.410 -17.296  0.00  0.00    +0.317 C 
ATOM      7  C   UNL     1      37.290 -22.793 -15.150  0.00  0.00    +0.063 C 
ENDROOT
BRANCH   3   8
ATOM      8  O   UNL     1      32.593 -23.664 -14.295  0.00  0.00    -0.429 OA
BRANCH   8  13
ATOM      9  O   UNL     1      28.848 -22.325 -17.023  0.00  0.00    -0.435 OA
ATOM     10  O   UNL     1      27.636 -24.341 -16.498  0.00  0.00    -0.435 OA
ATOM     11  C   UNL     1      29.544 -23.144 -16.188  0.00  0.00    +0.179 C 
ATOM     12  C   UNL     1      28.852 -24.295 -15.889  0.00  0.00    +0.177 C 
ATOM     13  C   UNL     1      31.355 -23.862 -14.828  0.00  0.00    +0.151 C 
ATOM     14  C   UNL     1      30.800 -22.898 -15.673  0.00  0.00    +0.078 C 
ATOM     15  C   UNL     1      29.377 -25.263 -15.057  0.00  0.00    +0.043 C 
ATOM     16  C   UNL     1      30.647 -25.038 -14.522  0.00  0.00    +0.041 C 
ATOM     17  C   UNL     1      27.641 -23.090 -17.216  0.00  0.00    +0.429 C 
ENDBRANCH   8  13
ENDBRANCH   3   8
BRANCH   6  18
ATOM     18  O   UNL     1      34.176 -23.503 -18.647  0.00  0.00    -0.375 OA
BRANCH  18  20
ATOM     19  C   UNL     1      34.826 -20.098 -20.929  0.00  0.00    +0.057 C 
ATOM     20  C   UNL     1      34.392 -22.372 -19.404  0.00  0.00    +0.161 C 
ATOM     21  C   UNL     1      33.526 -20.475 -20.595  0.00  0.00    +0.018 C 
ATOM     22  C   UNL     1      35.908 -20.864 -20.495  0.00  0.00    +0.018 C 
ATOM     23  C   UNL     1      33.307 -21.620 -19.827  0.00  0.00    +0.040 C 
ATOM     24  C   UNL     1      35.690 -22.008 -19.728  0.00  0.00    +0.040 C 
BRANCH  19  25
ATOM     25  N   UNL     1      35.043 -18.964 -21.690  0.00  0.00    -0.246 N 
ATOM     26  N   UNL     1      35.186 -17.645 -23.482  0.00  0.00    -0.224 NA
ATOM     27  C   UNL     1      35.430 -17.730 -21.230  0.00  0.00    +0.092 C 
ATOM     28  C   UNL     1      34.911 -18.856 -23.052  0.00  0.00    +0.172 C 
ATOM     29  C   UNL     1      35.510 -16.939 -22.351  0.00  0.00    +0.117 C 
ENDBRANCH  19  25
ENDBRANCH  18  20
ENDBRANCH   6  18
TORSDOF 5
ENDMDL
MODEL 3
REMARK VINA RESULT:     -11.5      3.670      7.368
REMARK  Name = 10157080
REMARK  5 active torsions:
REMARK  status: ('A' for Active; 'I' for Inactive)
REMARK    1  A    between atoms: C_3  and  O_8
REMARK    2  A    between atoms: C_6  and  O_18
REMARK    3  A    between atoms: O_8  and  C_13
REMARK    4  A    between atoms: O_18  and  C_20
REMARK    5  A    between atoms: C_19  and  N_25
REMARK                            x       y       z     vdW  Elec       q    Type
REMARK                         _______ _______ _______ _____ _____    ______ ____
ROOT
ATOM      1  N   UNL     1      34.610 -24.348 -14.500  0.00  0.00    -0.277 NA
ATOM      2  N   UNL     1      35.136 -23.993 -12.175  0.00  0.00    -0.319 NA
ATOM      3  C   UNL     1      35.818 -23.844 -14.799  0.00  0.00    +0.278 C 
ATOM      4  C   UNL     1      36.732 -23.398 -13.876  0.00  0.00    +0.156 C 
ATOM      5  C   UNL     1      36.331 -23.498 -12.559  0.00  0.00    +0.113 C 
ATOM      6  C   UNL     1      34.336 -24.393 -13.182  0.00  0.00    +0.317 C 
ATOM      7  C   UNL     1      37.249 -23.042 -11.475  0.00  0.00    +0.063 C 
ENDROOT
BRANCH   3   8
ATOM      8  O   UNL     1      36.146 -23.781 -16.142  0.00  0.00    -0.429 OA
BRANCH   8  13
ATOM      9  O   UNL     1      34.869 -21.127 -19.960  0.00  0.00    -0.435 OA
ATOM     10  O   UNL     1      32.533 -21.620 -19.630  0.00  0.00    -0.435 OA
ATOM     11  C   UNL     1      34.658 -21.935 -18.886  0.00  0.00    +0.179 C 
ATOM     12  C   UNL     1      33.325 -22.217 -18.698  0.00  0.00    +0.177 C 
ATOM     13  C   UNL     1      35.220 -23.257 -16.994  0.00  0.00    +0.151 C 
ATOM     14  C   UNL     1      35.632 -22.441 -18.050  0.00  0.00    +0.078 C 
ATOM     15  C   UNL     1      32.891 -23.020 -17.662  0.00  0.00    +0.043 C 
ATOM     16  C   UNL     1      33.857 -23.545 -16.801  0.00  0.00    +0.041 C 
ATOM     17  C   UNL     1      33.518 -20.932 -20.427  0.00  0.00    +0.429 C 
ENDBRANCH   8  13
ENDBRANCH   3   8
BRANCH   6  18
ATOM     18  O   UNL     1      33.107 -24.899 -12.827  0.00  0.00    -0.375 OA
BRANCH  18  20
ATOM     19  C   UNL     1      29.866 -23.834 -15.190  0.00  0.00    +0.057 C 
ATOM     20  C   UNL     1      32.031 -24.545 -13.612  0.00  0.00    +0.161 C 
ATOM     21  C   UNL     1      30.149 -25.180 -14.961  0.00  0.00    +0.018 C 
ATOM     22  C   UNL     1      30.671 -22.845 -14.625  0.00  0.00    +0.018 C 
ATOM     23  C   UNL     1      31.238 -25.539 -14.167  0.00  0.00    +0.040 C 
ATOM     24  C   UNL     1      31.760 -23.203 -13.830  0.00  0.00    +0.040 C 
BRANCH  19  25
ATOM     25  N   UNL     1      28.786 -23.479 -15.979  0.00  0.00    -0.246 N 
ATOM     26  N   UNL     1      27.347 -23.493 -17.682  0.00  0.00    -0.224 NA
ATOM     27  C   UNL     1      27.871 -22.490 -15.717  0.00  0.00    +0.092 C 
ATOM     28  C   UNL     1      28.424 -24.050 -17.173  0.00  0.00    +0.172 C 
ATOM     29  C   UNL     1      26.999 -22.520 -16.779  0.00  0.00    +0.117 C 
ENDBRANCH  19  25
ENDBRANCH  18  20
ENDBRANCH   6  18
TORSDOF 5
ENDMDL
MODEL 4
REMARK VINA RESULT:     -10.6      3.690     10.021
REMARK  Name = 10157080
REMARK  5 active torsions:
REMARK  status: ('A' for Active; 'I' for Inactive)
REMARK    1  A    between atoms: C_3  and  O_8
REMARK    2  A    between atoms: C_6  and  O_18
REMARK    3  A    between atoms: O_8  and  C_13
REMARK    4  A    between atoms: O_18  and  C_20
REMARK    5  A    between atoms: C_19  and  N_25
REMARK                            x       y       z     vdW  Elec       q    Type
REMARK                         _______ _______ _______ _____ _____    ______ ____
ROOT
ATOM      1  N   UNL     1      36.605 -19.886 -20.566  0.00  0.00    -0.277 NA
ATOM      2  N   UNL     1      34.814 -21.312 -19.811  0.00  0.00    -0.319 NA
ATOM      3  C   UNL     1      35.690 -19.183 -21.251  0.00  0.00    +0.278 C 
ATOM      4  C   UNL     1      34.345 -19.462 -21.278  0.00  0.00    +0.156 C 
ATOM      5  C   UNL     1      33.959 -20.554 -20.528  0.00  0.00    +0.113 C 
ATOM      6  C   UNL     1      36.104 -20.927 -19.875  0.00  0.00    +0.317 C 
ATOM      7  C   UNL     1      32.520 -20.946 -20.487  0.00  0.00    +0.063 C 
ENDROOT
BRANCH   3   8
ATOM      8  O   UNL     1      36.158 -18.100 -21.975  0.00  0.00    -0.429 OA
BRANCH   8  13
ATOM      9  O   UNL     1      33.840 -14.803 -24.624  0.00  0.00    -0.435 OA
ATOM     10  O   UNL     1      33.287 -16.428 -26.316  0.00  0.00    -0.435 OA
ATOM     11  C   UNL     1      34.317 -16.043 -24.326  0.00  0.00    +0.179 C 
ATOM     12  C   UNL     1      34.001 -16.970 -25.293  0.00  0.00    +0.177 C 
ATOM     13  C   UNL     1      35.442 -17.715 -23.069  0.00  0.00    +0.151 C 
ATOM     14  C   UNL     1      35.038 -16.385 -23.201  0.00  0.00    +0.078 C 
ATOM     15  C   UNL     1      34.388 -18.291 -25.187  0.00  0.00    +0.043 C 
ATOM     16  C   UNL     1      35.120 -18.663 -24.057  0.00  0.00    +0.041 C 
ATOM     17  C   UNL     1      33.190 -15.055 -25.886  0.00  0.00    +0.429 C 
ENDBRANCH   8  13
ENDBRANCH   3   8
BRANCH   6  18
ATOM     18  O   UNL     1      37.006 -21.680 -19.159  0.00  0.00    -0.375 OA
BRANCH  18  20
ATOM     19  C   UNL     1      35.774 -23.100 -15.458  0.00  0.00    +0.057 C 
ATOM     20  C   UNL     1      36.596 -22.151 -17.930  0.00  0.00    +0.161 C 
ATOM     21  C   UNL     1      37.020 -22.488 -15.591  0.00  0.00    +0.018 C 
ATOM     22  C   UNL     1      34.942 -23.234 -16.569  0.00  0.00    +0.018 C 
ATOM     23  C   UNL     1      37.435 -22.010 -16.834  0.00  0.00    +0.040 C 
ATOM     24  C   UNL     1      35.354 -22.757 -17.813  0.00  0.00    +0.040 C 
BRANCH  19  25
ATOM     25  N   UNL     1      35.364 -23.573 -14.225  0.00  0.00    -0.246 N 
ATOM     26  N   UNL     1      34.023 -24.372 -12.634  0.00  0.00    -0.224 NA
ATOM     27  C   UNL     1      36.147 -23.739 -13.110  0.00  0.00    +0.092 C 
ATOM     28  C   UNL     1      34.095 -23.969 -13.883  0.00  0.00    +0.172 C 
ATOM     29  C   UNL     1      35.298 -24.231 -12.147  0.00  0.00    +0.117 C 
ENDBRANCH  19  25
ENDBRANCH  18  20
ENDBRANCH   6  18
TORSDOF 5
ENDMDL
MODEL 5
REMARK VINA RESULT:     -10.6      2.030      3.087
REMARK  Name = 10157080
REMARK  5 active torsions:
REMARK  status: ('A' for Active; 'I' for Inactive)
REMARK    1  A    between atoms: C_3  and  O_8
REMARK    2  A    between atoms: C_6  and  O_18
REMARK    3  A    between atoms: O_8  and  C_13
REMARK    4  A    between atoms: O_18  and  C_20
REMARK    5  A    between atoms: C_19  and  N_25
REMARK                            x       y       z     vdW  Elec       q    Type
REMARK                         _______ _______ _______ _____ _____    ______ ____
ROOT
ATOM      1  N   UNL     1      36.627 -22.351 -17.887  0.00  0.00    -0.277 NA
ATOM      2  N   UNL     1      34.364 -22.801 -18.585  0.00  0.00    -0.319 NA
ATOM      3  C   UNL     1      36.250 -22.661 -16.636  0.00  0.00    +0.278 C 
ATOM      4  C   UNL     1      34.982 -23.042 -16.271  0.00  0.00    +0.156 C 
ATOM      5  C   UNL     1      34.067 -23.096 -17.302  0.00  0.00    +0.113 C 
ATOM      6  C   UNL     1      35.644 -22.441 -18.803  0.00  0.00    +0.317 C 
ATOM      7  C   UNL     1      32.659 -23.500 -17.015  0.00  0.00    +0.063 C 
ENDROOT
BRANCH   3   8
ATOM      8  O   UNL     1      37.228 -22.586 -15.660  0.00  0.00    -0.429 OA
BRANCH   8  13
ATOM      9  O   UNL     1      35.349 -23.926 -11.426  0.00  0.00    -0.435 OA
ATOM     10  O   UNL     1      36.726 -25.903 -11.344  0.00  0.00    -0.435 OA
ATOM     11  C   UNL     1      36.160 -24.037 -12.513  0.00  0.00    +0.179 C 
ATOM     12  C   UNL     1      36.946 -25.165 -12.466  0.00  0.00    +0.177 C 
ATOM     13  C   UNL     1      37.127 -23.432 -14.597  0.00  0.00    +0.151 C 
ATOM     14  C   UNL     1      36.227 -23.149 -13.567  0.00  0.00    +0.078 C 
ATOM     15  C   UNL     1      37.843 -25.468 -13.470  0.00  0.00    +0.043 C 
ATOM     16  C   UNL     1      37.930 -24.586 -14.549  0.00  0.00    +0.041 C 
ATOM     17  C   UNL     1      35.712 -25.113 -10.690  0.00  0.00    +0.429 C 
ENDBRANCH   8  13
ENDBRANCH   3   8
BRANCH   6  18
ATOM     18  O   UNL     1      35.982 -22.130 -20.099  0.00  0.00    -0.375 OA
BRANCH  18  20
ATOM     19  C   UNL     1      35.350 -18.218 -21.333  0.00  0.00    +0.057 C 
ATOM     20  C   UNL     1      35.772 -20.831 -20.509  0.00  0.00    +0.161 C 
ATOM     21  C   UNL     1      36.636 -18.645 -21.002  0.00  0.00    +0.018 C 
ATOM     22  C   UNL     1      34.277 -19.105 -21.250  0.00  0.00    +0.018 C 
ATOM     23  C   UNL     1      36.849 -19.961 -20.587  0.00  0.00    +0.040 C 
ATOM     24  C   UNL     1      34.489 -20.419 -20.836  0.00  0.00    +0.040 C 
BRANCH  19  25
ATOM     25  N   UNL     1      35.140 -16.914 -21.743  0.00  0.00    -0.246 N 
ATOM     26  N   UNL     1      34.932 -15.158 -23.101  0.00  0.00    -0.224 NA
ATOM     27  C   UNL     1      34.856 -15.838 -20.940  0.00  0.00    +0.092 C 
ATOM     28  C   UNL     1      35.175 -16.448 -23.034  0.00  0.00    +0.172 C 
ATOM     29  C   UNL     1      34.734 -14.772 -21.799  0.00  0.00    +0.117 C 
ENDBRANCH  19  25
ENDBRANCH  18  20
ENDBRANCH   6  18
TORSDOF 5
ENDMDL
MODEL 6
REMARK VINA RESULT:     -10.6      4.301      8.342
REMARK  Name = 10157080
REMARK  5 active torsions:
REMARK  status: ('A' for Active; 'I' for Inactive)
REMARK    1  A    between atoms: C_3  and  O_8
REMARK    2  A    between atoms: C_6  and  O_18
REMARK    3  A    between atoms: O_8  and  C_13
REMARK    4  A    between atoms: O_18  and  C_20
REMARK    5  A    between atoms: C_19  and  N_25
REMARK                            x       y       z     vdW  Elec       q    Type
REMARK                         _______ _______ _______ _____ _____    ______ ____
ROOT
ATOM      1  N   UNL     1      35.783 -17.755 -22.506  0.00  0.00    -0.277 NA
ATOM      2  N   UNL     1      34.426 -17.424 -24.471  0.00  0.00    -0.319 NA
ATOM      3  C   UNL     1      35.408 -19.044 -22.525  0.00  0.00    +0.278 C 
ATOM      4  C   UNL     1      34.564 -19.601 -23.454  0.00  0.00    +0.156 C 
ATOM      5  C   UNL     1      34.097 -18.731 -24.418  0.00  0.00    +0.113 C 
ATOM      6  C   UNL     1      35.261 -17.009 -23.498  0.00  0.00    +0.317 C 
ATOM      7  C   UNL     1      33.174 -19.234 -25.476  0.00  0.00    +0.063 C 
ENDROOT
BRANCH   3   8
ATOM      8  O   UNL     1      35.923 -19.851 -21.526  0.00  0.00    -0.429 OA
BRANCH   8  13
ATOM      9  O   UNL     1      34.839 -23.060 -18.093  0.00  0.00    -0.435 OA
ATOM     10  O   UNL     1      32.476 -22.646 -18.333  0.00  0.00    -0.435 OA
ATOM     11  C   UNL     1      34.571 -22.125 -19.046  0.00  0.00    +0.179 C 
ATOM     12  C   UNL     1      33.223 -21.889 -19.183  0.00  0.00    +0.177 C 
ATOM     13  C   UNL     1      35.038 -20.532 -20.745  0.00  0.00    +0.151 C 
ATOM     14  C   UNL     1      35.506 -21.461 -19.813  0.00  0.00    +0.078 C 
ATOM     15  C   UNL     1      32.734 -20.977 -20.095  0.00  0.00    +0.043 C 
ATOM     16  C   UNL     1      33.659 -20.291 -20.885  0.00  0.00    +0.041 C 
ATOM     17  C   UNL     1      33.506 -23.384 -17.645  0.00  0.00    +0.429 C 
ENDBRANCH   8  13
ENDBRANCH   3   8
BRANCH   6  18
ATOM     18  O   UNL     1      35.614 -15.680 -23.518  0.00  0.00    -0.375 OA
BRANCH  18  20
ATOM     19  C   UNL     1      32.923 -12.976 -21.884  0.00  0.00    +0.057 C 
ATOM     20  C   UNL     1      34.721 -14.782 -22.976  0.00  0.00    +0.161 C 
ATOM     21  C   UNL     1      33.187 -12.955 -23.253  0.00  0.00    +0.018 C 
ATOM     22  C   UNL     1      33.562 -13.905 -21.064  0.00  0.00    +0.018 C 
ATOM     23  C   UNL     1      34.091 -13.865 -23.803  0.00  0.00    +0.040 C 
ATOM     24  C   UNL     1      34.466 -14.814 -21.613  0.00  0.00    +0.040 C 
BRANCH  19  25
ATOM     25  N   UNL     1      32.026 -12.075 -21.339  0.00  0.00    -0.246 N 
ATOM     26  N   UNL     1      31.082 -10.701 -19.859  0.00  0.00    -0.224 NA
ATOM     27  C   UNL     1      30.914 -11.554 -21.952  0.00  0.00    +0.092 C 
ATOM     28  C   UNL     1      32.080 -11.528 -20.081  0.00  0.00    +0.172 C 
ATOM     29  C   UNL     1      30.352 -10.714 -21.020  0.00  0.00    +0.117 C 
ENDBRANCH  19  25
ENDBRANCH  18  20
ENDBRANCH   6  18
TORSDOF 5
ENDMDL
MODEL 7
REMARK VINA RESULT:     -10.3      4.650     10.801
REMARK  Name = 10157080
REMARK  5 active torsions:
REMARK  status: ('A' for Active; 'I' for Inactive)
REMARK    1  A    between atoms: C_3  and  O_8
REMARK    2  A    between atoms: C_6  and  O_18
REMARK    3  A    between atoms: O_8  and  C_13
REMARK    4  A    between atoms: O_18  and  C_20
REMARK    5  A    between atoms: C_19  and  N_25
REMARK                            x       y       z     vdW  Elec       q    Type
REMARK                         _______ _______ _______ _____ _____    ______ ____
ROOT
ATOM      1  N   UNL     1      35.857 -17.427 -22.583  0.00  0.00    -0.277 NA
ATOM      2  N   UNL     1      34.829 -19.316 -23.671  0.00  0.00    -0.319 NA
ATOM      3  C   UNL     1      35.189 -16.635 -23.437  0.00  0.00    +0.278 C 
ATOM      4  C   UNL     1      34.339 -17.082 -24.419  0.00  0.00    +0.156 C 
ATOM      5  C   UNL     1      34.195 -18.452 -24.491  0.00  0.00    +0.113 C 
ATOM      6  C   UNL     1      35.633 -18.744 -22.754  0.00  0.00    +0.317 C 
ATOM      7  C   UNL     1      33.295 -19.044 -25.522  0.00  0.00    +0.063 C 
ENDROOT
BRANCH   3   8
ATOM      8  O   UNL     1      35.385 -15.272 -23.298  0.00  0.00    -0.429 OA
BRANCH   8  13
ATOM      9  O   UNL     1      32.271 -11.609 -22.923  0.00  0.00    -0.435 OA
ATOM     10  O   UNL     1      31.549 -12.335 -20.740  0.00  0.00    -0.435 OA
ATOM     11  C   UNL     1      32.916 -12.735 -22.512  0.00  0.00    +0.179 C 
ATOM     12  C   UNL     1      32.504 -13.149 -21.267  0.00  0.00    +0.177 C 
ATOM     13  C   UNL     1      34.431 -14.561 -22.634  0.00  0.00    +0.151 C 
ATOM     14  C   UNL     1      33.879 -13.421 -23.223  0.00  0.00    +0.078 C 
ATOM     15  C   UNL     1      33.032 -14.272 -20.662  0.00  0.00    +0.043 C 
ATOM     16  C   UNL     1      34.009 -14.985 -21.361  0.00  0.00    +0.041 C 
ATOM     17  C   UNL     1      31.406 -11.362 -21.795  0.00  0.00    +0.429 C 
ENDBRANCH   8  13
ENDBRANCH   3   8
BRANCH   6  18
ATOM     18  O   UNL     1      36.300 -19.595 -21.904  0.00  0.00    -0.375 OA
BRANCH  18  20
ATOM     19  C   UNL     1      34.008 -21.725 -19.177  0.00  0.00    +0.057 C 
ATOM     20  C   UNL     1      35.538 -20.302 -20.998  0.00  0.00    +0.161 C 
ATOM     21  C   UNL     1      35.396 -21.864 -19.179  0.00  0.00    +0.018 C 
ATOM     22  C   UNL     1      33.390 -20.871 -20.090  0.00  0.00    +0.018 C 
ATOM     23  C   UNL     1      36.167 -21.147 -20.096  0.00  0.00    +0.040 C 
ATOM     24  C   UNL     1      34.160 -20.155 -21.006  0.00  0.00    +0.040 C 
BRANCH  19  25
ATOM     25  N   UNL     1      33.244 -22.436 -18.269  0.00  0.00    -0.246 N 
ATOM     26  N   UNL     1      31.459 -23.119 -17.122  0.00  0.00    -0.224 NA
ATOM     27  C   UNL     1      33.688 -23.413 -17.413  0.00  0.00    +0.092 C 
ATOM     28  C   UNL     1      31.896 -22.299 -18.051  0.00  0.00    +0.172 C 
ATOM     29  C   UNL     1      32.571 -23.815 -16.720  0.00  0.00    +0.117 C 
ENDBRANCH  19  25
ENDBRANCH  18  20
ENDBRANCH   6  18
TORSDOF 5
ENDMDL
MODEL 8
REMARK VINA RESULT:     -10.3      2.959      7.841
REMARK  Name = 10157080
REMARK  5 active torsions:
REMARK  status: ('A' for Active; 'I' for Inactive)
REMARK    1  A    between atoms: C_3  and  O_8
REMARK    2  A    between atoms: C_6  and  O_18
REMARK    3  A    between atoms: O_8  and  C_13
REMARK    4  A    between atoms: O_18  and  C_20
REMARK    5  A    between atoms: C_19  and  N_25
REMARK                            x       y       z     vdW  Elec       q    Type
REMARK                         _______ _______ _______ _____ _____    ______ ____
ROOT
ATOM      1  N   UNL     1      33.812 -23.574 -16.298  0.00  0.00    -0.277 NA
ATOM      2  N   UNL     1      31.845 -23.212 -14.952  0.00  0.00    -0.319 NA
ATOM      3  C   UNL     1      33.026 -23.477 -17.383  0.00  0.00    +0.278 C 
ATOM      4  C   UNL     1      31.671 -23.255 -17.353  0.00  0.00    +0.156 C 
ATOM      5  C   UNL     1      31.126 -23.128 -16.091  0.00  0.00    +0.113 C 
ATOM      6  C   UNL     1      33.163 -23.433 -15.127  0.00  0.00    +0.317 C 
ATOM      7  C   UNL     1      29.662 -22.884 -15.944  0.00  0.00    +0.063 C 
ENDROOT
BRANCH   3   8
ATOM      8  O   UNL     1      33.650 -23.613 -18.611  0.00  0.00    -0.429 OA
BRANCH   8  13
ATOM      9  O   UNL     1      36.817 -20.352 -20.221  0.00  0.00    -0.435 OA
ATOM     10  O   UNL     1      35.080 -19.063 -21.284  0.00  0.00    -0.435 OA
ATOM     11  C   UNL     1      35.585 -20.904 -20.048  0.00  0.00    +0.179 C 
ATOM     12  C   UNL     1      34.593 -20.168 -20.655  0.00  0.00    +0.177 C 
ATOM     13  C   UNL     1      33.974 -22.473 -19.284  0.00  0.00    +0.151 C 
ATOM     14  C   UNL     1      35.307 -22.063 -19.355  0.00  0.00    +0.078 C 
ATOM     15  C   UNL     1      33.268 -20.551 -20.601  0.00  0.00    +0.043 C 
ATOM     16  C   UNL     1      32.960 -21.721 -19.905  0.00  0.00    +0.041 C 
ATOM     17  C   UNL     1      36.489 -19.187 -21.006  0.00  0.00    +0.429 C 
ENDBRANCH   8  13
ENDBRANCH   3   8
BRANCH   6  18
ATOM     18  O   UNL     1      33.926 -23.528 -13.987  0.00  0.00    -0.375 OA
BRANCH  18  20
ATOM     19  C   UNL     1      37.749 -25.092 -14.392  0.00  0.00    +0.057 C 
ATOM     20  C   UNL     1      35.195 -24.048 -14.121  0.00  0.00    +0.161 C 
ATOM     21  C   UNL     1      37.572 -23.808 -13.877  0.00  0.00    +0.018 C 
ATOM     22  C   UNL     1      36.642 -25.850 -14.771  0.00  0.00    +0.018 C 
ATOM     23  C   UNL     1      36.287 -23.282 -13.740  0.00  0.00    +0.040 C 
ATOM     24  C   UNL     1      35.357 -25.326 -14.634  0.00  0.00    +0.040 C 
BRANCH  19  25
ATOM     25  N   UNL     1      39.023 -25.612 -14.528  0.00  0.00    -0.246 N 
ATOM     26  N   UNL     1      40.987 -26.118 -15.455  0.00  0.00    -0.224 NA
ATOM     27  C   UNL     1      39.725 -26.317 -13.582  0.00  0.00    +0.092 C 
ATOM     28  C   UNL     1      39.829 -25.522 -15.636  0.00  0.00    +0.172 C 
ATOM     29  C   UNL     1      40.928 -26.615 -14.178  0.00  0.00    +0.117 C 
ENDBRANCH  19  25
ENDBRANCH  18  20
ENDBRANCH   6  18
TORSDOF 5
ENDMDL
MODEL 9
REMARK VINA RESULT:     -10.1      7.425     13.406
REMARK  Name = 10157080
REMARK  5 active torsions:
REMARK  status: ('A' for Active; 'I' for Inactive)
REMARK    1  A    between atoms: C_3  and  O_8
REMARK    2  A    between atoms: C_6  and  O_18
REMARK    3  A    between atoms: O_8  and  C_13
REMARK    4  A    between atoms: O_18  and  C_20
REMARK    5  A    between atoms: C_19  and  N_25
REMARK                            x       y       z     vdW  Elec       q    Type
REMARK                         _______ _______ _______ _____ _____    ______ ____
ROOT
ATOM      1  N   UNL     1      34.318 -13.594 -24.342  0.00  0.00    -0.277 NA
ATOM      2  N   UNL     1      33.734 -14.784 -22.328  0.00  0.00    -0.319 NA
ATOM      3  C   UNL     1      33.579 -12.568 -23.891  0.00  0.00    +0.278 C 
ATOM      4  C   UNL     1      32.895 -12.558 -22.700  0.00  0.00    +0.156 C 
ATOM      5  C   UNL     1      33.011 -13.710 -21.948  0.00  0.00    +0.113 C 
ATOM      6  C   UNL     1      34.353 -14.659 -23.519  0.00  0.00    +0.317 C 
ATOM      7  C   UNL     1      32.309 -13.805 -20.635  0.00  0.00    +0.063 C 
ENDROOT
BRANCH   3   8
ATOM      8  O   UNL     1      33.516 -11.449 -24.702  0.00  0.00    -0.429 OA
BRANCH   8  13
ATOM      9  O   UNL     1      31.279  -7.841 -22.413  0.00  0.00    -0.435 OA
ATOM     10  O   UNL     1      33.320  -6.570 -22.244  0.00  0.00    -0.435 OA
ATOM     11  C   UNL     1      32.339  -8.487 -22.972  0.00  0.00    +0.179 C 
ATOM     12  C   UNL     1      33.504  -7.762 -22.875  0.00  0.00    +0.177 C 
ATOM     13  C   UNL     1      33.500 -10.229 -24.096  0.00  0.00    +0.151 C 
ATOM     14  C   UNL     1      32.304  -9.726 -23.577  0.00  0.00    +0.078 C 
ATOM     15  C   UNL     1      34.699  -8.235 -23.378  0.00  0.00    +0.043 C 
ATOM     16  C   UNL     1      34.691  -9.487 -23.996  0.00  0.00    +0.041 C 
ATOM     17  C   UNL     1      31.909  -6.628 -21.954  0.00  0.00    +0.429 C 
ENDBRANCH   8  13
ENDBRANCH   3   8
BRANCH   6  18
ATOM     18  O   UNL     1      35.096 -15.737 -23.940  0.00  0.00    -0.375 OA
BRANCH  18  20
ATOM     19  C   UNL     1      35.033 -19.132 -21.553  0.00  0.00    +0.057 C 
ATOM     20  C   UNL     1      35.075 -16.864 -23.148  0.00  0.00    +0.161 C 
ATOM     21  C   UNL     1      35.435 -17.909 -21.015  0.00  0.00    +0.018 C 
ATOM     22  C   UNL     1      34.653 -19.214 -22.892  0.00  0.00    +0.018 C 
ATOM     23  C   UNL     1      35.455 -16.767 -21.817  0.00  0.00    +0.040 C 
ATOM     24  C   UNL     1      34.673 -18.073 -23.695  0.00  0.00    +0.040 C 
BRANCH  19  25
ATOM     25  N   UNL     1      35.013 -20.263 -20.758  0.00  0.00    -0.246 N 
ATOM     26  N   UNL     1      34.208 -21.982 -19.589  0.00  0.00    -0.224 NA
ATOM     27  C   UNL     1      36.101 -20.921 -20.242  0.00  0.00    +0.092 C 
ATOM     28  C   UNL     1      33.899 -20.943 -20.333  0.00  0.00    +0.172 C 
ATOM     29  C   UNL     1      35.578 -21.973 -19.528  0.00  0.00    +0.117 C 
ENDBRANCH  19  25
ENDBRANCH  18  20
ENDBRANCH   6  18
TORSDOF 5
ENDMDL
