MODEL 1
REMARK VINA RESULT:     -12.1      0.000      0.000
REMARK  Name = 24880024
REMARK  5 active torsions:
REMARK  status: ('A' for Active; 'I' for Inactive)
REMARK    1  A    between atoms: N_5  and  C_12
REMARK    2  A    between atoms: C_6  and  C_22
REMARK    3  A    between atoms: C_13  and  C_21
REMARK    4  A    between atoms: C_22  and  C_23
REMARK    5  A    between atoms: C_23  and  N_25
REMARK                            x       y       z     vdW  Elec       q    Type
REMARK                         _______ _______ _______ _____ _____    ______ ____
ROOT
ATOM      1  S   UNL     1      36.604 -20.647 -20.046  0.00  0.00    -0.056 S 
ATOM      2  O   UNL     1      35.325 -23.424 -16.517  0.00  0.00    -0.252 OA
ATOM      3  N   UNL     1      34.602 -21.903 -18.999  0.00  0.00    -0.223 NA
ATOM      4  N   UNL     1      36.722 -22.110 -17.874  0.00  0.00    -0.248 N 
ATOM      5  N   UNL     1      37.591 -23.180 -15.990  0.00  0.00    -0.268 N 
ATOM      6  C   UNL     1      35.082 -20.522 -20.826  0.00  0.00    +0.031 C 
ATOM      7  C   UNL     1      34.143 -21.251 -20.126  0.00  0.00    +0.103 C 
ATOM      8  C   UNL     1      35.885 -21.655 -18.858  0.00  0.00    +0.166 C 
ATOM      9  C   UNL     1      36.435 -22.960 -16.757  0.00  0.00    +0.310 C 
ATOM     10  H   UNL     1      37.658 -21.810 -17.945  0.00  0.00    +0.158 HD
ATOM     11  H   UNL     1      38.412 -22.740 -16.309  0.00  0.00    +0.156 HD
ENDROOT
BRANCH   5  12
ATOM     12  C   UNL     1      37.721 -23.959 -14.816  0.00  0.00    +0.052 C 
ATOM     13  C   UNL     1      37.064 -24.441 -12.541  0.00  0.00    +0.073 C 
ATOM     14  C   UNL     1      36.936 -23.674 -13.699  0.00  0.00    +0.019 C 
ATOM     15  C   UNL     1      38.634 -25.013 -14.776  0.00  0.00    +0.015 C 
ATOM     16  C   UNL     1      37.977 -25.495 -12.502  0.00  0.00    +0.004 C 
ATOM     17  C   UNL     1      38.762 -25.781 -13.619  0.00  0.00    +0.001 C 
BRANCH  13  21
ATOM     18  F   UNL     1      35.945 -25.231 -10.581  0.00  0.00    -0.166 F 
ATOM     19  F   UNL     1      36.801 -23.241 -10.489  0.00  0.00    -0.166 F 
ATOM     20  F   UNL     1      35.015 -23.601 -11.677  0.00  0.00    -0.166 F 
ATOM     21  C   UNL     1      36.226 -24.137 -11.346  0.00  0.00    +0.419 C 
ENDBRANCH  13  21
ENDBRANCH   5  12
BRANCH   6  22
ATOM     22  C   UNL     1      34.929 -19.701 -22.083  0.00  0.00    +0.056 C 
BRANCH  22  23
ATOM     23  C   UNL     1      36.032 -18.658 -22.256  0.00  0.00    +0.093 C 
BRANCH  23  25
ATOM     24  S   UNL     1      34.314 -14.413 -23.006  0.00  0.00    -0.101 S 
ATOM     25  N   UNL     1      35.478 -17.370 -22.548  0.00  0.00    -0.320 N 
ATOM     26  N   UNL     1      34.624 -18.057 -24.661  0.00  0.00    -0.233 NA
ATOM     27  N   UNL     1      33.412 -16.554 -26.119  0.00  0.00    -0.247 NA
ATOM     28  C   UNL     1      34.785 -17.087 -23.740  0.00  0.00    +0.118 C 
ATOM     29  C   UNL     1      34.262 -15.822 -23.985  0.00  0.00    +0.145 C 
ATOM     30  C   UNL     1      33.583 -15.586 -25.179  0.00  0.00    +0.073 C 
ATOM     31  C   UNL     1      33.114 -14.241 -25.269  0.00  0.00    +0.022 C 
ATOM     32  C   UNL     1      33.443 -13.500 -24.157  0.00  0.00    +0.033 C 
ATOM     33  C   UNL     1      33.954 -17.736 -25.783  0.00  0.00    +0.251 C 
ATOM     34  H   UNL     1      35.588 -16.650 -21.886  0.00  0.00    +0.148 HD
ENDBRANCH  23  25
ENDBRANCH  22  23
ENDBRANCH   6  22
TORSDOF 5
ENDMDL
MODEL 2
REMARK VINA RESULT:     -12.0      5.914     12.082
REMARK  Name = 24880024
REMARK  5 active torsions:
REMARK  status: ('A' for Active; 'I' for Inactive)
REMARK    1  A    between atoms: N_5  and  C_12
REMARK    2  A    between atoms: C_6  and  C_22
REMARK    3  A    between atoms: C_13  and  C_21
REMARK    4  A    between atoms: C_22  and  C_23
REMARK    5  A    between atoms: C_23  and  N_25
REMARK                            x       y       z     vdW  Elec       q    Type
REMARK                         _______ _______ _______ _____ _____    ______ ____
ROOT
ATOM      1  S   UNL     1      33.797 -23.536 -16.853  0.00  0.00    -0.056 S 
ATOM      2  O   UNL     1      32.479 -20.545 -20.187  0.00  0.00    -0.252 OA
ATOM      3  N   UNL     1      31.748 -22.404 -17.950  0.00  0.00    -0.223 NA
ATOM      4  N   UNL     1      33.911 -21.836 -18.845  0.00  0.00    -0.248 N 
ATOM      5  N   UNL     1      34.793 -20.472 -20.522  0.00  0.00    -0.268 N 
ATOM      6  C   UNL     1      32.243 -23.917 -16.235  0.00  0.00    +0.031 C 
ATOM      7  C   UNL     1      31.282 -23.224 -16.941  0.00  0.00    +0.103 C 
ATOM      8  C   UNL     1      33.059 -22.488 -17.995  0.00  0.00    +0.166 C 
ATOM      9  C   UNL     1      33.614 -20.905 -19.892  0.00  0.00    +0.310 C 
ATOM     10  H   UNL     1      34.867 -22.035 -18.718  0.00  0.00    +0.158 HD
ATOM     11  H   UNL     1      35.632 -20.850 -20.174  0.00  0.00    +0.156 HD
ENDROOT
BRANCH   5  12
ATOM     12  C   UNL     1      34.921 -19.558 -21.594  0.00  0.00    +0.052 C 
ATOM     13  C   UNL     1      34.571 -18.994 -23.917  0.00  0.00    +0.073 C 
ATOM     14  C   UNL     1      34.445 -19.895 -22.860  0.00  0.00    +0.019 C 
ATOM     15  C   UNL     1      35.524 -18.318 -21.384  0.00  0.00    +0.015 C 
ATOM     16  C   UNL     1      35.174 -17.754 -23.707  0.00  0.00    +0.004 C 
ATOM     17  C   UNL     1      35.651 -17.415 -22.441  0.00  0.00    +0.001 C 
BRANCH  13  21
ATOM     18  F   UNL     1      34.462 -20.589 -25.696  0.00  0.00    -0.166 F 
ATOM     19  F   UNL     1      32.698 -19.374 -25.356  0.00  0.00    -0.166 F 
ATOM     20  F   UNL     1      34.476 -18.484 -26.237  0.00  0.00    -0.166 F 
ATOM     21  C   UNL     1      34.062 -19.355 -25.272  0.00  0.00    +0.419 C 
ENDBRANCH  13  21
ENDBRANCH   5  12
BRANCH   6  22
ATOM     22  C   UNL     1      32.090 -24.884 -15.087  0.00  0.00    +0.056 C 
BRANCH  22  23
ATOM     23  C   UNL     1      32.973 -24.538 -13.888  0.00  0.00    +0.093 C 
BRANCH  23  25
ATOM     24  S   UNL     1      37.291 -25.965 -14.806  0.00  0.00    -0.101 S 
ATOM     25  N   UNL     1      34.324 -24.959 -14.108  0.00  0.00    -0.320 N 
ATOM     26  N   UNL     1      35.031 -24.314 -11.929  0.00  0.00    -0.233 NA
ATOM     27  N   UNL     1      37.311 -24.598 -11.170  0.00  0.00    -0.247 NA
ATOM     28  C   UNL     1      35.330 -24.842 -13.132  0.00  0.00    +0.118 C 
ATOM     29  C   UNL     1      36.631 -25.264 -13.385  0.00  0.00    +0.145 C 
ATOM     30  C   UNL     1      37.596 -25.129 -12.389  0.00  0.00    +0.073 C 
ATOM     31  C   UNL     1      38.872 -25.609 -12.814  0.00  0.00    +0.022 C 
ATOM     32  C   UNL     1      38.844 -26.088 -14.104  0.00  0.00    +0.033 C 
ATOM     33  C   UNL     1      36.029 -24.225 -11.030  0.00  0.00    +0.251 C 
ATOM     34  H   UNL     1      34.559 -25.346 -14.982  0.00  0.00    +0.148 HD
ENDBRANCH  23  25
ENDBRANCH  22  23
ENDBRANCH   6  22
TORSDOF 5
ENDMDL
MODEL 3
REMARK VINA RESULT:     -11.3      1.153      1.793
REMARK  Name = 24880024
REMARK  5 active torsions:
REMARK  status: ('A' for Active; 'I' for Inactive)
REMARK    1  A    between atoms: N_5  and  C_12
REMARK    2  A    between atoms: C_6  and  C_22
REMARK    3  A    between atoms: C_13  and  C_21
REMARK    4  A    between atoms: C_22  and  C_23
REMARK    5  A    between atoms: C_23  and  N_25
REMARK                            x       y       z     vdW  Elec       q    Type
REMARK                         _______ _______ _______ _____ _____    ______ ____
ROOT
ATOM      1  S   UNL     1      36.338 -20.666 -20.276  0.00  0.00    -0.056 S 
ATOM      2  O   UNL     1      35.343 -23.323 -16.568  0.00  0.00    -0.252 OA
ATOM      3  N   UNL     1      34.435 -21.926 -19.062  0.00  0.00    -0.223 NA
ATOM      4  N   UNL     1      36.622 -22.034 -18.058  0.00  0.00    -0.248 N 
ATOM      5  N   UNL     1      37.628 -23.002 -16.187  0.00  0.00    -0.268 N 
ATOM      6  C   UNL     1      34.770 -20.611 -20.968  0.00  0.00    +0.031 C 
ATOM      7  C   UNL     1      33.894 -21.334 -20.186  0.00  0.00    +0.103 C 
ATOM      8  C   UNL     1      35.717 -21.641 -19.008  0.00  0.00    +0.166 C 
ATOM      9  C   UNL     1      36.424 -22.842 -16.892  0.00  0.00    +0.310 C 
ATOM     10  H   UNL     1      37.543 -21.714 -18.196  0.00  0.00    +0.158 HD
ATOM     11  H   UNL     1      38.416 -22.555 -16.571  0.00  0.00    +0.156 HD
ENDROOT
BRANCH   5  12
ATOM     12  C   UNL     1      37.847 -23.727 -14.992  0.00  0.00    +0.052 C 
ATOM     13  C   UNL     1      37.329 -24.138 -12.668  0.00  0.00    +0.073 C 
ATOM     14  C   UNL     1      37.113 -23.423 -13.846  0.00  0.00    +0.019 C 
ATOM     15  C   UNL     1      38.798 -24.747 -14.960  0.00  0.00    +0.015 C 
ATOM     16  C   UNL     1      38.279 -25.158 -12.637  0.00  0.00    +0.004 C 
ATOM     17  C   UNL     1      39.014 -25.463 -13.783  0.00  0.00    +0.001 C 
BRANCH  13  21
ATOM     18  F   UNL     1      35.229 -23.541 -11.689  0.00  0.00    -0.166 F 
ATOM     19  F   UNL     1      36.532 -24.820 -10.518  0.00  0.00    -0.166 F 
ATOM     20  F   UNL     1      37.027 -22.719 -10.785  0.00  0.00    -0.166 F 
ATOM     21  C   UNL     1      36.544 -23.813 -11.442  0.00  0.00    +0.419 C 
ENDBRANCH  13  21
ENDBRANCH   5  12
BRANCH   6  22
ATOM     22  C   UNL     1      34.522 -19.848 -22.247  0.00  0.00    +0.056 C 
BRANCH  22  23
ATOM     23  C   UNL     1      35.498 -18.691 -22.454  0.00  0.00    +0.093 C 
BRANCH  23  25
ATOM     24  S   UNL     1      33.765 -15.731 -25.578  0.00  0.00    -0.101 S 
ATOM     25  N   UNL     1      34.965 -17.729 -23.370  0.00  0.00    -0.320 N 
ATOM     26  N   UNL     1      34.973 -15.977 -21.758  0.00  0.00    -0.233 NA
ATOM     27  N   UNL     1      34.214 -13.739 -22.274  0.00  0.00    -0.247 NA
ATOM     28  C   UNL     1      34.710 -16.391 -23.013  0.00  0.00    +0.118 C 
ATOM     29  C   UNL     1      34.191 -15.488 -23.933  0.00  0.00    +0.145 C 
ATOM     30  C   UNL     1      33.954 -14.172 -23.536  0.00  0.00    +0.073 C 
ATOM     31  C   UNL     1      33.423 -13.382 -24.600  0.00  0.00    +0.022 C 
ATOM     32  C   UNL     1      33.271 -14.105 -25.760  0.00  0.00    +0.033 C 
ATOM     33  C   UNL     1      34.712 -14.689 -21.468  0.00  0.00    +0.251 C 
ATOM     34  H   UNL     1      34.766 -18.016 -24.290  0.00  0.00    +0.148 HD
ENDBRANCH  23  25
ENDBRANCH  22  23
ENDBRANCH   6  22
TORSDOF 5
ENDMDL
MODEL 4
REMARK VINA RESULT:     -11.3      8.137     14.043
REMARK  Name = 24880024
REMARK  5 active torsions:
REMARK  status: ('A' for Active; 'I' for Inactive)
REMARK    1  A    between atoms: N_5  and  C_12
REMARK    2  A    between atoms: C_6  and  C_22
REMARK    3  A    between atoms: C_13  and  C_21
REMARK    4  A    between atoms: C_22  and  C_23
REMARK    5  A    between atoms: C_23  and  N_25
REMARK                            x       y       z     vdW  Elec       q    Type
REMARK                         _______ _______ _______ _____ _____    ______ ____
ROOT
ATOM      1  S   UNL     1      34.573 -15.247 -23.334  0.00  0.00    -0.056 S 
ATOM      2  O   UNL     1      33.155 -11.269 -25.327  0.00  0.00    -0.252 OA
ATOM      3  N   UNL     1      33.441 -14.253 -25.436  0.00  0.00    -0.223 NA
ATOM      4  N   UNL     1      34.101 -12.697 -23.718  0.00  0.00    -0.248 N 
ATOM      5  N   UNL     1      34.024 -10.395 -23.338  0.00  0.00    -0.268 N 
ATOM      6  C   UNL     1      34.088 -16.330 -24.573  0.00  0.00    +0.031 C 
ATOM      7  C   UNL     1      33.510 -15.622 -25.606  0.00  0.00    +0.103 C 
ATOM      8  C   UNL     1      33.972 -13.942 -24.274  0.00  0.00    +0.166 C 
ATOM      9  C   UNL     1      33.702 -11.424 -24.239  0.00  0.00    +0.310 C 
ATOM     10  H   UNL     1      34.530 -12.674 -22.832  0.00  0.00    +0.158 HD
ATOM     11  H   UNL     1      34.462 -10.675 -22.502  0.00  0.00    +0.156 HD
ENDROOT
BRANCH   5  12
ATOM     12  C   UNL     1      33.793  -9.007 -23.484  0.00  0.00    +0.052 C 
ATOM     13  C   UNL     1      32.273  -7.130 -23.517  0.00  0.00    +0.073 C 
ATOM     14  C   UNL     1      32.499  -8.499 -23.374  0.00  0.00    +0.019 C 
ATOM     15  C   UNL     1      34.861  -8.146 -23.737  0.00  0.00    +0.015 C 
ATOM     16  C   UNL     1      33.341  -6.269 -23.770  0.00  0.00    +0.004 C 
ATOM     17  C   UNL     1      34.635  -6.777 -23.880  0.00  0.00    +0.001 C 
BRANCH  13  21
ATOM     18  F   UNL     1      30.530  -6.272 -22.121  0.00  0.00    -0.166 F 
ATOM     19  F   UNL     1      30.690  -5.439 -24.117  0.00  0.00    -0.166 F 
ATOM     20  F   UNL     1      29.941  -7.462 -23.843  0.00  0.00    -0.166 F 
ATOM     21  C   UNL     1      30.889  -6.586 -23.400  0.00  0.00    +0.419 C 
ENDBRANCH  13  21
ENDBRANCH   5  12
BRANCH   6  22
ATOM     22  C   UNL     1      34.320 -17.814 -24.429  0.00  0.00    +0.056 C 
BRANCH  22  23
ATOM     23  C   UNL     1      35.236 -18.167 -23.257  0.00  0.00    +0.093 C 
BRANCH  23  25
ATOM     24  S   UNL     1      32.934 -21.025 -20.418  0.00  0.00    -0.101 S 
ATOM     25  N   UNL     1      34.585 -19.064 -22.351  0.00  0.00    -0.320 N 
ATOM     26  N   UNL     1      36.613 -19.654 -21.253  0.00  0.00    -0.233 NA
ATOM     27  N   UNL     1      36.681 -21.228 -19.416  0.00  0.00    -0.247 NA
ATOM     28  C   UNL     1      35.277 -19.793 -21.365  0.00  0.00    +0.118 C 
ATOM     29  C   UNL     1      34.608 -20.654 -20.504  0.00  0.00    +0.145 C 
ATOM     30  C   UNL     1      35.334 -21.357 -19.543  0.00  0.00    +0.073 C 
ATOM     31  C   UNL     1      34.495 -22.192 -18.747  0.00  0.00    +0.022 C 
ATOM     32  C   UNL     1      33.172 -22.107 -19.117  0.00  0.00    +0.033 C 
ATOM     33  C   UNL     1      37.228 -20.372 -20.295  0.00  0.00    +0.251 C 
ATOM     34  H   UNL     1      33.610 -19.178 -22.421  0.00  0.00    +0.148 HD
ENDBRANCH  23  25
ENDBRANCH  22  23
ENDBRANCH   6  22
TORSDOF 5
ENDMDL
MODEL 5
REMARK VINA RESULT:     -11.2      1.912      2.385
REMARK  Name = 24880024
REMARK  5 active torsions:
REMARK  status: ('A' for Active; 'I' for Inactive)
REMARK    1  A    between atoms: N_5  and  C_12
REMARK    2  A    between atoms: C_6  and  C_22
REMARK    3  A    between atoms: C_13  and  C_21
REMARK    4  A    between atoms: C_22  and  C_23
REMARK    5  A    between atoms: C_23  and  N_25
REMARK                            x       y       z     vdW  Elec       q    Type
REMARK                         _______ _______ _______ _____ _____    ______ ____
ROOT
ATOM      1  S   UNL     1      34.042 -21.214 -20.264  0.00  0.00    -0.056 S 
ATOM      2  O   UNL     1      36.994 -22.413 -16.851  0.00  0.00    -0.252 OA
ATOM      3  N   UNL     1      36.478 -20.975 -19.432  0.00  0.00    -0.223 NA
ATOM      4  N   UNL     1      34.988 -22.285 -18.066  0.00  0.00    -0.248 N 
ATOM      5  N   UNL     1      35.072 -23.493 -16.070  0.00  0.00    -0.268 N 
ATOM      6  C   UNL     1      35.126 -20.284 -21.212  0.00  0.00    +0.031 C 
ATOM      7  C   UNL     1      36.369 -20.272 -20.616  0.00  0.00    +0.103 C 
ATOM      8  C   UNL     1      35.312 -21.513 -19.150  0.00  0.00    +0.166 C 
ATOM      9  C   UNL     1      35.809 -22.707 -16.971  0.00  0.00    +0.310 C 
ATOM     10  H   UNL     1      34.053 -22.595 -18.034  0.00  0.00    +0.158 HD
ATOM     11  H   UNL     1      34.127 -23.644 -16.301  0.00  0.00    +0.156 HD
ENDROOT
BRANCH   5  12
ATOM     12  C   UNL     1      35.521 -24.095 -14.871  0.00  0.00    +0.052 C 
ATOM     13  C   UNL     1      37.192 -25.345 -13.654  0.00  0.00    +0.073 C 
ATOM     14  C   UNL     1      36.750 -24.753 -14.837  0.00  0.00    +0.019 C 
ATOM     15  C   UNL     1      34.734 -24.028 -13.721  0.00  0.00    +0.015 C 
ATOM     16  C   UNL     1      36.405 -25.278 -12.505  0.00  0.00    +0.004 C 
ATOM     17  C   UNL     1      35.176 -24.620 -12.538  0.00  0.00    +0.001 C 
BRANCH  13  21
ATOM     18  F   UNL     1      38.548 -27.172 -14.392  0.00  0.00    -0.166 F 
ATOM     19  F   UNL     1      39.551 -25.280 -14.048  0.00  0.00    -0.166 F 
ATOM     20  F   UNL     1      38.848 -26.458 -12.361  0.00  0.00    -0.166 F 
ATOM     21  C   UNL     1      38.507 -26.049 -13.617  0.00  0.00    +0.419 C 
ENDBRANCH  13  21
ENDBRANCH   5  12
BRANCH   6  22
ATOM     22  C   UNL     1      34.661 -19.630 -22.491  0.00  0.00    +0.056 C 
BRANCH  22  23
ATOM     23  C   UNL     1      35.684 -18.655 -23.073  0.00  0.00    +0.093 C 
BRANCH  23  25
ATOM     24  S   UNL     1      34.407 -14.268 -22.268  0.00  0.00    -0.101 S 
ATOM     25  N   UNL     1      35.263 -17.299 -22.888  0.00  0.00    -0.320 N 
ATOM     26  N   UNL     1      34.319 -17.144 -25.067  0.00  0.00    -0.233 NA
ATOM     27  N   UNL     1      33.253 -15.128 -25.876  0.00  0.00    -0.247 NA
ATOM     28  C   UNL     1      34.590 -16.564 -23.881  0.00  0.00    +0.118 C 
ATOM     29  C   UNL     1      34.198 -15.249 -23.661  0.00  0.00    +0.145 C 
ATOM     30  C   UNL     1      33.534 -14.558 -24.674  0.00  0.00    +0.073 C 
ATOM     31  C   UNL     1      33.206 -13.225 -24.283  0.00  0.00    +0.022 C 
ATOM     32  C   UNL     1      33.622 -12.939 -23.003  0.00  0.00    +0.033 C 
ATOM     33  C   UNL     1      33.673 -16.398 -25.983  0.00  0.00    +0.251 C 
ATOM     34  H   UNL     1      35.454 -16.861 -22.027  0.00  0.00    +0.148 HD
ENDBRANCH  23  25
ENDBRANCH  22  23
ENDBRANCH   6  22
TORSDOF 5
ENDMDL
MODEL 6
REMARK VINA RESULT:     -10.9      4.910      8.010
REMARK  Name = 24880024
REMARK  5 active torsions:
REMARK  status: ('A' for Active; 'I' for Inactive)
REMARK    1  A    between atoms: N_5  and  C_12
REMARK    2  A    between atoms: C_6  and  C_22
REMARK    3  A    between atoms: C_13  and  C_21
REMARK    4  A    between atoms: C_22  and  C_23
REMARK    5  A    between atoms: C_23  and  N_25
REMARK                            x       y       z     vdW  Elec       q    Type
REMARK                         _______ _______ _______ _____ _____    ______ ____
ROOT
ATOM      1  S   UNL     1      33.875 -15.337 -25.007  0.00  0.00    -0.056 S 
ATOM      2  O   UNL     1      35.343 -16.955 -20.880  0.00  0.00    -0.252 OA
ATOM      3  N   UNL     1      34.580 -14.635 -22.620  0.00  0.00    -0.223 NA
ATOM      4  N   UNL     1      34.631 -16.991 -23.119  0.00  0.00    -0.248 N 
ATOM      5  N   UNL     1      35.157 -18.986 -22.026  0.00  0.00    -0.268 N 
ATOM      6  C   UNL     1      33.845 -13.667 -24.620  0.00  0.00    +0.031 C 
ATOM      7  C   UNL     1      34.252 -13.487 -23.314  0.00  0.00    +0.103 C 
ATOM      8  C   UNL     1      34.419 -15.671 -23.413  0.00  0.00    +0.166 C 
ATOM      9  C   UNL     1      35.075 -17.590 -21.895  0.00  0.00    +0.310 C 
ATOM     10  H   UNL     1      34.452 -17.621 -23.854  0.00  0.00    +0.158 HD
ATOM     11  H   UNL     1      34.908 -19.353 -22.905  0.00  0.00    +0.156 HD
ENDROOT
BRANCH   5  12
ATOM     12  C   UNL     1      35.552 -19.930 -21.049  0.00  0.00    +0.052 C 
ATOM     13  C   UNL     1      34.988 -21.676 -19.477  0.00  0.00    +0.073 C 
ATOM     14  C   UNL     1      34.598 -20.746 -20.440  0.00  0.00    +0.019 C 
ATOM     15  C   UNL     1      36.896 -20.046 -20.695  0.00  0.00    +0.015 C 
ATOM     16  C   UNL     1      36.332 -21.792 -19.123  0.00  0.00    +0.004 C 
ATOM     17  C   UNL     1      37.286 -20.977 -19.732  0.00  0.00    +0.001 C 
BRANCH  13  21
ATOM     18  F   UNL     1      34.268 -22.869 -17.533  0.00  0.00    -0.166 F 
ATOM     19  F   UNL     1      32.723 -21.988 -18.774  0.00  0.00    -0.166 F 
ATOM     20  F   UNL     1      33.807 -23.740 -19.471  0.00  0.00    -0.166 F 
ATOM     21  C   UNL     1      33.968 -22.548 -18.826  0.00  0.00    +0.419 C 
ENDBRANCH  13  21
ENDBRANCH   5  12
BRANCH   6  22
ATOM     22  C   UNL     1      33.419 -12.648 -25.649  0.00  0.00    +0.056 C 
BRANCH  22  23
ATOM     23  C   UNL     1      33.840 -11.223 -25.292  0.00  0.00    +0.093 C 
BRANCH  23  25
ATOM     24  S   UNL     1      31.800 -10.068 -21.289  0.00  0.00    -0.101 S 
ATOM     25  N   UNL     1      33.243 -10.806 -24.060  0.00  0.00    -0.320 N 
ATOM     26  N   UNL     1      34.353  -8.701 -24.068  0.00  0.00    -0.233 NA
ATOM     27  N   UNL     1      34.047  -7.068 -22.309  0.00  0.00    -0.247 NA
ATOM     28  C   UNL     1      33.506  -9.558 -23.465  0.00  0.00    +0.118 C 
ATOM     29  C   UNL     1      32.905  -9.191 -22.266  0.00  0.00    +0.145 C 
ATOM     30  C   UNL     1      33.195  -7.944 -21.714  0.00  0.00    +0.073 C 
ATOM     31  C   UNL     1      32.496  -7.730 -20.487  0.00  0.00    +0.022 C 
ATOM     32  C   UNL     1      31.706  -8.803 -20.143  0.00  0.00    +0.033 C 
ATOM     33  C   UNL     1      34.570  -7.520 -23.460  0.00  0.00    +0.251 C 
ATOM     34  H   UNL     1      32.623 -11.421 -23.606  0.00  0.00    +0.148 HD
ENDBRANCH  23  25
ENDBRANCH  22  23
ENDBRANCH   6  22
TORSDOF 5
ENDMDL
MODEL 7
REMARK VINA RESULT:     -10.8      8.169     12.630
REMARK  Name = 24880024
REMARK  5 active torsions:
REMARK  status: ('A' for Active; 'I' for Inactive)
REMARK    1  A    between atoms: N_5  and  C_12
REMARK    2  A    between atoms: C_6  and  C_22
REMARK    3  A    between atoms: C_13  and  C_21
REMARK    4  A    between atoms: C_22  and  C_23
REMARK    5  A    between atoms: C_23  and  N_25
REMARK                            x       y       z     vdW  Elec       q    Type
REMARK                         _______ _______ _______ _____ _____    ______ ____
ROOT
ATOM      1  S   UNL     1      33.013  -9.561 -23.435  0.00  0.00    -0.056 S 
ATOM      2  O   UNL     1      32.736 -14.052 -22.188  0.00  0.00    -0.252 OA
ATOM      3  N   UNL     1      32.006 -11.186 -21.694  0.00  0.00    -0.223 NA
ATOM      4  N   UNL     1      33.362 -12.159 -23.431  0.00  0.00    -0.248 N 
ATOM      5  N   UNL     1      34.099 -14.279 -24.076  0.00  0.00    -0.268 N 
ATOM      6  C   UNL     1      32.039  -8.899 -22.188  0.00  0.00    +0.031 C 
ATOM      7  C   UNL     1      31.596  -9.910 -21.361  0.00  0.00    +0.103 C 
ATOM      8  C   UNL     1      32.758 -11.123 -22.770  0.00  0.00    +0.166 C 
ATOM      9  C   UNL     1      33.341 -13.561 -23.136  0.00  0.00    +0.310 C 
ATOM     10  H   UNL     1      33.888 -11.904 -24.224  0.00  0.00    +0.158 HD
ATOM     11  H   UNL     1      34.527 -13.745 -24.783  0.00  0.00    +0.156 HD
ENDROOT
BRANCH   5  12
ATOM     12  C   UNL     1      34.322 -15.675 -24.131  0.00  0.00    +0.052 C 
ATOM     13  C   UNL     1      35.209 -17.693 -23.143  0.00  0.00    +0.073 C 
ATOM     14  C   UNL     1      34.990 -16.317 -23.088  0.00  0.00    +0.019 C 
ATOM     15  C   UNL     1      33.873 -16.409 -25.228  0.00  0.00    +0.015 C 
ATOM     16  C   UNL     1      34.760 -18.427 -24.240  0.00  0.00    +0.004 C 
ATOM     17  C   UNL     1      34.092 -17.786 -25.283  0.00  0.00    +0.001 C 
BRANCH  13  21
ATOM     18  F   UNL     1      35.487 -19.653 -21.800  0.00  0.00    -0.166 F 
ATOM     19  F   UNL     1      37.270 -18.496 -22.232  0.00  0.00    -0.166 F 
ATOM     20  F   UNL     1      35.790 -17.727 -20.837  0.00  0.00    -0.166 F 
ATOM     21  C   UNL     1      35.924 -18.380 -22.028  0.00  0.00    +0.419 C 
ENDBRANCH  13  21
ENDBRANCH   5  12
BRANCH   6  22
ATOM     22  C   UNL     1      31.786  -7.412 -22.120  0.00  0.00    +0.056 C 
BRANCH  22  23
ATOM     23  C   UNL     1      30.876  -6.908 -23.239  0.00  0.00    +0.093 C 
BRANCH  23  25
ATOM     24  S   UNL     1      33.337  -4.560 -26.395  0.00  0.00    -0.101 S 
ATOM     25  N   UNL     1      31.612  -6.125 -24.185  0.00  0.00    -0.320 N 
ATOM     26  N   UNL     1      30.854  -4.058 -23.281  0.00  0.00    -0.233 NA
ATOM     27  N   UNL     1      31.534  -1.920 -24.189  0.00  0.00    -0.247 NA
ATOM     28  C   UNL     1      31.593  -4.718 -24.195  0.00  0.00    +0.118 C 
ATOM     29  C   UNL     1      32.322  -3.994 -25.131  0.00  0.00    +0.145 C 
ATOM     30  C   UNL     1      32.273  -2.601 -25.104  0.00  0.00    +0.073 C 
ATOM     31  C   UNL     1      33.077  -2.020 -26.130  0.00  0.00    +0.022 C 
ATOM     32  C   UNL     1      33.707  -2.970 -26.900  0.00  0.00    +0.033 C 
ATOM     33  C   UNL     1      30.870  -2.713 -23.333  0.00  0.00    +0.251 C 
ATOM     34  H   UNL     1      32.156  -6.592 -24.860  0.00  0.00    +0.148 HD
ENDBRANCH  23  25
ENDBRANCH  22  23
ENDBRANCH   6  22
TORSDOF 5
ENDMDL
MODEL 8
REMARK VINA RESULT:     -10.7      2.053      2.756
REMARK  Name = 24880024
REMARK  5 active torsions:
REMARK  status: ('A' for Active; 'I' for Inactive)
REMARK    1  A    between atoms: N_5  and  C_12
REMARK    2  A    between atoms: C_6  and  C_22
REMARK    3  A    between atoms: C_13  and  C_21
REMARK    4  A    between atoms: C_22  and  C_23
REMARK    5  A    between atoms: C_23  and  N_25
REMARK                            x       y       z     vdW  Elec       q    Type
REMARK                         _______ _______ _______ _____ _____    ______ ____
ROOT
ATOM      1  S   UNL     1      33.999 -21.269 -20.276  0.00  0.00    -0.056 S 
ATOM      2  O   UNL     1      36.923 -22.366 -16.804  0.00  0.00    -0.252 OA
ATOM      3  N   UNL     1      36.428 -21.004 -19.430  0.00  0.00    -0.223 NA
ATOM      4  N   UNL     1      34.927 -22.276 -18.040  0.00  0.00    -0.248 N 
ATOM      5  N   UNL     1      34.995 -23.426 -16.010  0.00  0.00    -0.268 N 
ATOM      6  C   UNL     1      35.091 -20.366 -21.241  0.00  0.00    +0.031 C 
ATOM      7  C   UNL     1      36.329 -20.335 -20.634  0.00  0.00    +0.103 C 
ATOM      8  C   UNL     1      35.261 -21.535 -19.142  0.00  0.00    +0.166 C 
ATOM      9  C   UNL     1      35.740 -22.665 -16.926  0.00  0.00    +0.310 C 
ATOM     10  H   UNL     1      33.993 -22.586 -18.008  0.00  0.00    +0.158 HD
ATOM     11  H   UNL     1      34.053 -23.584 -16.245  0.00  0.00    +0.156 HD
ENDROOT
BRANCH   5  12
ATOM     12  C   UNL     1      35.434 -23.992 -14.789  0.00  0.00    +0.052 C 
ATOM     13  C   UNL     1      37.181 -24.997 -13.457  0.00  0.00    +0.073 C 
ATOM     14  C   UNL     1      36.749 -24.439 -14.660  0.00  0.00    +0.019 C 
ATOM     15  C   UNL     1      34.552 -24.102 -13.715  0.00  0.00    +0.015 C 
ATOM     16  C   UNL     1      36.298 -25.106 -12.383  0.00  0.00    +0.004 C 
ATOM     17  C   UNL     1      34.984 -24.658 -12.511  0.00  0.00    +0.001 C 
BRANCH  13  21
ATOM     18  F   UNL     1      39.377 -24.647 -12.574  0.00  0.00    -0.166 F 
ATOM     19  F   UNL     1      38.690 -26.699 -12.719  0.00  0.00    -0.166 F 
ATOM     20  F   UNL     1      39.219 -25.603 -14.521  0.00  0.00    -0.166 F 
ATOM     21  C   UNL     1      38.587 -25.476 -13.318  0.00  0.00    +0.419 C 
ENDBRANCH  13  21
ENDBRANCH   5  12
BRANCH   6  22
ATOM     22  C   UNL     1      34.636 -19.749 -22.542  0.00  0.00    +0.056 C 
BRANCH  22  23
ATOM     23  C   UNL     1      35.674 -18.811 -23.157  0.00  0.00    +0.093 C 
BRANCH  23  25
ATOM     24  S   UNL     1      33.617 -15.621 -25.824  0.00  0.00    -0.101 S 
ATOM     25  N   UNL     1      35.043 -17.783 -23.927  0.00  0.00    -0.320 N 
ATOM     26  N   UNL     1      35.124 -16.202 -22.150  0.00  0.00    -0.233 NA
ATOM     27  N   UNL     1      34.260 -13.954 -22.376  0.00  0.00    -0.247 NA
ATOM     28  C   UNL     1      34.777 -16.499 -23.417  0.00  0.00    +0.118 C 
ATOM     29  C   UNL     1      34.161 -15.528 -24.199  0.00  0.00    +0.145 C 
ATOM     30  C   UNL     1      33.916 -14.268 -23.652  0.00  0.00    +0.073 C 
ATOM     31  C   UNL     1      33.281 -13.397 -24.587  0.00  0.00    +0.022 C 
ATOM     32  C   UNL     1      33.061 -14.005 -25.801  0.00  0.00    +0.033 C 
ATOM     33  C   UNL     1      34.848 -14.961 -21.710  0.00  0.00    +0.251 C 
ATOM     34  H   UNL     1      34.782 -17.984 -24.855  0.00  0.00    +0.148 HD
ENDBRANCH  23  25
ENDBRANCH  22  23
ENDBRANCH   6  22
TORSDOF 5
ENDMDL
MODEL 9
REMARK VINA RESULT:     -10.7      8.122     12.309
REMARK  Name = 24880024
REMARK  5 active torsions:
REMARK  status: ('A' for Active; 'I' for Inactive)
REMARK    1  A    between atoms: N_5  and  C_12
REMARK    2  A    between atoms: C_6  and  C_22
REMARK    3  A    between atoms: C_13  and  C_21
REMARK    4  A    between atoms: C_22  and  C_23
REMARK    5  A    between atoms: C_23  and  N_25
REMARK                            x       y       z     vdW  Elec       q    Type
REMARK                         _______ _______ _______ _____ _____    ______ ____
ROOT
ATOM      1  S   UNL     1      32.784  -9.608 -23.268  0.00  0.00    -0.056 S 
ATOM      2  O   UNL     1      32.820 -14.104 -22.011  0.00  0.00    -0.252 OA
ATOM      3  N   UNL     1      32.024 -11.270 -21.439  0.00  0.00    -0.223 NA
ATOM      4  N   UNL     1      33.239 -12.189 -23.305  0.00  0.00    -0.248 N 
ATOM      5  N   UNL     1      33.996 -14.277 -24.026  0.00  0.00    -0.268 N 
ATOM      6  C   UNL     1      31.913  -8.984 -21.929  0.00  0.00    +0.031 C 
ATOM      7  C   UNL     1      31.597 -10.012 -21.064  0.00  0.00    +0.103 C 
ATOM      8  C   UNL     1      32.661 -11.178 -22.585  0.00  0.00    +0.166 C 
ATOM      9  C   UNL     1      33.306 -13.590 -23.014  0.00  0.00    +0.310 C 
ATOM     10  H   UNL     1      33.672 -11.914 -24.146  0.00  0.00    +0.158 HD
ATOM     11  H   UNL     1      34.328 -13.727 -24.772  0.00  0.00    +0.156 HD
ENDROOT
BRANCH   5  12
ATOM     12  C   UNL     1      34.270 -15.662 -24.107  0.00  0.00    +0.052 C 
ATOM     13  C   UNL     1      35.213 -17.668 -23.146  0.00  0.00    +0.073 C 
ATOM     14  C   UNL     1      34.943 -16.302 -23.067  0.00  0.00    +0.019 C 
ATOM     15  C   UNL     1      33.866 -16.389 -25.227  0.00  0.00    +0.015 C 
ATOM     16  C   UNL     1      34.809 -18.395 -24.266  0.00  0.00    +0.004 C 
ATOM     17  C   UNL     1      34.136 -17.755 -25.307  0.00  0.00    +0.001 C 
BRANCH  13  21
ATOM     18  F   UNL     1      35.866 -17.686 -20.845  0.00  0.00    -0.166 F 
ATOM     19  F   UNL     1      35.459 -19.607 -21.767  0.00  0.00    -0.166 F 
ATOM     20  F   UNL     1      37.264 -18.513 -22.291  0.00  0.00    -0.166 F 
ATOM     21  C   UNL     1      35.933 -18.354 -22.034  0.00  0.00    +0.419 C 
ENDBRANCH  13  21
ENDBRANCH   5  12
BRANCH   6  22
ATOM     22  C   UNL     1      31.606  -7.510 -21.832  0.00  0.00    +0.056 C 
BRANCH  22  23
ATOM     23  C   UNL     1      32.794  -6.624 -22.204  0.00  0.00    +0.093 C 
BRANCH  23  25
ATOM     24  S   UNL     1      31.275  -2.962 -24.614  0.00  0.00    -0.101 S 
ATOM     25  N   UNL     1      32.373  -5.507 -22.995  0.00  0.00    -0.320 N 
ATOM     26  N   UNL     1      34.013  -5.896 -24.676  0.00  0.00    -0.233 NA
ATOM     27  N   UNL     1      34.219  -4.491 -26.634  0.00  0.00    -0.247 NA
ATOM     28  C   UNL     1      32.984  -5.159 -24.214  0.00  0.00    +0.118 C 
ATOM     29  C   UNL     1      32.545  -4.066 -24.952  0.00  0.00    +0.145 C 
ATOM     30  C   UNL     1      33.181  -3.757 -26.154  0.00  0.00    +0.073 C 
ATOM     31  C   UNL     1      32.606  -2.610 -26.781  0.00  0.00    +0.022 C 
ATOM     32  C   UNL     1      31.566  -2.083 -26.051  0.00  0.00    +0.033 C 
ATOM     33  C   UNL     1      34.563  -5.522 -25.846  0.00  0.00    +0.251 C 
ATOM     34  H   UNL     1      31.624  -4.958 -22.671  0.00  0.00    +0.148 HD
ENDBRANCH  23  25
ENDBRANCH  22  23
ENDBRANCH   6  22
TORSDOF 5
ENDMDL
