MODEL 1
REMARK VINA RESULT:     -11.4      0.000      0.000
REMARK  Name = 9887812
REMARK  11 active torsions:
REMARK  status: ('A' for Active; 'I' for Inactive)
REMARK    1  A    between atoms: N_1  and  C_3
REMARK    2  A    between atoms: N_1  and  C_19
REMARK    3  A    between atoms: C_4  and  C_9
REMARK    4  A    between atoms: C_12  and  C_16
REMARK    5  A    between atoms: C_16  and  O_17
REMARK    6  A    between atoms: C_19  and  C_20
REMARK    7  A    between atoms: C_20  and  N_21
REMARK    8  A    between atoms: N_21  and  C_24
REMARK    9  A    between atoms: C_24  and  C_25
REMARK   10  A    between atoms: C_25  and  C_27
REMARK   11  A    between atoms: C_25  and  O_33
REMARK                            x       y       z     vdW  Elec       q    Type
REMARK                         _______ _______ _______ _____ _____    ______ ____
ROOT
ATOM      1  N   UNL     1      32.873 -22.300 -18.907  0.00  0.00    -0.335 N 
ATOM      2  H   UNL     1      32.027 -22.119 -19.376  0.00  0.00    +0.147 HD
ENDROOT
BRANCH   1   3
ATOM      3  C   UNL     1      34.059 -21.731 -19.416  0.00  0.00    +0.045 C 
ATOM      4  C   UNL     1      35.167 -20.143 -20.862  0.00  0.00    +0.001 C 
ATOM      5  C   UNL     1      33.993 -20.705 -20.359  0.00  0.00    +0.014 C 
ATOM      6  C   UNL     1      35.299 -22.194 -18.977  0.00  0.00    +0.014 C 
ATOM      7  C   UNL     1      36.407 -20.607 -20.422  0.00  0.00    +0.000 C 
ATOM      8  C   UNL     1      36.473 -21.633 -19.480  0.00  0.00    +0.001 C 
BRANCH   4   9
ATOM      9  C   UNL     1      35.097 -19.080 -21.840  0.00  0.00    +0.000 C 
ATOM     10  C   UNL     1      34.628 -19.345 -23.127  0.00  0.00    +0.006 C 
ATOM     11  C   UNL     1      35.500 -17.789 -21.496  0.00  0.00    +0.000 C 
ATOM     12  C   UNL     1      34.562 -18.319 -24.070  0.00  0.00    +0.075 C 
ATOM     13  C   UNL     1      35.434 -16.764 -22.439  0.00  0.00    +0.000 C 
ATOM     14  C   UNL     1      34.965 -17.028 -23.727  0.00  0.00    +0.006 C 
BRANCH  12  16
ATOM     15  O   UNL     1      34.002 -19.712 -25.933  0.00  0.00    -0.245 OA
ATOM     16  C   UNL     1      34.072 -18.594 -25.411  0.00  0.00    +0.338 C 
BRANCH  16  17
ATOM     17  O   UNL     1      33.683 -17.464 -26.065  0.00  0.00    -0.477 OA
ATOM     18  H   UNL     1      33.742 -16.633 -25.639  0.00  0.00    +0.295 HD
ENDBRANCH  16  17
ENDBRANCH  12  16
ENDBRANCH   4   9
ENDBRANCH   1   3
BRANCH   1  19
ATOM     19  C   UNL     1      32.846 -23.125 -17.739  0.00  0.00    +0.064 C 
BRANCH  19  20
ATOM     20  C   UNL     1      31.530 -22.922 -17.001  0.00  0.00    -0.060 C 
BRANCH  20  21
ATOM     21  N   UNL     1      31.416 -23.868 -15.897  0.00  0.00    +0.387 N 
ATOM     22  H   UNL     1      30.446 -23.901 -15.585  0.00  0.00    -0.084 HD
ATOM     23  H   UNL     1      31.717 -24.786 -16.222  0.00  0.00    -0.084 HD
BRANCH  21  24
ATOM     24  C   UNL     1      32.263 -23.467 -14.781  0.00  0.00    -0.047 C 
BRANCH  24  25
ATOM     25  C   UNL     1      33.141 -24.636 -14.317  0.00  0.00    +0.112 C 
BRANCH  25  27
ATOM     26 CL   UNL     1      37.661 -22.787 -16.105  0.00  0.00    -0.082 Cl
ATOM     27  C   UNL     1      34.557 -24.186 -14.033  0.00  0.00    +0.003 C 
ATOM     28  C   UNL     1      35.351 -23.750 -15.080  0.00  0.00    +0.009 C 
ATOM     29  C   UNL     1      35.029 -24.217 -12.732  0.00  0.00    -0.002 C 
ATOM     30  C   UNL     1      36.656 -23.334 -14.818  0.00  0.00    +0.057 C 
ATOM     31  C   UNL     1      36.334 -23.802 -12.470  0.00  0.00    +0.001 C 
ATOM     32  C   UNL     1      37.148 -23.359 -13.513  0.00  0.00    +0.011 C 
ENDBRANCH  25  27
BRANCH  25  33
ATOM     33  O   UNL     1      32.609 -25.211 -13.125  0.00  0.00    -0.382 OA
ATOM     34  H   UNL     1      33.308 -25.272 -12.455  0.00  0.00    +0.211 HD
ENDBRANCH  25  33
ENDBRANCH  24  25
ENDBRANCH  21  24
ENDBRANCH  20  21
ENDBRANCH  19  20
ENDBRANCH   1  19
TORSDOF 11
ENDMDL
MODEL 2
REMARK VINA RESULT:     -11.2      2.334      3.537
REMARK  Name = 9887812
REMARK  11 active torsions:
REMARK  status: ('A' for Active; 'I' for Inactive)
REMARK    1  A    between atoms: N_1  and  C_3
REMARK    2  A    between atoms: N_1  and  C_19
REMARK    3  A    between atoms: C_4  and  C_9
REMARK    4  A    between atoms: C_12  and  C_16
REMARK    5  A    between atoms: C_16  and  O_17
REMARK    6  A    between atoms: C_19  and  C_20
REMARK    7  A    between atoms: C_20  and  N_21
REMARK    8  A    between atoms: N_21  and  C_24
REMARK    9  A    between atoms: C_24  and  C_25
REMARK   10  A    between atoms: C_25  and  C_27
REMARK   11  A    between atoms: C_25  and  O_33
REMARK                            x       y       z     vdW  Elec       q    Type
REMARK                         _______ _______ _______ _____ _____    ______ ____
ROOT
ATOM      1  N   UNL     1      33.091 -22.375 -19.369  0.00  0.00    -0.335 N 
ATOM      2  H   UNL     1      32.521 -22.804 -20.048  0.00  0.00    +0.147 HD
ENDROOT
BRANCH   1   3
ATOM      3  C   UNL     1      34.233 -21.667 -19.797  0.00  0.00    +0.045 C 
ATOM      4  C   UNL     1      35.232 -19.909 -21.119  0.00  0.00    +0.001 C 
ATOM      5  C   UNL     1      34.102 -20.608 -20.695  0.00  0.00    +0.014 C 
ATOM      6  C   UNL     1      35.495 -22.028 -19.325  0.00  0.00    +0.014 C 
ATOM      7  C   UNL     1      36.494 -20.269 -20.646  0.00  0.00    +0.000 C 
ATOM      8  C   UNL     1      36.625 -21.330 -19.749  0.00  0.00    +0.001 C 
BRANCH   4   9
ATOM      9  C   UNL     1      35.096 -18.810 -22.050  0.00  0.00    +0.000 C 
ATOM     10  C   UNL     1      34.601 -19.040 -23.334  0.00  0.00    +0.006 C 
ATOM     11  C   UNL     1      35.459 -17.520 -21.663  0.00  0.00    +0.000 C 
ATOM     12  C   UNL     1      34.470 -17.981 -24.231  0.00  0.00    +0.075 C 
ATOM     13  C   UNL     1      35.328 -16.460 -22.561  0.00  0.00    +0.000 C 
ATOM     14  C   UNL     1      34.833 -16.690 -23.845  0.00  0.00    +0.006 C 
BRANCH  12  16
ATOM     15  O   UNL     1      33.489 -17.357 -26.322  0.00  0.00    -0.245 OA
ATOM     16  C   UNL     1      33.953 -18.220 -25.569  0.00  0.00    +0.338 C 
BRANCH  16  17
ATOM     17  O   UNL     1      34.029 -19.531 -25.930  0.00  0.00    -0.477 OA
ATOM     18  H   UNL     1      34.745 -20.056 -25.635  0.00  0.00    +0.295 HD
ENDBRANCH  16  17
ENDBRANCH  12  16
ENDBRANCH   4   9
ENDBRANCH   1   3
BRANCH   1  19
ATOM     19  C   UNL     1      32.722 -22.494 -17.992  0.00  0.00    +0.064 C 
BRANCH  19  20
ATOM     20  C   UNL     1      33.455 -23.674 -17.367  0.00  0.00    -0.060 C 
BRANCH  20  21
ATOM     21  N   UNL     1      34.191 -23.244 -16.184  0.00  0.00    +0.387 N 
ATOM     22  H   UNL     1      35.191 -23.344 -16.358  0.00  0.00    -0.084 HD
ATOM     23  H   UNL     1      33.959 -22.270 -15.992  0.00  0.00    -0.084 HD
BRANCH  21  24
ATOM     24  C   UNL     1      33.826 -24.047 -15.025  0.00  0.00    -0.047 C 
BRANCH  24  25
ATOM     25  C   UNL     1      32.714 -23.365 -14.217  0.00  0.00    +0.112 C 
BRANCH  25  27
ATOM     26 CL   UNL     1      27.987 -22.621 -16.251  0.00  0.00    -0.082 Cl
ATOM     27  C   UNL     1      31.353 -23.926 -14.566  0.00  0.00    +0.003 C 
ATOM     28  C   UNL     1      30.419 -23.105 -15.173  0.00  0.00    +0.009 C 
ATOM     29  C   UNL     1      31.072 -25.250 -14.272  0.00  0.00    -0.002 C 
ATOM     30  C   UNL     1      29.164 -23.623 -15.496  0.00  0.00    +0.057 C 
ATOM     31  C   UNL     1      29.818 -25.767 -14.594  0.00  0.00    +0.001 C 
ATOM     32  C   UNL     1      28.864 -24.955 -15.206  0.00  0.00    +0.011 C 
ENDBRANCH  25  27
BRANCH  25  33
ATOM     33  O   UNL     1      32.930 -23.555 -12.821  0.00  0.00    -0.382 OA
ATOM     34  H   UNL     1      33.784 -23.993 -12.681  0.00  0.00    +0.211 HD
ENDBRANCH  25  33
ENDBRANCH  24  25
ENDBRANCH  21  24
ENDBRANCH  20  21
ENDBRANCH  19  20
ENDBRANCH   1  19
TORSDOF 11
ENDMDL
MODEL 3
REMARK VINA RESULT:     -10.9      1.683      1.992
REMARK  Name = 9887812
REMARK  11 active torsions:
REMARK  status: ('A' for Active; 'I' for Inactive)
REMARK    1  A    between atoms: N_1  and  C_3
REMARK    2  A    between atoms: N_1  and  C_19
REMARK    3  A    between atoms: C_4  and  C_9
REMARK    4  A    between atoms: C_12  and  C_16
REMARK    5  A    between atoms: C_16  and  O_17
REMARK    6  A    between atoms: C_19  and  C_20
REMARK    7  A    between atoms: C_20  and  N_21
REMARK    8  A    between atoms: N_21  and  C_24
REMARK    9  A    between atoms: C_24  and  C_25
REMARK   10  A    between atoms: C_25  and  C_27
REMARK   11  A    between atoms: C_25  and  O_33
REMARK                            x       y       z     vdW  Elec       q    Type
REMARK                         _______ _______ _______ _____ _____    ______ ____
ROOT
ATOM      1  N   UNL     1      33.052 -22.418 -19.281  0.00  0.00    -0.335 N 
ATOM      2  H   UNL     1      32.518 -22.885 -19.964  0.00  0.00    +0.147 HD
ENDROOT
BRANCH   1   3
ATOM      3  C   UNL     1      34.208 -21.723 -19.689  0.00  0.00    +0.045 C 
ATOM      4  C   UNL     1      35.248 -19.974 -20.992  0.00  0.00    +0.001 C 
ATOM      5  C   UNL     1      34.104 -20.662 -20.588  0.00  0.00    +0.014 C 
ATOM      6  C   UNL     1      35.458 -22.097 -19.195  0.00  0.00    +0.014 C 
ATOM      7  C   UNL     1      36.498 -20.348 -20.498  0.00  0.00    +0.000 C 
ATOM      8  C   UNL     1      36.603 -21.411 -19.600  0.00  0.00    +0.001 C 
BRANCH   4   9
ATOM      9  C   UNL     1      35.139 -18.873 -21.924  0.00  0.00    +0.000 C 
ATOM     10  C   UNL     1      34.683 -19.101 -23.223  0.00  0.00    +0.006 C 
ATOM     11  C   UNL     1      35.491 -17.584 -21.524  0.00  0.00    +0.000 C 
ATOM     12  C   UNL     1      34.578 -18.039 -24.121  0.00  0.00    +0.075 C 
ATOM     13  C   UNL     1      35.386 -16.522 -22.423  0.00  0.00    +0.000 C 
ATOM     14  C   UNL     1      34.930 -16.750 -23.722  0.00  0.00    +0.006 C 
BRANCH  12  16
ATOM     15  O   UNL     1      34.004 -19.382 -26.017  0.00  0.00    -0.245 OA
ATOM     16  C   UNL     1      34.102 -18.276 -25.475  0.00  0.00    +0.338 C 
BRANCH  16  17
ATOM     17  O   UNL     1      33.759 -17.123 -26.115  0.00  0.00    -0.477 OA
ATOM     18  H   UNL     1      34.195 -16.881 -26.908  0.00  0.00    +0.295 HD
ENDBRANCH  16  17
ENDBRANCH  12  16
ENDBRANCH   4   9
ENDBRANCH   1   3
BRANCH   1  19
ATOM     19  C   UNL     1      32.618 -22.474 -17.918  0.00  0.00    +0.064 C 
BRANCH  19  20
ATOM     20  C   UNL     1      33.172 -23.729 -17.257  0.00  0.00    -0.060 C 
BRANCH  20  21
ATOM     21  N   UNL     1      33.583 -23.442 -15.888  0.00  0.00    +0.387 N 
ATOM     22  H   UNL     1      33.808 -22.450 -15.809  0.00  0.00    -0.084 HD
ATOM     23  H   UNL     1      32.817 -23.683 -15.260  0.00  0.00    -0.084 HD
BRANCH  21  24
ATOM     24  C   UNL     1      34.752 -24.228 -15.521  0.00  0.00    -0.047 C 
BRANCH  24  25
ATOM     25  C   UNL     1      35.973 -23.324 -15.311  0.00  0.00    +0.112 C 
BRANCH  25  27
ATOM     26 CL   UNL     1      40.133 -26.046 -13.786  0.00  0.00    -0.082 Cl
ATOM     27  C   UNL     1      36.847 -23.827 -14.183  0.00  0.00    +0.003 C 
ATOM     28  C   UNL     1      37.950 -24.609 -14.480  0.00  0.00    +0.009 C 
ATOM     29  C   UNL     1      36.527 -23.492 -12.879  0.00  0.00    -0.002 C 
ATOM     30  C   UNL     1      38.756 -25.072 -13.440  0.00  0.00    +0.057 C 
ATOM     31  C   UNL     1      37.333 -23.955 -11.839  0.00  0.00    +0.001 C 
ATOM     32  C   UNL     1      38.448 -24.745 -12.120  0.00  0.00    +0.011 C 
ENDBRANCH  25  27
BRANCH  25  33
ATOM     33  O   UNL     1      36.761 -23.274 -16.498  0.00  0.00    -0.382 OA
ATOM     34  H   UNL     1      37.608 -23.721 -16.344  0.00  0.00    +0.211 HD
ENDBRANCH  25  33
ENDBRANCH  24  25
ENDBRANCH  21  24
ENDBRANCH  20  21
ENDBRANCH  19  20
ENDBRANCH   1  19
TORSDOF 11
ENDMDL
MODEL 4
REMARK VINA RESULT:     -10.8      6.640     12.187
REMARK  Name = 9887812
REMARK  11 active torsions:
REMARK  status: ('A' for Active; 'I' for Inactive)
REMARK    1  A    between atoms: N_1  and  C_3
REMARK    2  A    between atoms: N_1  and  C_19
REMARK    3  A    between atoms: C_4  and  C_9
REMARK    4  A    between atoms: C_12  and  C_16
REMARK    5  A    between atoms: C_16  and  O_17
REMARK    6  A    between atoms: C_19  and  C_20
REMARK    7  A    between atoms: C_20  and  N_21
REMARK    8  A    between atoms: N_21  and  C_24
REMARK    9  A    between atoms: C_24  and  C_25
REMARK   10  A    between atoms: C_25  and  C_27
REMARK   11  A    between atoms: C_25  and  O_33
REMARK                            x       y       z     vdW  Elec       q    Type
REMARK                         _______ _______ _______ _____ _____    ______ ____
ROOT
ATOM      1  N   UNL     1      35.117 -15.225 -22.950  0.00  0.00    -0.335 N 
ATOM      2  H   UNL     1      35.991 -14.809 -23.126  0.00  0.00    +0.147 HD
ENDROOT
BRANCH   1   3
ATOM      3  C   UNL     1      34.972 -16.609 -23.182  0.00  0.00    +0.045 C 
ATOM      4  C   UNL     1      35.093 -18.888 -22.389  0.00  0.00    +0.001 C 
ATOM      5  C   UNL     1      35.237 -17.519 -22.159  0.00  0.00    +0.014 C 
ATOM      6  C   UNL     1      34.564 -17.067 -24.435  0.00  0.00    +0.014 C 
ATOM      7  C   UNL     1      34.685 -19.346 -23.642  0.00  0.00    +0.000 C 
ATOM      8  C   UNL     1      34.421 -18.435 -24.665  0.00  0.00    +0.001 C 
BRANCH   4   9
ATOM      9  C   UNL     1      35.368 -19.832 -21.329  0.00  0.00    +0.000 C 
ATOM     10  C   UNL     1      34.342 -20.629 -20.819  0.00  0.00    +0.006 C 
ATOM     11  C   UNL     1      36.660 -19.946 -20.815  0.00  0.00    +0.000 C 
ATOM     12  C   UNL     1      34.609 -21.538 -19.796  0.00  0.00    +0.075 C 
ATOM     13  C   UNL     1      36.926 -20.856 -19.791  0.00  0.00    +0.000 C 
ATOM     14  C   UNL     1      35.900 -21.652 -19.282  0.00  0.00    +0.006 C 
BRANCH  12  16
ATOM     15  O   UNL     1      32.434 -21.963 -18.893  0.00  0.00    -0.245 OA
ATOM     16  C   UNL     1      33.540 -22.369 -19.265  0.00  0.00    +0.338 C 
BRANCH  16  17
ATOM     17  O   UNL     1      33.883 -23.687 -19.211  0.00  0.00    -0.477 OA
ATOM     18  H   UNL     1      33.915 -24.194 -19.998  0.00  0.00    +0.295 HD
ENDBRANCH  16  17
ENDBRANCH  12  16
ENDBRANCH   4   9
ENDBRANCH   1   3
BRANCH   1  19
ATOM     19  C   UNL     1      34.051 -14.402 -22.468  0.00  0.00    +0.064 C 
BRANCH  19  20
ATOM     20  C   UNL     1      33.453 -13.611 -23.624  0.00  0.00    -0.060 C 
BRANCH  20  21
ATOM     21  N   UNL     1      34.246 -12.415 -23.885  0.00  0.00    +0.387 N 
ATOM     22  H   UNL     1      35.035 -12.392 -23.239  0.00  0.00    -0.084 HD
ATOM     23  H   UNL     1      34.577 -12.447 -24.849  0.00  0.00    -0.084 HD
BRANCH  21  24
ATOM     24  C   UNL     1      33.446 -11.212 -23.705  0.00  0.00    -0.047 C 
BRANCH  24  25
ATOM     25  C   UNL     1      34.196  -9.977 -24.219  0.00  0.00    +0.112 C 
BRANCH  25  27
ATOM     26 CL   UNL     1      31.898  -7.760 -20.115  0.00  0.00    -0.082 Cl
ATOM     27  C   UNL     1      33.735  -8.718 -23.519  0.00  0.00    +0.003 C 
ATOM     28  C   UNL     1      33.106  -8.819 -22.290  0.00  0.00    +0.009 C 
ATOM     29  C   UNL     1      33.952  -7.491 -24.122  0.00  0.00    -0.002 C 
ATOM     30  C   UNL     1      32.682  -7.657 -21.644  0.00  0.00    +0.057 C 
ATOM     31  C   UNL     1      33.528  -6.330 -23.477  0.00  0.00    +0.001 C 
ATOM     32  C   UNL     1      32.893  -6.413 -22.238  0.00  0.00    +0.011 C 
ENDBRANCH  25  27
BRANCH  25  33
ATOM     33  O   UNL     1      35.597 -10.122 -23.997  0.00  0.00    -0.382 OA
ATOM     34  H   UNL     1      35.948 -10.814 -24.580  0.00  0.00    +0.211 HD
ENDBRANCH  25  33
ENDBRANCH  24  25
ENDBRANCH  21  24
ENDBRANCH  20  21
ENDBRANCH  19  20
ENDBRANCH   1  19
TORSDOF 11
ENDMDL
MODEL 5
REMARK VINA RESULT:     -10.8      3.648      9.768
REMARK  Name = 9887812
REMARK  11 active torsions:
REMARK  status: ('A' for Active; 'I' for Inactive)
REMARK    1  A    between atoms: N_1  and  C_3
REMARK    2  A    between atoms: N_1  and  C_19
REMARK    3  A    between atoms: C_4  and  C_9
REMARK    4  A    between atoms: C_12  and  C_16
REMARK    5  A    between atoms: C_16  and  O_17
REMARK    6  A    between atoms: C_19  and  C_20
REMARK    7  A    between atoms: C_20  and  N_21
REMARK    8  A    between atoms: N_21  and  C_24
REMARK    9  A    between atoms: C_24  and  C_25
REMARK   10  A    between atoms: C_25  and  C_27
REMARK   11  A    between atoms: C_25  and  O_33
REMARK                            x       y       z     vdW  Elec       q    Type
REMARK                         _______ _______ _______ _____ _____    ______ ____
ROOT
ATOM      1  N   UNL     1      34.913 -22.443 -19.018  0.00  0.00    -0.335 N 
ATOM      2  H   UNL     1      34.304 -22.695 -19.748  0.00  0.00    +0.147 HD
ENDROOT
BRANCH   1   3
ATOM      3  C   UNL     1      34.576 -22.817 -17.700  0.00  0.00    +0.045 C 
ATOM      4  C   UNL     1      32.929 -23.534 -16.085  0.00  0.00    +0.001 C 
ATOM      5  C   UNL     1      33.262 -23.164 -17.388  0.00  0.00    +0.014 C 
ATOM      6  C   UNL     1      35.557 -22.838 -16.709  0.00  0.00    +0.014 C 
ATOM      7  C   UNL     1      33.909 -23.556 -15.093  0.00  0.00    +0.000 C 
ATOM      8  C   UNL     1      35.224 -23.207 -15.406  0.00  0.00    +0.001 C 
BRANCH   4   9
ATOM      9  C   UNL     1      31.565 -23.894 -15.762  0.00  0.00    +0.000 C 
ATOM     10  C   UNL     1      30.507 -23.338 -16.481  0.00  0.00    +0.006 C 
ATOM     11  C   UNL     1      31.309 -24.798 -14.731  0.00  0.00    +0.000 C 
ATOM     12  C   UNL     1      29.193 -23.685 -16.168  0.00  0.00    +0.075 C 
ATOM     13  C   UNL     1      29.995 -25.145 -14.418  0.00  0.00    +0.000 C 
ATOM     14  C   UNL     1      28.936 -24.588 -15.137  0.00  0.00    +0.006 C 
BRANCH  12  16
ATOM     15  O   UNL     1      27.677 -21.947 -16.805  0.00  0.00    -0.245 OA
ATOM     16  C   UNL     1      28.089 -23.106 -16.918  0.00  0.00    +0.338 C 
BRANCH  16  17
ATOM     17  O   UNL     1      27.530 -23.992 -17.789  0.00  0.00    -0.477 OA
ATOM     18  H   UNL     1      27.942 -24.162 -18.612  0.00  0.00    +0.295 HD
ENDBRANCH  16  17
ENDBRANCH  12  16
ENDBRANCH   4   9
ENDBRANCH   1   3
BRANCH   1  19
ATOM     19  C   UNL     1      36.103 -21.716 -19.339  0.00  0.00    +0.064 C 
BRANCH  19  20
ATOM     20  C   UNL     1      35.835 -20.792 -20.519  0.00  0.00    -0.060 C 
BRANCH  20  21
ATOM     21  N   UNL     1      36.540 -19.528 -20.345  0.00  0.00    +0.387 N 
ATOM     22  H   UNL     1      35.929 -18.870 -19.861  0.00  0.00    -0.084 HD
ATOM     23  H   UNL     1      37.384 -19.698 -19.799  0.00  0.00    -0.084 HD
BRANCH  21  24
ATOM     24  C   UNL     1      36.923 -18.965 -21.632  0.00  0.00    -0.047 C 
BRANCH  24  25
ATOM     25  C   UNL     1      36.096 -17.713 -21.947  0.00  0.00    +0.112 C 
BRANCH  25  27
ATOM     26 CL   UNL     1      33.575 -15.590 -25.969  0.00  0.00    -0.082 Cl
ATOM     27  C   UNL     1      35.261 -17.900 -23.194  0.00  0.00    +0.003 C 
ATOM     28  C   UNL     1      34.857 -16.787 -23.911  0.00  0.00    +0.009 C 
ATOM     29  C   UNL     1      34.920 -19.181 -23.593  0.00  0.00    -0.002 C 
ATOM     30  C   UNL     1      34.088 -16.960 -25.062  0.00  0.00    +0.057 C 
ATOM     31  C   UNL     1      34.150 -19.354 -24.743  0.00  0.00    +0.001 C 
ATOM     32  C   UNL     1      33.734 -18.244 -25.478  0.00  0.00    +0.011 C 
ENDBRANCH  25  27
BRANCH  25  33
ATOM     33  O   UNL     1      35.219 -17.414 -20.863  0.00  0.00    -0.382 OA
ATOM     34  H   UNL     1      35.047 -16.460 -20.838  0.00  0.00    +0.211 HD
ENDBRANCH  25  33
ENDBRANCH  24  25
ENDBRANCH  21  24
ENDBRANCH  20  21
ENDBRANCH  19  20
ENDBRANCH   1  19
TORSDOF 11
ENDMDL
MODEL 6
REMARK VINA RESULT:     -10.8      6.953     11.805
REMARK  Name = 9887812
REMARK  11 active torsions:
REMARK  status: ('A' for Active; 'I' for Inactive)
REMARK    1  A    between atoms: N_1  and  C_3
REMARK    2  A    between atoms: N_1  and  C_19
REMARK    3  A    between atoms: C_4  and  C_9
REMARK    4  A    between atoms: C_12  and  C_16
REMARK    5  A    between atoms: C_16  and  O_17
REMARK    6  A    between atoms: C_19  and  C_20
REMARK    7  A    between atoms: C_20  and  N_21
REMARK    8  A    between atoms: N_21  and  C_24
REMARK    9  A    between atoms: C_24  and  C_25
REMARK   10  A    between atoms: C_25  and  C_27
REMARK   11  A    between atoms: C_25  and  O_33
REMARK                            x       y       z     vdW  Elec       q    Type
REMARK                         _______ _______ _______ _____ _____    ______ ____
ROOT
ATOM      1  N   UNL     1      34.847 -14.896 -21.692  0.00  0.00    -0.335 N 
ATOM      2  H   UNL     1      35.427 -14.634 -20.942  0.00  0.00    +0.147 HD
ENDROOT
BRANCH   1   3
ATOM      3  C   UNL     1      34.980 -16.195 -22.225  0.00  0.00    +0.045 C 
ATOM      4  C   UNL     1      35.332 -18.563 -21.903  0.00  0.00    +0.001 C 
ATOM      5  C   UNL     1      35.200 -17.278 -21.375  0.00  0.00    +0.014 C 
ATOM      6  C   UNL     1      34.893 -16.396 -23.603  0.00  0.00    +0.014 C 
ATOM      7  C   UNL     1      35.245 -18.765 -23.280  0.00  0.00    +0.000 C 
ATOM      8  C   UNL     1      35.026 -17.680 -24.130  0.00  0.00    +0.001 C 
BRANCH   4   9
ATOM      9  C   UNL     1      35.561 -19.687 -21.021  0.00  0.00    +0.000 C 
ATOM     10  C   UNL     1      34.493 -20.494 -20.627  0.00  0.00    +0.006 C 
ATOM     11  C   UNL     1      36.849 -19.963 -20.564  0.00  0.00    +0.000 C 
ATOM     12  C   UNL     1      34.714 -21.576 -19.776  0.00  0.00    +0.075 C 
ATOM     13  C   UNL     1      37.070 -21.046 -19.713  0.00  0.00    +0.000 C 
ATOM     14  C   UNL     1      36.002 -21.853 -19.319  0.00  0.00    +0.006 C 
BRANCH  12  16
ATOM     15  O   UNL     1      32.509 -22.013 -18.955  0.00  0.00    -0.245 OA
ATOM     16  C   UNL     1      33.602 -22.419 -19.366  0.00  0.00    +0.338 C 
BRANCH  16  17
ATOM     17  O   UNL     1      33.884 -23.746 -19.479  0.00  0.00    -0.477 OA
ATOM     18  H   UNL     1      34.752 -24.056 -19.312  0.00  0.00    +0.295 HD
ENDBRANCH  16  17
ENDBRANCH  12  16
ENDBRANCH   4   9
ENDBRANCH   1   3
BRANCH   1  19
ATOM     19  C   UNL     1      33.904 -13.943 -22.193  0.00  0.00    +0.064 C 
BRANCH  19  20
ATOM     20  C   UNL     1      32.783 -13.752 -21.180  0.00  0.00    -0.060 C 
BRANCH  20  21
ATOM     21  N   UNL     1      31.738 -12.901 -21.734  0.00  0.00    +0.387 N 
ATOM     22  H   UNL     1      31.818 -12.894 -22.751  0.00  0.00    -0.084 HD
ATOM     23  H   UNL     1      30.831 -13.271 -21.451  0.00  0.00    -0.084 HD
BRANCH  21  24
ATOM     24  C   UNL     1      31.861 -11.537 -21.237  0.00  0.00    -0.047 C 
BRANCH  24  25
ATOM     25  C   UNL     1      31.827 -10.531 -22.394  0.00  0.00    +0.112 C 
BRANCH  25  27
ATOM     26 CL   UNL     1      31.135  -5.460 -23.317  0.00  0.00    -0.082 Cl
ATOM     27  C   UNL     1      31.877  -9.105 -21.889  0.00  0.00    +0.003 C 
ATOM     28  C   UNL     1      31.524  -8.073 -22.741  0.00  0.00    +0.009 C 
ATOM     29  C   UNL     1      32.273  -8.864 -20.585  0.00  0.00    -0.002 C 
ATOM     30  C   UNL     1      31.569  -6.759 -22.275  0.00  0.00    +0.057 C 
ATOM     31  C   UNL     1      32.319  -7.551 -20.119  0.00  0.00    +0.001 C 
ATOM     32  C   UNL     1      31.967  -6.498 -20.963  0.00  0.00    +0.011 C 
ENDBRANCH  25  27
BRANCH  25  33
ATOM     33  O   UNL     1      32.940 -10.736 -23.261  0.00  0.00    -0.382 OA
ATOM     34  H   UNL     1      33.542  -9.977 -23.201  0.00  0.00    +0.211 HD
ENDBRANCH  25  33
ENDBRANCH  24  25
ENDBRANCH  21  24
ENDBRANCH  20  21
ENDBRANCH  19  20
ENDBRANCH   1  19
TORSDOF 11
ENDMDL
MODEL 7
REMARK VINA RESULT:     -10.7      3.025     10.654
REMARK  Name = 9887812
REMARK  11 active torsions:
REMARK  status: ('A' for Active; 'I' for Inactive)
REMARK    1  A    between atoms: N_1  and  C_3
REMARK    2  A    between atoms: N_1  and  C_19
REMARK    3  A    between atoms: C_4  and  C_9
REMARK    4  A    between atoms: C_12  and  C_16
REMARK    5  A    between atoms: C_16  and  O_17
REMARK    6  A    between atoms: C_19  and  C_20
REMARK    7  A    between atoms: C_20  and  N_21
REMARK    8  A    between atoms: N_21  and  C_24
REMARK    9  A    between atoms: C_24  and  C_25
REMARK   10  A    between atoms: C_25  and  C_27
REMARK   11  A    between atoms: C_25  and  O_33
REMARK                            x       y       z     vdW  Elec       q    Type
REMARK                         _______ _______ _______ _____ _____    ______ ____
ROOT
ATOM      1  N   UNL     1      33.048 -22.804 -18.547  0.00  0.00    -0.335 N 
ATOM      2  H   UNL     1      32.270 -22.920 -19.139  0.00  0.00    +0.147 HD
ENDROOT
BRANCH   1   3
ATOM      3  C   UNL     1      32.916 -23.148 -17.186  0.00  0.00    +0.045 C 
ATOM      4  C   UNL     1      33.913 -23.830 -15.094  0.00  0.00    +0.001 C 
ATOM      5  C   UNL     1      34.044 -23.490 -16.441  0.00  0.00    +0.014 C 
ATOM      6  C   UNL     1      31.657 -23.147 -16.585  0.00  0.00    +0.014 C 
ATOM      7  C   UNL     1      32.654 -23.830 -14.493  0.00  0.00    +0.000 C 
ATOM      8  C   UNL     1      31.526 -23.488 -15.239  0.00  0.00    +0.001 C 
BRANCH   4   9
ATOM      9  C   UNL     1      35.084 -24.185 -14.321  0.00  0.00    +0.000 C 
ATOM     10  C   UNL     1      35.016 -24.221 -12.928  0.00  0.00    +0.006 C 
ATOM     11  C   UNL     1      36.280 -24.492 -14.969  0.00  0.00    +0.000 C 
ATOM     12  C   UNL     1      36.145 -24.563 -12.184  0.00  0.00    +0.075 C 
ATOM     13  C   UNL     1      37.409 -24.833 -14.225  0.00  0.00    +0.000 C 
ATOM     14  C   UNL     1      37.341 -24.869 -12.831  0.00  0.00    +0.006 C 
BRANCH  12  16
ATOM     15  O   UNL     1      36.688 -23.851  -9.965  0.00  0.00    -0.245 OA
ATOM     16  C   UNL     1      36.075 -24.601 -10.731  0.00  0.00    +0.338 C 
BRANCH  16  17
ATOM     17  O   UNL     1      35.240 -25.576 -10.276  0.00  0.00    -0.477 OA
ATOM     18  H   UNL     1      34.392 -25.351  -9.949  0.00  0.00    +0.295 HD
ENDBRANCH  16  17
ENDBRANCH  12  16
ENDBRANCH   4   9
ENDBRANCH   1   3
BRANCH   1  19
ATOM     19  C   UNL     1      34.262 -22.295 -19.107  0.00  0.00    +0.064 C 
BRANCH  19  20
ATOM     20  C   UNL     1      33.942 -21.200 -20.115  0.00  0.00    -0.060 C 
BRANCH  20  21
ATOM     21  N   UNL     1      35.126 -20.392 -20.380  0.00  0.00    +0.387 N 
ATOM     22  H   UNL     1      35.151 -19.612 -19.723  0.00  0.00    -0.084 HD
ATOM     23  H   UNL     1      35.953 -20.978 -20.267  0.00  0.00    -0.084 HD
BRANCH  21  24
ATOM     24  C   UNL     1      35.105 -19.870 -21.739  0.00  0.00    -0.047 C 
BRANCH  24  25
ATOM     25  C   UNL     1      35.925 -18.577 -21.839  0.00  0.00    +0.112 C 
BRANCH  25  27
ATOM     26 CL   UNL     1      34.310 -13.749 -22.895  0.00  0.00    -0.082 Cl
ATOM     27  C   UNL     1      35.308 -17.606 -22.821  0.00  0.00    +0.003 C 
ATOM     28  C   UNL     1      35.121 -16.288 -22.441  0.00  0.00    +0.009 C 
ATOM     29  C   UNL     1      34.947 -18.054 -24.080  0.00  0.00    -0.002 C 
ATOM     30  C   UNL     1      34.553 -15.392 -23.347  0.00  0.00    +0.057 C 
ATOM     31  C   UNL     1      34.379 -17.159 -24.985  0.00  0.00    +0.001 C 
ATOM     32  C   UNL     1      34.182 -15.828 -24.619  0.00  0.00    +0.011 C 
ENDBRANCH  25  27
BRANCH  25  33
ATOM     33  O   UNL     1      35.998 -17.939 -20.566  0.00  0.00    -0.382 OA
ATOM     34  H   UNL     1      36.438 -18.528 -19.933  0.00  0.00    +0.211 HD
ENDBRANCH  25  33
ENDBRANCH  24  25
ENDBRANCH  21  24
ENDBRANCH  20  21
ENDBRANCH  19  20
ENDBRANCH   1  19
TORSDOF 11
ENDMDL
MODEL 8
REMARK VINA RESULT:     -10.6      5.712     11.346
REMARK  Name = 9887812
REMARK  11 active torsions:
REMARK  status: ('A' for Active; 'I' for Inactive)
REMARK    1  A    between atoms: N_1  and  C_3
REMARK    2  A    between atoms: N_1  and  C_19
REMARK    3  A    between atoms: C_4  and  C_9
REMARK    4  A    between atoms: C_12  and  C_16
REMARK    5  A    between atoms: C_16  and  O_17
REMARK    6  A    between atoms: C_19  and  C_20
REMARK    7  A    between atoms: C_20  and  N_21
REMARK    8  A    between atoms: N_21  and  C_24
REMARK    9  A    between atoms: C_24  and  C_25
REMARK   10  A    between atoms: C_25  and  C_27
REMARK   11  A    between atoms: C_25  and  O_33
REMARK                            x       y       z     vdW  Elec       q    Type
REMARK                         _______ _______ _______ _____ _____    ______ ____
ROOT
ATOM      1  N   UNL     1      34.687 -17.296 -25.150  0.00  0.00    -0.335 N 
ATOM      2  H   UNL     1      35.413 -17.609 -25.735  0.00  0.00    +0.147 HD
ENDROOT
BRANCH   1   3
ATOM      3  C   UNL     1      34.915 -17.247 -23.759  0.00  0.00    +0.045 C 
ATOM      4  C   UNL     1      35.356 -18.376 -21.669  0.00  0.00    +0.001 C 
ATOM      5  C   UNL     1      35.130 -18.425 -23.045  0.00  0.00    +0.014 C 
ATOM      6  C   UNL     1      34.925 -16.019 -23.097  0.00  0.00    +0.014 C 
ATOM      7  C   UNL     1      35.366 -17.148 -21.007  0.00  0.00    +0.000 C 
ATOM      8  C   UNL     1      35.150 -15.969 -21.722  0.00  0.00    +0.001 C 
BRANCH   4   9
ATOM      9  C   UNL     1      35.579 -19.598 -20.929  0.00  0.00    +0.000 C 
ATOM     10  C   UNL     1      34.495 -20.386 -20.540  0.00  0.00    +0.006 C 
ATOM     11  C   UNL     1      36.877 -19.990 -20.605  0.00  0.00    +0.000 C 
ATOM     12  C   UNL     1      34.710 -21.564 -19.826  0.00  0.00    +0.075 C 
ATOM     13  C   UNL     1      37.093 -21.169 -19.890  0.00  0.00    +0.000 C 
ATOM     14  C   UNL     1      36.009 -21.956 -19.501  0.00  0.00    +0.006 C 
BRANCH  12  16
ATOM     15  O   UNL     1      32.475 -21.962 -19.069  0.00  0.00    -0.245 OA
ATOM     16  C   UNL     1      33.581 -22.387 -19.421  0.00  0.00    +0.338 C 
BRANCH  16  17
ATOM     17  O   UNL     1      33.864 -23.718 -19.465  0.00  0.00    -0.477 OA
ATOM     18  H   UNL     1      34.749 -24.005 -19.569  0.00  0.00    +0.295 HD
ENDBRANCH  16  17
ENDBRANCH  12  16
ENDBRANCH   4   9
ENDBRANCH   1   3
BRANCH   1  19
ATOM     19  C   UNL     1      33.446 -16.908 -25.748  0.00  0.00    +0.064 C 
BRANCH  19  20
ATOM     20  C   UNL     1      33.550 -15.477 -26.258  0.00  0.00    -0.060 C 
BRANCH  20  21
ATOM     21  N   UNL     1      32.698 -14.594 -25.469  0.00  0.00    +0.387 N 
ATOM     22  H   UNL     1      31.762 -14.585 -25.874  0.00  0.00    -0.084 HD
ATOM     23  H   UNL     1      32.667 -14.942 -24.510  0.00  0.00    -0.084 HD
BRANCH  21  24
ATOM     24  C   UNL     1      33.227 -13.237 -25.455  0.00  0.00    -0.047 C 
BRANCH  24  25
ATOM     25  C   UNL     1      33.665 -12.837 -24.041  0.00  0.00    +0.112 C 
BRANCH  25  27
ATOM     26 CL   UNL     1      31.488  -8.431 -22.343  0.00  0.00    -0.082 Cl
ATOM     27  C   UNL     1      33.737 -11.334 -23.889  0.00  0.00    +0.003 C 
ATOM     28  C   UNL     1      32.699 -10.667 -23.261  0.00  0.00    +0.009 C 
ATOM     29  C   UNL     1      34.841 -10.657 -24.378  0.00  0.00    -0.002 C 
ATOM     30  C   UNL     1      32.767  -9.280 -23.120  0.00  0.00    +0.057 C 
ATOM     31  C   UNL     1      34.909  -9.272 -24.238  0.00  0.00    +0.001 C 
ATOM     32  C   UNL     1      33.872  -8.583 -23.609  0.00  0.00    +0.011 C 
ENDBRANCH  25  27
BRANCH  25  33
ATOM     33  O   UNL     1      32.741 -13.339 -23.077  0.00  0.00    -0.382 OA
ATOM     34  H   UNL     1      33.005 -13.044 -22.191  0.00  0.00    +0.211 HD
ENDBRANCH  25  33
ENDBRANCH  24  25
ENDBRANCH  21  24
ENDBRANCH  20  21
ENDBRANCH  19  20
ENDBRANCH   1  19
TORSDOF 11
ENDMDL
MODEL 9
REMARK VINA RESULT:     -10.4      3.279     10.364
REMARK  Name = 9887812
REMARK  11 active torsions:
REMARK  status: ('A' for Active; 'I' for Inactive)
REMARK    1  A    between atoms: N_1  and  C_3
REMARK    2  A    between atoms: N_1  and  C_19
REMARK    3  A    between atoms: C_4  and  C_9
REMARK    4  A    between atoms: C_12  and  C_16
REMARK    5  A    between atoms: C_16  and  O_17
REMARK    6  A    between atoms: C_19  and  C_20
REMARK    7  A    between atoms: C_20  and  N_21
REMARK    8  A    between atoms: N_21  and  C_24
REMARK    9  A    between atoms: C_24  and  C_25
REMARK   10  A    between atoms: C_25  and  C_27
REMARK   11  A    between atoms: C_25  and  O_33
REMARK                            x       y       z     vdW  Elec       q    Type
REMARK                         _______ _______ _______ _____ _____    ______ ____
ROOT
ATOM      1  N   UNL     1      33.445 -23.235 -18.455  0.00  0.00    -0.335 N 
ATOM      2  H   UNL     1      32.816 -23.615 -19.109  0.00  0.00    +0.147 HD
ENDROOT
BRANCH   1   3
ATOM      3  C   UNL     1      33.196 -23.442 -17.082  0.00  0.00    +0.045 C 
ATOM      4  C   UNL     1      33.973 -24.080 -14.886  0.00  0.00    +0.001 C 
ATOM      5  C   UNL     1      34.222 -23.876 -16.244  0.00  0.00    +0.014 C 
ATOM      6  C   UNL     1      31.921 -23.213 -16.563  0.00  0.00    +0.014 C 
ATOM      7  C   UNL     1      32.699 -23.852 -14.367  0.00  0.00    +0.000 C 
ATOM      8  C   UNL     1      31.672 -23.418 -15.207  0.00  0.00    +0.001 C 
BRANCH   4   9
ATOM      9  C   UNL     1      35.038 -24.531 -14.016  0.00  0.00    +0.000 C 
ATOM     10  C   UNL     1      36.216 -25.043 -14.562  0.00  0.00    +0.006 C 
ATOM     11  C   UNL     1      34.887 -24.453 -12.632  0.00  0.00    +0.000 C 
ATOM     12  C   UNL     1      37.241 -25.478 -13.723  0.00  0.00    +0.075 C 
ATOM     13  C   UNL     1      35.913 -24.887 -11.793  0.00  0.00    +0.000 C 
ATOM     14  C   UNL     1      37.091 -25.400 -12.338  0.00  0.00    +0.006 C 
BRANCH  12  16
ATOM     15  O   UNL     1      38.605 -27.142 -14.769  0.00  0.00    -0.245 OA
ATOM     16  C   UNL     1      38.469 -26.011 -14.291  0.00  0.00    +0.338 C 
BRANCH  16  17
ATOM     17  O   UNL     1      39.496 -25.117 -14.245  0.00  0.00    -0.477 OA
ATOM     18  H   UNL     1      39.357 -24.264 -13.885  0.00  0.00    +0.295 HD
ENDBRANCH  16  17
ENDBRANCH  12  16
ENDBRANCH   4   9
ENDBRANCH   1   3
BRANCH   1  19
ATOM     19  C   UNL     1      34.575 -22.501 -18.937  0.00  0.00    +0.064 C 
BRANCH  19  20
ATOM     20  C   UNL     1      34.107 -21.425 -19.909  0.00  0.00    -0.060 C 
BRANCH  20  21
ATOM     21  N   UNL     1      35.211 -20.534 -20.247  0.00  0.00    +0.387 N 
ATOM     22  H   UNL     1      35.204 -19.738 -19.610  0.00  0.00    -0.084 HD
ATOM     23  H   UNL     1      36.085 -21.051 -20.161  0.00  0.00    -0.084 HD
BRANCH  21  24
ATOM     24  C   UNL     1      35.087 -20.052 -21.616  0.00  0.00    -0.047 C 
BRANCH  24  25
ATOM     25  C   UNL     1      35.968 -18.816 -21.839  0.00  0.00    +0.112 C 
BRANCH  25  27
ATOM     26 CL   UNL     1      34.436 -13.994 -23.041  0.00  0.00    -0.082 Cl
ATOM     27  C   UNL     1      35.348 -17.868 -22.842  0.00  0.00    +0.003 C 
ATOM     28  C   UNL     1      35.201 -16.533 -22.509  0.00  0.00    +0.009 C 
ATOM     29  C   UNL     1      34.943 -18.356 -24.073  0.00  0.00    -0.002 C 
ATOM     30  C   UNL     1      34.629 -15.659 -23.434  0.00  0.00    +0.057 C 
ATOM     31  C   UNL     1      34.371 -17.483 -24.997  0.00  0.00    +0.001 C 
ATOM     32  C   UNL     1      34.215 -16.134 -24.678  0.00  0.00    +0.011 C 
ENDBRANCH  25  27
BRANCH  25  33
ATOM     33  O   UNL     1      36.151 -18.111 -20.613  0.00  0.00    -0.382 OA
ATOM     34  H   UNL     1      35.783 -17.217 -20.696  0.00  0.00    +0.211 HD
ENDBRANCH  25  33
ENDBRANCH  24  25
ENDBRANCH  21  24
ENDBRANCH  20  21
ENDBRANCH  19  20
ENDBRANCH   1  19
TORSDOF 11
ENDMDL
