MODEL 1
REMARK VINA RESULT:     -11.5      0.000      0.000
REMARK  Name = 59473233
REMARK  3 active torsions:
REMARK  status: ('A' for Active; 'I' for Inactive)
REMARK    1  A    between atoms: N_1  and  C_25
REMARK    2  A    between atoms: C_7  and  C_14
REMARK    3  A    between atoms: C_22  and  N_29
REMARK                            x       y       z     vdW  Elec       q    Type
REMARK                         _______ _______ _______ _____ _____    ______ ____
ROOT
ATOM      1  N   UNL     1      36.559 -23.180 -16.515  0.00  0.00    -0.286 N 
ATOM      2  N   UNL     1      35.269 -24.038 -13.154  0.00  0.00    -0.260 N 
ATOM      3  N   UNL     1      34.399 -23.635 -15.751  0.00  0.00    -0.387 NA
ATOM      4  N   UNL     1      37.392 -23.637 -13.708  0.00  0.00    -0.224 NA
ATOM      5  C   UNL     1      35.687 -23.507 -15.502  0.00  0.00    +0.216 C 
ATOM      6  C   UNL     1      36.157 -23.718 -14.147  0.00  0.00    +0.180 C 
ATOM      7  C   UNL     1      33.523 -23.968 -14.717  0.00  0.00    +0.131 C 
ATOM      8  C   UNL     1      33.925 -24.164 -13.441  0.00  0.00    +0.156 C 
ATOM      9  C   UNL     1      35.986 -24.170 -11.998  0.00  0.00    +0.088 C 
ATOM     10  C   UNL     1      37.291 -23.918 -12.365  0.00  0.00    +0.117 C 
ATOM     11  H   UNL     1      37.478 -23.522 -16.434  0.00  0.00    +0.155 HD
ENDROOT
BRANCH   7  14
ATOM     12  N   UNL     1      29.378 -22.788 -17.243  0.00  0.00    -0.236 N 
ATOM     13  N   UNL     1      28.104 -23.212 -17.219  0.00  0.00    -0.180 NA
ATOM     14  C   UNL     1      32.088 -24.084 -15.058  0.00  0.00    +0.028 C 
ATOM     15  C   UNL     1      30.195 -23.416 -16.341  0.00  0.00    +0.067 C 
ATOM     16  C   UNL     1      31.554 -23.265 -16.059  0.00  0.00    +0.018 C 
ATOM     17  C   UNL     1      29.379 -24.326 -15.679  0.00  0.00    +0.035 C 
ATOM     18  C   UNL     1      31.291 -25.005 -14.376  0.00  0.00    +0.002 C 
ATOM     19  C   UNL     1      29.929 -25.141 -14.675  0.00  0.00    +0.003 C 
ATOM     20  C   UNL     1      28.108 -24.147 -16.267  0.00  0.00    +0.119 C 
ATOM     21  H   UNL     1      29.696 -22.085 -17.854  0.00  0.00    +0.174 HD
ENDBRANCH   7  14
BRANCH   1  25
ATOM     22  C   UNL     1      35.705 -20.887 -19.907  0.00  0.00    +0.048 C 
ATOM     23  C   UNL     1      36.970 -20.824 -19.322  0.00  0.00    +0.016 C 
ATOM     24  C   UNL     1      34.725 -21.715 -19.359  0.00  0.00    +0.016 C 
ATOM     25  C   UNL     1      36.274 -22.415 -17.643  0.00  0.00    +0.050 C 
ATOM     26  C   UNL     1      37.255 -21.588 -18.190  0.00  0.00    +0.016 C 
ATOM     27  C   UNL     1      35.009 -22.479 -18.228  0.00  0.00    +0.016 C 
BRANCH  22  29
ATOM     28  O   UNL     1      34.773 -18.375 -23.146  0.00  0.00    -0.350 OA
ATOM     29  N   UNL     1      35.420 -20.121 -21.041  0.00  0.00    -0.303 N 
ATOM     30  C   UNL     1      36.241 -18.929 -21.297  0.00  0.00    +0.123 C 
ATOM     31  C   UNL     1      34.047 -20.055 -21.554  0.00  0.00    +0.123 C 
ATOM     32  C   UNL     1      36.139 -18.541 -22.767  0.00  0.00    +0.164 C 
ATOM     33  C   UNL     1      34.062 -19.605 -23.011  0.00  0.00    +0.164 C 
ENDBRANCH  22  29
ENDBRANCH   1  25
TORSDOF 3
ENDMDL
MODEL 2
REMARK VINA RESULT:      -9.5     12.698     16.270
REMARK  Name = 59473233
REMARK  3 active torsions:
REMARK  status: ('A' for Active; 'I' for Inactive)
REMARK    1  A    between atoms: N_1  and  C_25
REMARK    2  A    between atoms: C_7  and  C_14
REMARK    3  A    between atoms: C_22  and  N_29
REMARK                            x       y       z     vdW  Elec       q    Type
REMARK                         _______ _______ _______ _____ _____    ______ ____
ROOT
ATOM      1  N   UNL     1      33.386  -7.226 -22.264  0.00  0.00    -0.286 N 
ATOM      2  N   UNL     1      31.970 -10.310 -20.786  0.00  0.00    -0.260 N 
ATOM      3  N   UNL     1      33.230  -9.410 -23.081  0.00  0.00    -0.387 NA
ATOM      4  N   UNL     1      32.039  -8.289 -19.847  0.00  0.00    -0.224 NA
ATOM      5  C   UNL     1      33.004  -8.540 -22.116  0.00  0.00    +0.216 C 
ATOM      6  C   UNL     1      32.347  -8.999 -20.908  0.00  0.00    +0.180 C 
ATOM      7  C   UNL     1      32.839 -10.739 -22.921  0.00  0.00    +0.131 C 
ATOM      8  C   UNL     1      32.218 -11.200 -21.812  0.00  0.00    +0.156 C 
ATOM      9  C   UNL     1      31.379 -10.449 -19.562  0.00  0.00    +0.088 C 
ATOM     10  C   UNL     1      31.433  -9.190 -19.003  0.00  0.00    +0.117 C 
ATOM     11  H   UNL     1      33.625  -6.741 -21.441  0.00  0.00    +0.155 HD
ENDROOT
BRANCH   7  14
ATOM     12  N   UNL     1      33.075 -15.216 -25.124  0.00  0.00    -0.236 N 
ATOM     13  N   UNL     1      33.432 -15.652 -26.344  0.00  0.00    -0.180 NA
ATOM     14  C   UNL     1      33.111 -11.662 -24.045  0.00  0.00    +0.028 C 
ATOM     15  C   UNL     1      33.172 -13.861 -24.962  0.00  0.00    +0.067 C 
ATOM     16  C   UNL     1      32.901 -13.035 -23.869  0.00  0.00    +0.018 C 
ATOM     17  C   UNL     1      33.630 -13.378 -26.182  0.00  0.00    +0.035 C 
ATOM     18  C   UNL     1      33.572 -11.151 -25.259  0.00  0.00    +0.002 C 
ATOM     19  C   UNL     1      33.837 -11.997 -26.343  0.00  0.00    +0.003 C 
ATOM     20  C   UNL     1      33.769 -14.531 -26.985  0.00  0.00    +0.119 C 
ATOM     21  H   UNL     1      32.771 -15.820 -24.409  0.00  0.00    +0.174 HD
ENDBRANCH   7  14
BRANCH   1  25
ATOM     22  C   UNL     1      33.642  -5.080 -25.843  0.00  0.00    +0.048 C 
ATOM     23  C   UNL     1      32.453  -5.079 -25.113  0.00  0.00    +0.016 C 
ATOM     24  C   UNL     1      34.744  -5.797 -25.379  0.00  0.00    +0.016 C 
ATOM     25  C   UNL     1      33.471  -6.513 -23.456  0.00  0.00    +0.050 C 
ATOM     26  C   UNL     1      32.367  -5.796 -23.919  0.00  0.00    +0.016 C 
ATOM     27  C   UNL     1      34.659  -6.514 -24.187  0.00  0.00    +0.016 C 
BRANCH  22  29
ATOM     28  O   UNL     1      34.082  -2.751 -29.315  0.00  0.00    -0.350 OA
ATOM     29  N   UNL     1      33.727  -4.361 -27.040  0.00  0.00    -0.303 N 
ATOM     30  C   UNL     1      35.004  -4.373 -27.766  0.00  0.00    +0.123 C 
ATOM     31  C   UNL     1      32.911  -3.156 -27.230  0.00  0.00    +0.123 C 
ATOM     32  C   UNL     1      34.770  -3.998 -29.225  0.00  0.00    +0.164 C 
ATOM     33  C   UNL     1      32.790  -2.846 -28.717  0.00  0.00    +0.164 C 
ENDBRANCH  22  29
ENDBRANCH   1  25
TORSDOF 3
ENDMDL
