MODEL 1
REMARK VINA RESULT:     -10.1      0.000      0.000
REMARK  Name = 11653652
REMARK  5 active torsions:
REMARK  status: ('A' for Active; 'I' for Inactive)
REMARK    1  A    between atoms: N_1  and  C_19
REMARK    2  A    between atoms: C_4  and  C_7
REMARK    3  A    between atoms: C_5  and  C_27
REMARK    4  A    between atoms: N_6  and  C_13
REMARK    5  A    between atoms: N_6  and  O_16
REMARK                            x       y       z     vdW  Elec       q    Type
REMARK                         _______ _______ _______ _____ _____    ______ ____
ROOT
ATOM      1  N   UNL     1      35.418 -24.746 -14.997  0.00  0.00    -0.212 N 
ATOM      2  N   UNL     1      34.122 -24.662 -14.653  0.00  0.00    -0.178 NA
ATOM      3  C   UNL     1      35.734 -24.059 -16.133  0.00  0.00    +0.085 C 
ATOM      4  C   UNL     1      34.562 -23.489 -16.558  0.00  0.00    +0.032 C 
ATOM      5  C   UNL     1      33.603 -23.891 -15.613  0.00  0.00    +0.100 C 
ENDROOT
BRANCH   4   6
ATOM      6  C   UNL     1      34.462 -22.672 -17.736  0.00  0.00    -0.015 C 
ATOM      7  C   UNL     1      35.498 -21.356 -19.444  0.00  0.00    -0.016 C 
ATOM      8  C   UNL     1      36.599 -20.692 -20.213  0.00  0.00    -0.002 C 
ATOM      9  C   UNL     1      34.240 -21.116 -19.985  0.00  0.00    +0.016 C 
ATOM     10  C   UNL     1      35.873 -19.967 -21.359  0.00  0.00    +0.021 C 
ATOM     11  C   UNL     1      35.621 -22.141 -18.310  0.00  0.00    +0.053 C 
ATOM     12  C   UNL     1      34.413 -20.275 -21.151  0.00  0.00    +0.107 C 
ATOM     13  C   UNL     1      33.199 -22.417 -18.297  0.00  0.00    -0.004 C 
ATOM     14  C   UNL     1      33.077 -21.627 -19.440  0.00  0.00    +0.001 C 
BRANCH  12  15
ATOM     15  N   UNL     1      33.489 -19.829 -21.930  0.00  0.00    -0.135 NA
BRANCH  15  16
ATOM     16  O   UNL     1      34.088 -19.364 -23.104  0.00  0.00    -0.265 OA
ATOM     17  H   UNL     1      34.913 -18.922 -23.066  0.00  0.00    +0.247 HD
ENDBRANCH  15  16
ENDBRANCH  12  15
ENDBRANCH   4   6
BRANCH   1  19
ATOM     18  N   UNL     1      38.988 -26.223 -13.141  0.00  0.00    +0.384 N 
ATOM     19  C   UNL     1      36.342 -25.527 -14.167  0.00  0.00    +0.092 C 
ATOM     20  C   UNL     1      37.358 -26.325 -14.999  0.00  0.00    -0.002 C 
ATOM     21  C   UNL     1      37.063 -24.669 -13.115  0.00  0.00    -0.002 C 
ATOM     22  C   UNL     1      38.312 -27.103 -14.094  0.00  0.00    -0.080 C 
ATOM     23  C   UNL     1      38.029 -25.517 -12.288  0.00  0.00    -0.080 C 
ATOM     24  H   UNL     1      39.539 -25.537 -13.657  0.00  0.00    -0.085 HD
ATOM     25  H   UNL     1      39.585 -26.794 -12.545  0.00  0.00    -0.085 HD
ENDBRANCH   1  19
BRANCH   5  27
ATOM     26  N   UNL     1      29.485 -22.923 -15.563  0.00  0.00    -0.242 NA
ATOM     27  C   UNL     1      32.200 -23.561 -15.596  0.00  0.00    +0.022 C 
ATOM     28  C   UNL     1      31.404 -23.865 -16.691  0.00  0.00    +0.022 C 
ATOM     29  C   UNL     1      31.649 -22.939 -14.484  0.00  0.00    +0.022 C 
ATOM     30  C   UNL     1      30.062 -23.528 -16.626  0.00  0.00    +0.099 C 
ATOM     31  C   UNL     1      30.296 -22.643 -14.518  0.00  0.00    +0.099 C 
ENDBRANCH   5  27
TORSDOF 5
ENDMDL
MODEL 2
REMARK VINA RESULT:      -9.8      3.097      7.654
REMARK  Name = 11653652
REMARK  5 active torsions:
REMARK  status: ('A' for Active; 'I' for Inactive)
REMARK    1  A    between atoms: N_1  and  C_19
REMARK    2  A    between atoms: C_4  and  C_7
REMARK    3  A    between atoms: C_5  and  C_27
REMARK    4  A    between atoms: N_6  and  C_13
REMARK    5  A    between atoms: N_6  and  O_16
REMARK                            x       y       z     vdW  Elec       q    Type
REMARK                         _______ _______ _______ _____ _____    ______ ____
ROOT
ATOM      1  N   UNL     1      35.457 -21.557 -19.249  0.00  0.00    -0.212 N 
ATOM      2  N   UNL     1      36.425 -21.790 -18.347  0.00  0.00    -0.178 NA
ATOM      3  C   UNL     1      34.228 -22.013 -18.871  0.00  0.00    +0.085 C 
ATOM      4  C   UNL     1      34.408 -22.583 -17.637  0.00  0.00    +0.032 C 
ATOM      5  C   UNL     1      35.777 -22.419 -17.362  0.00  0.00    +0.100 C 
ENDROOT
BRANCH   4   6
ATOM      6  C   UNL     1      33.346 -23.187 -16.883  0.00  0.00    -0.015 C 
ATOM      7  C   UNL     1      31.012 -23.445 -16.422  0.00  0.00    -0.016 C 
ATOM      8  C   UNL     1      29.536 -23.227 -16.554  0.00  0.00    -0.002 C 
ATOM      9  C   UNL     1      31.337 -24.359 -15.425  0.00  0.00    +0.016 C 
ATOM     10  C   UNL     1      28.924 -24.145 -15.482  0.00  0.00    +0.021 C 
ATOM     11  C   UNL     1      32.018 -22.849 -17.164  0.00  0.00    +0.053 C 
ATOM     12  C   UNL     1      30.101 -24.814 -14.823  0.00  0.00    +0.107 C 
ATOM     13  C   UNL     1      33.654 -24.113 -15.871  0.00  0.00    -0.004 C 
ATOM     14  C   UNL     1      32.639 -24.713 -15.125  0.00  0.00    +0.001 C 
BRANCH  12  15
ATOM     15  N   UNL     1      29.973 -25.663 -13.863  0.00  0.00    -0.135 NA
BRANCH  15  16
ATOM     16  O   UNL     1      30.415 -25.063 -12.681  0.00  0.00    -0.265 OA
ATOM     17  H   UNL     1      31.210 -25.351 -12.278  0.00  0.00    +0.247 HD
ENDBRANCH  15  16
ENDBRANCH  12  15
ENDBRANCH   4   6
BRANCH   1  19
ATOM     18  N   UNL     1      36.042 -18.495 -22.191  0.00  0.00    +0.384 N 
ATOM     19  C   UNL     1      35.782 -20.866 -20.501  0.00  0.00    +0.092 C 
ATOM     20  C   UNL     1      34.563 -20.170 -21.129  0.00  0.00    -0.002 C 
ATOM     21  C   UNL     1      36.946 -19.875 -20.347  0.00  0.00    -0.002 C 
ATOM     22  C   UNL     1      34.952 -19.445 -22.416  0.00  0.00    -0.080 C 
ATOM     23  C   UNL     1      37.236 -19.162 -21.668  0.00  0.00    -0.080 C 
ATOM     24  H   UNL     1      35.734 -17.792 -21.518  0.00  0.00    -0.085 HD
ATOM     25  H   UNL     1      36.281 -18.065 -23.083  0.00  0.00    -0.085 HD
ENDBRANCH   1  19
BRANCH   5  27
ATOM     26  N   UNL     1      37.867 -23.670 -13.903  0.00  0.00    -0.242 NA
ATOM     27  C   UNL     1      36.489 -22.845 -16.184  0.00  0.00    +0.022 C 
ATOM     28  C   UNL     1      35.923 -22.666 -14.930  0.00  0.00    +0.022 C 
ATOM     29  C   UNL     1      37.740 -23.434 -16.306  0.00  0.00    +0.022 C 
ATOM     30  C   UNL     1      36.647 -23.092 -13.828  0.00  0.00    +0.099 C 
ATOM     31  C   UNL     1      38.383 -23.826 -15.143  0.00  0.00    +0.099 C 
ENDBRANCH   5  27
TORSDOF 5
ENDMDL
MODEL 3
REMARK VINA RESULT:      -9.7      3.010      7.526
REMARK  Name = 11653652
REMARK  5 active torsions:
REMARK  status: ('A' for Active; 'I' for Inactive)
REMARK    1  A    between atoms: N_1  and  C_19
REMARK    2  A    between atoms: C_4  and  C_7
REMARK    3  A    between atoms: C_5  and  C_27
REMARK    4  A    between atoms: N_6  and  C_13
REMARK    5  A    between atoms: N_6  and  O_16
REMARK                            x       y       z     vdW  Elec       q    Type
REMARK                         _______ _______ _______ _____ _____    ______ ____
ROOT
ATOM      1  N   UNL     1      35.376 -21.787 -19.038  0.00  0.00    -0.212 N 
ATOM      2  N   UNL     1      36.308 -22.187 -18.156  0.00  0.00    -0.178 NA
ATOM      3  C   UNL     1      34.099 -22.095 -18.669  0.00  0.00    +0.085 C 
ATOM      4  C   UNL     1      34.206 -22.740 -17.465  0.00  0.00    +0.032 C 
ATOM      5  C   UNL     1      35.585 -22.770 -17.195  0.00  0.00    +0.100 C 
ENDROOT
BRANCH   4   6
ATOM      6  C   UNL     1      33.076 -23.235 -16.729  0.00  0.00    -0.015 C 
ATOM      7  C   UNL     1      32.163 -24.286 -14.782  0.00  0.00    -0.016 C 
ATOM      8  C   UNL     1      32.143 -24.939 -13.435  0.00  0.00    -0.002 C 
ATOM      9  C   UNL     1      30.897 -24.170 -15.346  0.00  0.00    +0.016 C 
ATOM     10  C   UNL     1      30.657 -25.242 -13.186  0.00  0.00    +0.021 C 
ATOM     11  C   UNL     1      33.269 -23.816 -15.471  0.00  0.00    +0.053 C 
ATOM     12  C   UNL     1      29.946 -24.738 -14.415  0.00  0.00    +0.107 C 
ATOM     13  C   UNL     1      31.788 -23.128 -17.282  0.00  0.00    -0.004 C 
ATOM     14  C   UNL     1      30.676 -23.600 -16.586  0.00  0.00    +0.001 C 
BRANCH  12  15
ATOM     15  N   UNL     1      28.669 -24.824 -14.566  0.00  0.00    -0.135 NA
BRANCH  15  16
ATOM     16  O   UNL     1      28.277 -26.132 -14.271  0.00  0.00    -0.265 OA
ATOM     17  H   UNL     1      28.832 -26.682 -13.754  0.00  0.00    +0.247 HD
ENDBRANCH  15  16
ENDBRANCH  12  15
ENDBRANCH   4   6
BRANCH   1  19
ATOM     18  N   UNL     1      36.228 -18.699 -21.884  0.00  0.00    +0.384 N 
ATOM     19  C   UNL     1      35.785 -21.088 -20.260  0.00  0.00    +0.092 C 
ATOM     20  C   UNL     1      34.628 -20.320 -20.920  0.00  0.00    -0.002 C 
ATOM     21  C   UNL     1      36.988 -20.159 -20.037  0.00  0.00    -0.002 C 
ATOM     22  C   UNL     1      35.103 -19.589 -22.174  0.00  0.00    -0.080 C 
ATOM     23  C   UNL     1      37.366 -19.435 -21.329  0.00  0.00    -0.080 C 
ATOM     24  H   UNL     1      35.928 -17.995 -21.209  0.00  0.00    -0.085 HD
ATOM     25  H   UNL     1      36.524 -18.263 -22.757  0.00  0.00    -0.085 HD
ENDBRANCH   1  19
BRANCH   5  27
ATOM     26  N   UNL     1      37.504 -24.442 -13.815  0.00  0.00    -0.242 NA
ATOM     27  C   UNL     1      36.239 -23.339 -16.044  0.00  0.00    +0.022 C 
ATOM     28  C   UNL     1      36.146 -24.702 -15.798  0.00  0.00    +0.022 C 
ATOM     29  C   UNL     1      36.960 -22.524 -15.183  0.00  0.00    +0.022 C 
ATOM     30  C   UNL     1      36.791 -25.201 -14.678  0.00  0.00    +0.099 C 
ATOM     31  C   UNL     1      37.570 -23.120 -14.091  0.00  0.00    +0.099 C 
ENDBRANCH   5  27
TORSDOF 5
ENDMDL
MODEL 4
REMARK VINA RESULT:      -9.7      1.132      2.074
REMARK  Name = 11653652
REMARK  5 active torsions:
REMARK  status: ('A' for Active; 'I' for Inactive)
REMARK    1  A    between atoms: N_1  and  C_19
REMARK    2  A    between atoms: C_4  and  C_7
REMARK    3  A    between atoms: C_5  and  C_27
REMARK    4  A    between atoms: N_6  and  C_13
REMARK    5  A    between atoms: N_6  and  O_16
REMARK                            x       y       z     vdW  Elec       q    Type
REMARK                         _______ _______ _______ _____ _____    ______ ____
ROOT
ATOM      1  N   UNL     1      36.677 -23.913 -15.087  0.00  0.00    -0.212 N 
ATOM      2  N   UNL     1      35.379 -24.035 -14.760  0.00  0.00    -0.178 NA
ATOM      3  C   UNL     1      36.890 -23.252 -16.261  0.00  0.00    +0.085 C 
ATOM      4  C   UNL     1      35.646 -22.921 -16.731  0.00  0.00    +0.032 C 
ATOM      5  C   UNL     1      34.753 -23.425 -15.771  0.00  0.00    +0.100 C 
ENDROOT
BRANCH   4   6
ATOM      6  C   UNL     1      35.429 -22.207 -17.959  0.00  0.00    -0.015 C 
ATOM      7  C   UNL     1      33.941 -21.315 -19.608  0.00  0.00    -0.016 C 
ATOM      8  C   UNL     1      32.643 -20.992 -20.279  0.00  0.00    -0.002 C 
ATOM      9  C   UNL     1      35.045 -20.839 -20.307  0.00  0.00    +0.016 C 
ATOM     10  C   UNL     1      33.055 -20.221 -21.544  0.00  0.00    +0.021 C 
ATOM     11  C   UNL     1      34.124 -22.006 -18.421  0.00  0.00    +0.053 C 
ATOM     12  C   UNL     1      34.559 -20.166 -21.493  0.00  0.00    +0.107 C 
ATOM     13  C   UNL     1      36.531 -21.718 -18.681  0.00  0.00    -0.004 C 
ATOM     14  C   UNL     1      36.345 -21.021 -19.875  0.00  0.00    +0.001 C 
BRANCH  12  15
ATOM     15  N   UNL     1      35.266 -19.589 -22.402  0.00  0.00    -0.135 NA
BRANCH  15  16
ATOM     16  O   UNL     1      34.469 -19.412 -23.536  0.00  0.00    -0.265 OA
ATOM     17  H   UNL     1      33.549 -19.262 -23.442  0.00  0.00    +0.247 HD
ENDBRANCH  15  16
ENDBRANCH  12  15
ENDBRANCH   4   6
BRANCH   1  19
ATOM     18  N   UNL     1      39.418 -26.618 -13.207  0.00  0.00    +0.384 N 
ATOM     19  C   UNL     1      37.705 -24.470 -14.201  0.00  0.00    +0.092 C 
ATOM     20  C   UNL     1      37.168 -25.595 -13.302  0.00  0.00    -0.002 C 
ATOM     21  C   UNL     1      38.953 -24.940 -14.965  0.00  0.00    -0.002 C 
ATOM     22  C   UNL     1      38.276 -26.160 -12.415  0.00  0.00    -0.080 C 
ATOM     23  C   UNL     1      39.987 -25.532 -14.007  0.00  0.00    -0.080 C 
ATOM     24  H   UNL     1      39.110 -27.364 -13.832  0.00  0.00    -0.085 HD
ATOM     25  H   UNL     1      40.137 -26.954 -12.567  0.00  0.00    -0.085 HD
ENDBRANCH   1  19
BRANCH   5  27
ATOM     26  N   UNL     1      30.529 -23.187 -15.816  0.00  0.00    -0.242 NA
ATOM     27  C   UNL     1      33.314 -23.344 -15.786  0.00  0.00    +0.022 C 
ATOM     28  C   UNL     1      32.623 -23.090 -14.611  0.00  0.00    +0.022 C 
ATOM     29  C   UNL     1      32.624 -23.521 -16.977  0.00  0.00    +0.022 C 
ATOM     30  C   UNL     1      31.240 -23.021 -14.678  0.00  0.00    +0.099 C 
ATOM     31  C   UNL     1      31.242 -23.434 -16.939  0.00  0.00    +0.099 C 
ENDBRANCH   5  27
TORSDOF 5
ENDMDL
MODEL 5
REMARK VINA RESULT:      -9.5      1.895      5.441
REMARK  Name = 11653652
REMARK  5 active torsions:
REMARK  status: ('A' for Active; 'I' for Inactive)
REMARK    1  A    between atoms: N_1  and  C_19
REMARK    2  A    between atoms: C_4  and  C_7
REMARK    3  A    between atoms: C_5  and  C_27
REMARK    4  A    between atoms: N_6  and  C_13
REMARK    5  A    between atoms: N_6  and  O_16
REMARK                            x       y       z     vdW  Elec       q    Type
REMARK                         _______ _______ _______ _____ _____    ______ ____
ROOT
ATOM      1  N   UNL     1      32.163 -23.883 -16.601  0.00  0.00    -0.212 N 
ATOM      2  N   UNL     1      33.180 -24.227 -15.793  0.00  0.00    -0.178 NA
ATOM      3  C   UNL     1      32.532 -23.084 -17.643  0.00  0.00    +0.085 C 
ATOM      4  C   UNL     1      33.882 -22.894 -17.504  0.00  0.00    +0.032 C 
ATOM      5  C   UNL     1      34.231 -23.618 -16.351  0.00  0.00    +0.100 C 
ENDROOT
BRANCH   4   6
ATOM      6  C   UNL     1      34.667 -22.101 -18.410  0.00  0.00    -0.015 C 
ATOM      7  C   UNL     1      34.817 -20.675 -20.327  0.00  0.00    -0.016 C 
ATOM      8  C   UNL     1      34.355 -19.886 -21.512  0.00  0.00    -0.002 C 
ATOM      9  C   UNL     1      36.191 -20.595 -20.125  0.00  0.00    +0.016 C 
ATOM     10  C   UNL     1      35.643 -19.263 -22.074  0.00  0.00    +0.021 C 
ATOM     11  C   UNL     1      34.039 -21.432 -19.466  0.00  0.00    +0.053 C 
ATOM     12  C   UNL     1      36.740 -19.747 -21.162  0.00  0.00    +0.107 C 
ATOM     13  C   UNL     1      36.057 -22.008 -18.225  0.00  0.00    -0.004 C 
ATOM     14  C   UNL     1      36.839 -21.245 -19.091  0.00  0.00    +0.001 C 
BRANCH  12  15
ATOM     15  N   UNL     1      37.976 -19.424 -21.326  0.00  0.00    -0.135 NA
BRANCH  15  16
ATOM     16  O   UNL     1      38.081 -18.652 -22.486  0.00  0.00    -0.265 OA
ATOM     17  H   UNL     1      37.941 -19.045 -23.325  0.00  0.00    +0.247 HD
ENDBRANCH  15  16
ENDBRANCH  12  15
ENDBRANCH   4   6
BRANCH   1  19
ATOM     18  N   UNL     1      28.292 -24.380 -14.830  0.00  0.00    +0.384 N 
ATOM     19  C   UNL     1      30.810 -24.370 -16.313  0.00  0.00    +0.092 C 
ATOM     20  C   UNL     1      30.688 -24.992 -14.913  0.00  0.00    -0.002 C 
ATOM     21  C   UNL     1      29.736 -23.291 -16.519  0.00  0.00    -0.002 C 
ATOM     22  C   UNL     1      29.259 -25.464 -14.648  0.00  0.00    -0.080 C 
ATOM     23  C   UNL     1      28.346 -23.835 -16.188  0.00  0.00    -0.080 C 
ATOM     24  H   UNL     1      28.502 -23.635 -14.165  0.00  0.00    -0.085 HD
ATOM     25  H   UNL     1      27.358 -24.755 -14.673  0.00  0.00    -0.085 HD
ENDBRANCH   1  19
BRANCH   5  27
ATOM     26  N   UNL     1      38.073 -24.001 -14.623  0.00  0.00    -0.242 NA
ATOM     27  C   UNL     1      35.539 -23.748 -15.763  0.00  0.00    +0.022 C 
ATOM     28  C   UNL     1      36.087 -25.008 -15.564  0.00  0.00    +0.022 C 
ATOM     29  C   UNL     1      36.250 -22.614 -15.395  0.00  0.00    +0.022 C 
ATOM     30  C   UNL     1      37.347 -25.080 -14.994  0.00  0.00    +0.099 C 
ATOM     31  C   UNL     1      37.503 -22.793 -14.834  0.00  0.00    +0.099 C 
ENDBRANCH   5  27
TORSDOF 5
ENDMDL
MODEL 6
REMARK VINA RESULT:      -8.7      8.320     13.792
REMARK  Name = 11653652
REMARK  5 active torsions:
REMARK  status: ('A' for Active; 'I' for Inactive)
REMARK    1  A    between atoms: N_1  and  C_19
REMARK    2  A    between atoms: C_4  and  C_7
REMARK    3  A    between atoms: C_5  and  C_27
REMARK    4  A    between atoms: N_6  and  C_13
REMARK    5  A    between atoms: N_6  and  O_16
REMARK                            x       y       z     vdW  Elec       q    Type
REMARK                         _______ _______ _______ _____ _____    ______ ____
ROOT
ATOM      1  N   UNL     1      32.512 -10.855 -22.328  0.00  0.00    -0.212 N 
ATOM      2  N   UNL     1      32.691 -10.908 -23.658  0.00  0.00    -0.178 NA
ATOM      3  C   UNL     1      32.945 -11.967 -21.667  0.00  0.00    +0.085 C 
ATOM      4  C   UNL     1      33.439 -12.803 -22.634  0.00  0.00    +0.032 C 
ATOM      5  C   UNL     1      33.258 -12.104 -23.840  0.00  0.00    +0.100 C 
ENDROOT
BRANCH   4   6
ATOM      6  C   UNL     1      33.998 -14.096 -22.352  0.00  0.00    -0.015 C 
ATOM      7  C   UNL     1      34.793 -16.225 -23.103  0.00  0.00    -0.016 C 
ATOM      8  C   UNL     1      35.140 -17.319 -24.065  0.00  0.00    -0.002 C 
ATOM      9  C   UNL     1      35.067 -16.559 -21.781  0.00  0.00    +0.016 C 
ATOM     10  C   UNL     1      35.693 -18.442 -23.172  0.00  0.00    +0.021 C 
ATOM     11  C   UNL     1      34.254 -14.984 -23.402  0.00  0.00    +0.053 C 
ATOM     12  C   UNL     1      35.616 -17.898 -21.770  0.00  0.00    +0.107 C 
ATOM     13  C   UNL     1      34.282 -14.453 -21.022  0.00  0.00    -0.004 C 
ATOM     14  C   UNL     1      34.825 -15.703 -20.724  0.00  0.00    +0.001 C 
BRANCH  12  15
ATOM     15  N   UNL     1      35.997 -18.571 -20.740  0.00  0.00    -0.135 NA
BRANCH  15  16
ATOM     16  O   UNL     1      37.309 -19.003 -20.955  0.00  0.00    -0.265 OA
ATOM     17  H   UNL     1      38.020 -18.572 -20.524  0.00  0.00    +0.247 HD
ENDBRANCH  15  16
ENDBRANCH  12  15
ENDBRANCH   4   6
BRANCH   1  19
ATOM     18  N   UNL     1      31.991  -7.038 -20.450  0.00  0.00    +0.384 N 
ATOM     19  C   UNL     1      31.901  -9.666 -21.724  0.00  0.00    +0.092 C 
ATOM     20  C   UNL     1      32.288  -9.485 -20.247  0.00  0.00    -0.002 C 
ATOM     21  C   UNL     1      32.190  -8.383 -22.517  0.00  0.00    -0.002 C 
ATOM     22  C   UNL     1      31.648  -8.225 -19.666  0.00  0.00    -0.080 C 
ATOM     23  C   UNL     1      31.554  -7.168 -21.841  0.00  0.00    -0.080 C 
ATOM     24  H   UNL     1      33.003  -6.909 -20.432  0.00  0.00    -0.085 HD
ATOM     25  H   UNL     1      31.515  -6.235 -20.040  0.00  0.00    -0.085 HD
ENDBRANCH   1  19
BRANCH   5  27
ATOM     26  N   UNL     1      34.297 -13.392 -27.734  0.00  0.00    -0.242 NA
ATOM     27  C   UNL     1      33.612 -12.543 -25.166  0.00  0.00    +0.022 C 
ATOM     28  C   UNL     1      33.064 -13.709 -25.679  0.00  0.00    +0.022 C 
ATOM     29  C   UNL     1      34.501 -11.797 -25.928  0.00  0.00    +0.022 C 
ATOM     30  C   UNL     1      33.436 -14.089 -26.959  0.00  0.00    +0.099 C 
ATOM     31  C   UNL     1      34.808 -12.261 -27.197  0.00  0.00    +0.099 C 
ENDBRANCH   5  27
TORSDOF 5
ENDMDL
MODEL 7
REMARK VINA RESULT:      -8.5     11.343     16.330
REMARK  Name = 11653652
REMARK  5 active torsions:
REMARK  status: ('A' for Active; 'I' for Inactive)
REMARK    1  A    between atoms: N_1  and  C_19
REMARK    2  A    between atoms: C_4  and  C_7
REMARK    3  A    between atoms: C_5  and  C_27
REMARK    4  A    between atoms: N_6  and  C_13
REMARK    5  A    between atoms: N_6  and  O_16
REMARK                            x       y       z     vdW  Elec       q    Type
REMARK                         _______ _______ _______ _____ _____    ______ ____
ROOT
ATOM      1  N   UNL     1      33.685  -7.259 -24.154  0.00  0.00    -0.212 N 
ATOM      2  N   UNL     1      33.049  -7.420 -22.982  0.00  0.00    -0.178 NA
ATOM      3  C   UNL     1      33.966  -8.430 -24.796  0.00  0.00    +0.085 C 
ATOM      4  C   UNL     1      33.479  -9.422 -23.985  0.00  0.00    +0.032 C 
ATOM      5  C   UNL     1      32.926  -8.747 -22.883  0.00  0.00    +0.100 C 
ENDROOT
BRANCH   4   6
ATOM      6  C   UNL     1      33.574 -10.820 -24.302  0.00  0.00    -0.015 C 
ATOM      7  C   UNL     1      33.963 -13.082 -23.625  0.00  0.00    -0.016 C 
ATOM      8  C   UNL     1      34.276 -14.225 -22.709  0.00  0.00    -0.002 C 
ATOM      9  C   UNL     1      33.747 -13.484 -24.938  0.00  0.00    +0.016 C 
ATOM     10  C   UNL     1      34.233 -15.461 -23.623  0.00  0.00    +0.021 C 
ATOM     11  C   UNL     1      33.877 -11.740 -23.293  0.00  0.00    +0.053 C 
ATOM     12  C   UNL     1      33.899 -14.923 -24.990  0.00  0.00    +0.107 C 
ATOM     13  C   UNL     1      33.359 -11.247 -25.624  0.00  0.00    -0.004 C 
ATOM     14  C   UNL     1      33.444 -12.599 -25.956  0.00  0.00    +0.001 C 
BRANCH  12  15
ATOM     15  N   UNL     1      33.779 -15.679 -26.026  0.00  0.00    -0.135 NA
BRANCH  15  16
ATOM     16  O   UNL     1      32.596 -16.411 -25.904  0.00  0.00    -0.265 OA
ATOM     17  H   UNL     1      31.931 -16.341 -26.561  0.00  0.00    +0.247 HD
ENDBRANCH  15  16
ENDBRANCH  12  15
ENDBRANCH   4   6
BRANCH   1  19
ATOM     18  N   UNL     1      33.924  -3.724 -26.566  0.00  0.00    +0.384 N 
ATOM     19  C   UNL     1      34.009  -5.908 -24.626  0.00  0.00    +0.092 C 
ATOM     20  C   UNL     1      34.863  -5.915 -25.904  0.00  0.00    -0.002 C 
ATOM     21  C   UNL     1      32.760  -5.033 -24.819  0.00  0.00    -0.002 C 
ATOM     22  C   UNL     1      35.156  -4.490 -26.372  0.00  0.00    -0.080 C 
ATOM     23  C   UNL     1      33.141  -3.644 -25.332  0.00  0.00    -0.080 C 
ATOM     24  H   UNL     1      33.362  -4.179 -27.286  0.00  0.00    -0.085 HD
ATOM     25  H   UNL     1      34.177  -2.777 -26.846  0.00  0.00    -0.085 HD
ENDBRANCH   1  19
BRANCH   5  27
ATOM     26  N   UNL     1      31.030 -10.458 -19.511  0.00  0.00    -0.242 NA
ATOM     27  C   UNL     1      32.281  -9.330 -21.735  0.00  0.00    +0.022 C 
ATOM     28  C   UNL     1      31.370 -10.363 -21.902  0.00  0.00    +0.022 C 
ATOM     29  C   UNL     1      32.571  -8.856 -20.463  0.00  0.00    +0.022 C 
ATOM     30  C   UNL     1      30.776 -10.890 -20.767  0.00  0.00    +0.099 C 
ATOM     31  C   UNL     1      31.923  -9.450 -19.392  0.00  0.00    +0.099 C 
ENDBRANCH   5  27
TORSDOF 5
ENDMDL
MODEL 8
REMARK VINA RESULT:      -8.4     11.965     15.964
REMARK  Name = 11653652
REMARK  5 active torsions:
REMARK  status: ('A' for Active; 'I' for Inactive)
REMARK    1  A    between atoms: N_1  and  C_19
REMARK    2  A    between atoms: C_4  and  C_7
REMARK    3  A    between atoms: C_5  and  C_27
REMARK    4  A    between atoms: N_6  and  C_13
REMARK    5  A    between atoms: N_6  and  O_16
REMARK                            x       y       z     vdW  Elec       q    Type
REMARK                         _______ _______ _______ _____ _____    ______ ____
ROOT
ATOM      1  N   UNL     1      33.406 -11.792 -23.992  0.00  0.00    -0.212 N 
ATOM      2  N   UNL     1      33.020 -11.687 -22.709  0.00  0.00    -0.178 NA
ATOM      3  C   UNL     1      33.389 -10.610 -24.673  0.00  0.00    +0.085 C 
ATOM      4  C   UNL     1      32.961  -9.670 -23.772  0.00  0.00    +0.032 C 
ATOM      5  C   UNL     1      32.748 -10.385 -22.580  0.00  0.00    +0.100 C 
ENDROOT
BRANCH   4   6
ATOM      6  C   UNL     1      32.803  -8.279 -24.095  0.00  0.00    -0.015 C 
ATOM      7  C   UNL     1      33.690  -6.238 -24.975  0.00  0.00    -0.016 C 
ATOM      8  C   UNL     1      34.688  -5.307 -25.592  0.00  0.00    -0.002 C 
ATOM      9  C   UNL     1      32.473  -5.623 -24.701  0.00  0.00    +0.016 C 
ATOM     10  C   UNL     1      33.942  -3.966 -25.687  0.00  0.00    +0.021 C 
ATOM     11  C   UNL     1      33.866  -7.579 -24.674  0.00  0.00    +0.053 C 
ATOM     12  C   UNL     1      32.575  -4.240 -25.115  0.00  0.00    +0.107 C 
ATOM     13  C   UNL     1      31.582  -7.638 -23.825  0.00  0.00    -0.004 C 
ATOM     14  C   UNL     1      31.405  -6.289 -24.129  0.00  0.00    +0.001 C 
BRANCH  12  15
ATOM     15  N   UNL     1      31.662  -3.335 -25.028  0.00  0.00    -0.135 NA
BRANCH  15  16
ATOM     16  O   UNL     1      31.726  -2.763 -23.755  0.00  0.00    -0.265 OA
ATOM     17  H   UNL     1      31.845  -3.308 -23.003  0.00  0.00    +0.247 HD
ENDBRANCH  15  16
ENDBRANCH  12  15
ENDBRANCH   4   6
BRANCH   1  19
ATOM     18  N   UNL     1      33.294 -15.883 -25.265  0.00  0.00    +0.384 N 
ATOM     19  C   UNL     1      33.797 -13.100 -24.528  0.00  0.00    +0.092 C 
ATOM     20  C   UNL     1      33.710 -14.222 -23.480  0.00  0.00    -0.002 C 
ATOM     21  C   UNL     1      33.010 -13.482 -25.791  0.00  0.00    -0.002 C 
ATOM     22  C   UNL     1      34.103 -15.567 -24.087  0.00  0.00    -0.080 C 
ATOM     23  C   UNL     1      33.433 -14.860 -26.302  0.00  0.00    -0.080 C 
ATOM     24  H   UNL     1      32.314 -15.942 -24.987  0.00  0.00    -0.085 HD
ATOM     25  H   UNL     1      33.617 -16.771 -25.647  0.00  0.00    -0.085 HD
ENDBRANCH   1  19
BRANCH   5  27
ATOM     26  N   UNL     1      31.410  -8.853 -18.871  0.00  0.00    -0.242 NA
ATOM     27  C   UNL     1      32.292  -9.863 -21.317  0.00  0.00    +0.022 C 
ATOM     28  C   UNL     1      32.646  -8.578 -20.931  0.00  0.00    +0.022 C 
ATOM     29  C   UNL     1      31.501 -10.647 -20.489  0.00  0.00    +0.022 C 
ATOM     30  C   UNL     1      32.182  -8.122 -19.707  0.00  0.00    +0.099 C 
ATOM     31  C   UNL     1      31.089 -10.099 -19.286  0.00  0.00    +0.099 C 
ENDBRANCH   5  27
TORSDOF 5
ENDMDL
MODEL 9
REMARK VINA RESULT:      -8.1      1.755      5.049
REMARK  Name = 11653652
REMARK  5 active torsions:
REMARK  status: ('A' for Active; 'I' for Inactive)
REMARK    1  A    between atoms: N_1  and  C_19
REMARK    2  A    between atoms: C_4  and  C_7
REMARK    3  A    between atoms: C_5  and  C_27
REMARK    4  A    between atoms: N_6  and  C_13
REMARK    5  A    between atoms: N_6  and  O_16
REMARK                            x       y       z     vdW  Elec       q    Type
REMARK                         _______ _______ _______ _____ _____    ______ ____
ROOT
ATOM      1  N   UNL     1      32.068 -23.666 -15.791  0.00  0.00    -0.212 N 
ATOM      2  N   UNL     1      33.276 -23.921 -15.262  0.00  0.00    -0.178 NA
ATOM      3  C   UNL     1      32.115 -22.979 -16.969  0.00  0.00    +0.085 C 
ATOM      4  C   UNL     1      33.446 -22.772 -17.224  0.00  0.00    +0.032 C 
ATOM      5  C   UNL     1      34.116 -23.371 -16.143  0.00  0.00    +0.100 C 
ENDROOT
BRANCH   4   6
ATOM      6  C   UNL     1      33.930 -22.077 -18.384  0.00  0.00    -0.015 C 
ATOM      7  C   UNL     1      35.749 -21.243 -19.697  0.00  0.00    -0.016 C 
ATOM      8  C   UNL     1      37.166 -20.961 -20.088  0.00  0.00    -0.002 C 
ATOM      9  C   UNL     1      34.826 -20.744 -20.609  0.00  0.00    +0.016 C 
ATOM     10  C   UNL     1      37.044 -20.191 -21.414  0.00  0.00    +0.021 C 
ATOM     11  C   UNL     1      35.307 -21.918 -18.571  0.00  0.00    +0.053 C 
ATOM     12  C   UNL     1      35.564 -20.095 -21.672  0.00  0.00    +0.107 C 
ATOM     13  C   UNL     1      33.014 -21.564 -19.318  0.00  0.00    -0.004 C 
ATOM     14  C   UNL     1      33.460 -20.886 -20.452  0.00  0.00    +0.001 C 
BRANCH  12  15
ATOM     15  N   UNL     1      35.074 -19.506 -22.709  0.00  0.00    -0.135 NA
BRANCH  15  16
ATOM     16  O   UNL     1      35.946 -18.482 -23.088  0.00  0.00    -0.265 OA
ATOM     17  H   UNL     1      35.702 -17.888 -23.770  0.00  0.00    +0.247 HD
ENDBRANCH  15  16
ENDBRANCH  12  15
ENDBRANCH   4   6
BRANCH   1  19
ATOM     18  N   UNL     1      28.810 -26.102 -14.441  0.00  0.00    +0.384 N 
ATOM     19  C   UNL     1      30.859 -24.124 -15.099  0.00  0.00    +0.092 C 
ATOM     20  C   UNL     1      29.716 -24.472 -16.066  0.00  0.00    -0.002 C 
ATOM     21  C   UNL     1      31.131 -25.297 -14.144  0.00  0.00    -0.002 C 
ATOM     22  C   UNL     1      28.487 -24.966 -15.304  0.00  0.00    -0.080 C 
ATOM     23  C   UNL     1      29.843 -25.756 -13.461  0.00  0.00    -0.080 C 
ATOM     24  H   UNL     1      29.148 -26.872 -15.019  0.00  0.00    -0.085 HD
ATOM     25  H   UNL     1      27.967 -26.370 -13.935  0.00  0.00    -0.085 HD
ENDBRANCH   1  19
BRANCH   5  27
ATOM     26  N   UNL     1      38.293 -23.561 -15.499  0.00  0.00    -0.242 NA
ATOM     27  C   UNL     1      35.539 -23.435 -15.924  0.00  0.00    +0.022 C 
ATOM     28  C   UNL     1      36.334 -22.336 -16.212  0.00  0.00    +0.022 C 
ATOM     29  C   UNL     1      36.110 -24.598 -15.425  0.00  0.00    +0.022 C 
ATOM     30  C   UNL     1      37.696 -22.448 -15.984  0.00  0.00    +0.099 C 
ATOM     31  C   UNL     1      37.482 -24.609 -15.232  0.00  0.00    +0.099 C 
ENDBRANCH   5  27
TORSDOF 5
ENDMDL
