MODEL 1
REMARK VINA RESULT:     -11.7      0.000      0.000
REMARK  Name = 448942
REMARK  8 active torsions:
REMARK  status: ('A' for Active; 'I' for Inactive)
REMARK    1  A    between atoms: C_2  and  C_20
REMARK    2  A    between atoms: C_3  and  C_6
REMARK    3  A    between atoms: C_7  and  C_13
REMARK    4  A    between atoms: N_19  and  C_22
REMARK    5  A    between atoms: C_22  and  C_23
REMARK    6  A    between atoms: C_22  and  C_29
REMARK    7  A    between atoms: C_29  and  C_31
REMARK    8  A    between atoms: C_31  and  O_32
REMARK                            x       y       z     vdW  Elec       q    Type
REMARK                         _______ _______ _______ _____ _____    ______ ____
ROOT
ATOM      1  S   UNL     1      34.801 -23.494 -16.951  0.00  0.00    -0.082 S 
ATOM      2  C   UNL     1      36.280 -22.671 -16.928  0.00  0.00    +0.083 C 
ATOM      3  C   UNL     1      35.329 -21.808 -18.816  0.00  0.00    +0.007 C 
ATOM      4  C   UNL     1      36.462 -21.808 -17.951  0.00  0.00    +0.012 C 
ATOM      5  C   UNL     1      34.354 -22.681 -18.390  0.00  0.00    +0.036 C 
ENDROOT
BRANCH   3   6
ATOM      6  C   UNL     1      35.149 -21.025 -20.009  0.00  0.00    +0.001 C 
ATOM      7  C   UNL     1      34.801 -19.509 -22.322  0.00  0.00    +0.000 C 
ATOM      8  C   UNL     1      33.869 -20.818 -20.518  0.00  0.00    +0.000 C 
ATOM      9  C   UNL     1      36.257 -20.476 -20.654  0.00  0.00    +0.000 C 
ATOM     10  C   UNL     1      33.694 -20.059 -21.676  0.00  0.00    +0.000 C 
ATOM     11  C   UNL     1      36.082 -19.718 -21.812  0.00  0.00    +0.000 C 
BRANCH   7  13
ATOM     12  N   UNL     1      34.272 -17.207 -25.846  0.00  0.00    -0.242 NA
ATOM     13  C   UNL     1      34.620 -18.724 -23.523  0.00  0.00    +0.003 C 
ATOM     14  C   UNL     1      34.004 -19.284 -24.637  0.00  0.00    +0.021 C 
ATOM     15  C   UNL     1      35.063 -17.406 -23.570  0.00  0.00    +0.021 C 
ATOM     16  C   UNL     1      33.855 -18.491 -25.763  0.00  0.00    +0.099 C 
ATOM     17  C   UNL     1      34.867 -16.697 -24.744  0.00  0.00    +0.099 C 
ENDBRANCH   7  13
ENDBRANCH   3   6
BRANCH   2  20
ATOM     18  O   UNL     1      37.952 -22.099 -15.350  0.00  0.00    -0.270 OA
ATOM     19  N   UNL     1      37.219 -24.276 -15.376  0.00  0.00    -0.298 N 
ATOM     20  C   UNL     1      37.209 -22.959 -15.827  0.00  0.00    +0.252 C 
ATOM     21  H   UNL     1      36.607 -24.926 -15.790  0.00  0.00    +0.150 HD
BRANCH  19  22
ATOM     22  C   UNL     1      38.103 -24.720 -14.319  0.00  0.00    +0.105 C 
BRANCH  22  23
ATOM     23  C   UNL     1      37.437 -24.531 -12.970  0.00  0.00    -0.004 C 
ATOM     24  C   UNL     1      36.453 -25.419 -12.577  0.00  0.00    -0.003 C 
ATOM     25  C   UNL     1      37.830 -23.477 -12.167  0.00  0.00    -0.003 C 
ATOM     26  C   UNL     1      35.840 -25.246 -11.335  0.00  0.00    -0.000 C 
ATOM     27  C   UNL     1      37.218 -23.303 -10.926  0.00  0.00    -0.000 C 
ATOM     28  C   UNL     1      36.222 -24.187 -10.511  0.00  0.00    -0.000 C 
ENDBRANCH  22  23
BRANCH  22  29
ATOM     29  C   UNL     1      38.563 -26.164 -14.582  0.00  0.00    +0.133 C 
BRANCH  29  31
ATOM     30  O   UNL     1      40.886 -26.560 -13.952  0.00  0.00    -0.250 OA
ATOM     31  C   UNL     1      40.055 -26.286 -14.808  0.00  0.00    +0.316 C 
BRANCH  31  32
ATOM     32  O   UNL     1      40.386 -26.024 -16.101  0.00  0.00    -0.480 OA
ATOM     33  H   UNL     1      41.281 -26.065 -16.372  0.00  0.00    +0.295 HD
ENDBRANCH  31  32
ENDBRANCH  29  31
ENDBRANCH  22  29
ENDBRANCH  19  22
ENDBRANCH   2  20
TORSDOF 8
ENDMDL
MODEL 2
REMARK VINA RESULT:     -11.6      2.117      3.459
REMARK  Name = 448942
REMARK  8 active torsions:
REMARK  status: ('A' for Active; 'I' for Inactive)
REMARK    1  A    between atoms: C_2  and  C_20
REMARK    2  A    between atoms: C_3  and  C_6
REMARK    3  A    between atoms: C_7  and  C_13
REMARK    4  A    between atoms: N_19  and  C_22
REMARK    5  A    between atoms: C_22  and  C_23
REMARK    6  A    between atoms: C_22  and  C_29
REMARK    7  A    between atoms: C_29  and  C_31
REMARK    8  A    between atoms: C_31  and  O_32
REMARK                            x       y       z     vdW  Elec       q    Type
REMARK                         _______ _______ _______ _____ _____    ______ ____
ROOT
ATOM      1  S   UNL     1      32.751 -23.802 -16.457  0.00  0.00    -0.082 S 
ATOM      2  C   UNL     1      34.442 -23.808 -16.527  0.00  0.00    +0.083 C 
ATOM      3  C   UNL     1      33.938 -22.427 -18.274  0.00  0.00    +0.007 C 
ATOM      4  C   UNL     1      34.969 -23.055 -17.517  0.00  0.00    +0.012 C 
ATOM      5  C   UNL     1      32.684 -22.748 -17.806  0.00  0.00    +0.036 C 
ENDROOT
BRANCH   3   6
ATOM      6  C   UNL     1      34.102 -21.551 -19.403  0.00  0.00    +0.001 C 
ATOM      7  C   UNL     1      34.418 -19.854 -21.592  0.00  0.00    +0.000 C 
ATOM      8  C   UNL     1      35.380 -21.232 -19.857  0.00  0.00    +0.000 C 
ATOM      9  C   UNL     1      32.980 -21.024 -20.042  0.00  0.00    +0.000 C 
ATOM     10  C   UNL     1      35.539 -20.382 -20.952  0.00  0.00    +0.000 C 
ATOM     11  C   UNL     1      33.139 -20.174 -21.137  0.00  0.00    +0.000 C 
BRANCH   7  13
ATOM     12  N   UNL     1      34.898 -17.266 -24.918  0.00  0.00    -0.242 NA
ATOM     13  C   UNL     1      34.582 -18.972 -22.726  0.00  0.00    +0.003 C 
ATOM     14  C   UNL     1      35.219 -17.747 -22.570  0.00  0.00    +0.021 C 
ATOM     15  C   UNL     1      34.102 -19.345 -23.977  0.00  0.00    +0.021 C 
ATOM     16  C   UNL     1      35.352 -16.937 -23.687  0.00  0.00    +0.099 C 
ATOM     17  C   UNL     1      34.284 -18.464 -25.031  0.00  0.00    +0.099 C 
ENDBRANCH   7  13
ENDBRANCH   3   6
BRANCH   2  20
ATOM     18  O   UNL     1      35.219 -25.840 -15.588  0.00  0.00    -0.270 OA
ATOM     19  N   UNL     1      35.768 -23.892 -14.502  0.00  0.00    -0.298 N 
ATOM     20  C   UNL     1      35.167 -24.609 -15.532  0.00  0.00    +0.252 C 
ATOM     21  H   UNL     1      35.698 -22.910 -14.501  0.00  0.00    +0.150 HD
BRANCH  19  22
ATOM     22  C   UNL     1      36.491 -24.543 -13.431  0.00  0.00    +0.105 C 
BRANCH  22  23
ATOM     23  C   UNL     1      37.878 -24.935 -13.901  0.00  0.00    -0.004 C 
ATOM     24  C   UNL     1      38.405 -24.323 -15.024  0.00  0.00    -0.003 C 
ATOM     25  C   UNL     1      38.582 -25.893 -13.196  0.00  0.00    -0.003 C 
ATOM     26  C   UNL     1      39.681 -24.683 -15.456  0.00  0.00    -0.000 C 
ATOM     27  C   UNL     1      39.857 -26.254 -13.629  0.00  0.00    -0.000 C 
ATOM     28  C   UNL     1      40.407 -25.649 -14.760  0.00  0.00    -0.000 C 
ENDBRANCH  22  23
BRANCH  22  29
ATOM     29  C   UNL     1      36.494 -23.655 -12.174  0.00  0.00    +0.133 C 
BRANCH  29  31
ATOM     30  O   UNL     1      36.435 -24.193  -9.796  0.00  0.00    -0.250 OA
ATOM     31  C   UNL     1      36.014 -24.374 -10.931  0.00  0.00    +0.316 C 
BRANCH  31  32
ATOM     32  O   UNL     1      35.054 -25.290 -11.225  0.00  0.00    -0.480 OA
ATOM     33  H   UNL     1      34.868 -25.502 -12.118  0.00  0.00    +0.295 HD
ENDBRANCH  31  32
ENDBRANCH  29  31
ENDBRANCH  22  29
ENDBRANCH  19  22
ENDBRANCH   2  20
TORSDOF 8
ENDMDL
MODEL 3
REMARK VINA RESULT:     -10.9      3.125      4.243
REMARK  Name = 448942
REMARK  8 active torsions:
REMARK  status: ('A' for Active; 'I' for Inactive)
REMARK    1  A    between atoms: C_2  and  C_20
REMARK    2  A    between atoms: C_3  and  C_6
REMARK    3  A    between atoms: C_7  and  C_13
REMARK    4  A    between atoms: N_19  and  C_22
REMARK    5  A    between atoms: C_22  and  C_23
REMARK    6  A    between atoms: C_22  and  C_29
REMARK    7  A    between atoms: C_29  and  C_31
REMARK    8  A    between atoms: C_31  and  O_32
REMARK                            x       y       z     vdW  Elec       q    Type
REMARK                         _______ _______ _______ _____ _____    ______ ____
ROOT
ATOM      1  S   UNL     1      36.993 -22.630 -16.746  0.00  0.00    -0.082 S 
ATOM      2  C   UNL     1      35.331 -22.925 -16.880  0.00  0.00    +0.083 C 
ATOM      3  C   UNL     1      35.696 -21.637 -18.730  0.00  0.00    +0.007 C 
ATOM      4  C   UNL     1      34.742 -22.360 -17.956  0.00  0.00    +0.012 C 
ATOM      5  C   UNL     1      36.958 -21.701 -18.184  0.00  0.00    +0.036 C 
ENDROOT
BRANCH   3   6
ATOM      6  C   UNL     1      35.452 -20.904 -19.943  0.00  0.00    +0.001 C 
ATOM      7  C   UNL     1      34.978 -19.481 -22.293  0.00  0.00    +0.000 C 
ATOM      8  C   UNL     1      36.505 -20.260 -20.590  0.00  0.00    +0.000 C 
ATOM      9  C   UNL     1      34.162 -20.837 -20.467  0.00  0.00    +0.000 C 
ATOM     10  C   UNL     1      36.268 -19.548 -21.766  0.00  0.00    +0.000 C 
ATOM     11  C   UNL     1      33.925 -20.125 -21.643  0.00  0.00    +0.000 C 
BRANCH   7  13
ATOM     12  N   UNL     1      34.255 -17.310 -25.864  0.00  0.00    -0.242 NA
ATOM     13  C   UNL     1      34.732 -18.741 -23.511  0.00  0.00    +0.003 C 
ATOM     14  C   UNL     1      35.083 -17.399 -23.594  0.00  0.00    +0.021 C 
ATOM     15  C   UNL     1      34.143 -19.369 -24.603  0.00  0.00    +0.021 C 
ATOM     16  C   UNL     1      34.826 -16.733 -24.782  0.00  0.00    +0.099 C 
ATOM     17  C   UNL     1      33.928 -18.616 -25.745  0.00  0.00    +0.099 C 
ENDBRANCH   7  13
ENDBRANCH   3   6
BRANCH   2  20
ATOM     18  O   UNL     1      34.725 -24.980 -15.869  0.00  0.00    -0.270 OA
ATOM     19  N   UNL     1      34.027 -23.047 -14.842  0.00  0.00    -0.298 N 
ATOM     20  C   UNL     1      34.695 -23.748 -15.843  0.00  0.00    +0.252 C 
ATOM     21  H   UNL     1      34.032 -22.063 -14.866  0.00  0.00    +0.150 HD
BRANCH  19  22
ATOM     22  C   UNL     1      33.326 -23.719 -13.770  0.00  0.00    +0.105 C 
BRANCH  22  23
ATOM     23  C   UNL     1      31.925 -24.091 -14.214  0.00  0.00    -0.004 C 
ATOM     24  C   UNL     1      31.483 -25.388 -14.026  0.00  0.00    -0.003 C 
ATOM     25  C   UNL     1      31.126 -23.126 -14.797  0.00  0.00    -0.003 C 
ATOM     26  C   UNL     1      30.194 -25.730 -14.436  0.00  0.00    -0.000 C 
ATOM     27  C   UNL     1      29.837 -23.468 -15.206  0.00  0.00    -0.000 C 
ATOM     28  C   UNL     1      29.372 -24.771 -15.027  0.00  0.00    -0.000 C 
ENDBRANCH  22  23
BRANCH  22  29
ATOM     29  C   UNL     1      34.150 -24.916 -13.264  0.00  0.00    +0.133 C 
BRANCH  29  31
ATOM     30  O   UNL     1      35.271 -25.159 -11.111  0.00  0.00    -0.250 OA
ATOM     31  C   UNL     1      35.124 -24.552 -12.163  0.00  0.00    +0.316 C 
BRANCH  31  32
ATOM     32  O   UNL     1      35.823 -23.427 -12.471  0.00  0.00    -0.480 OA
ATOM     33  H   UNL     1      36.260 -22.949 -11.794  0.00  0.00    +0.295 HD
ENDBRANCH  31  32
ENDBRANCH  29  31
ENDBRANCH  22  29
ENDBRANCH  19  22
ENDBRANCH   2  20
TORSDOF 8
ENDMDL
MODEL 4
REMARK VINA RESULT:     -10.6      8.613     15.160
REMARK  Name = 448942
REMARK  8 active torsions:
REMARK  status: ('A' for Active; 'I' for Inactive)
REMARK    1  A    between atoms: C_2  and  C_20
REMARK    2  A    between atoms: C_3  and  C_6
REMARK    3  A    between atoms: C_7  and  C_13
REMARK    4  A    between atoms: N_19  and  C_22
REMARK    5  A    between atoms: C_22  and  C_23
REMARK    6  A    between atoms: C_22  and  C_29
REMARK    7  A    between atoms: C_29  and  C_31
REMARK    8  A    between atoms: C_31  and  O_32
REMARK                            x       y       z     vdW  Elec       q    Type
REMARK                         _______ _______ _______ _____ _____    ______ ____
ROOT
ATOM      1  S   UNL     1      33.489 -11.478 -25.206  0.00  0.00    -0.082 S 
ATOM      2  C   UNL     1      33.286 -11.136 -23.560  0.00  0.00    +0.083 C 
ATOM      3  C   UNL     1      33.980 -13.309 -23.471  0.00  0.00    +0.007 C 
ATOM      4  C   UNL     1      33.569 -12.163 -22.730  0.00  0.00    +0.012 C 
ATOM      5  C   UNL     1      33.981 -13.075 -24.828  0.00  0.00    +0.036 C 
ENDROOT
BRANCH   3   6
ATOM      6  C   UNL     1      34.362 -14.592 -22.944  0.00  0.00    +0.001 C 
ATOM      7  C   UNL     1      35.101 -17.077 -21.920  0.00  0.00    +0.000 C 
ATOM      8  C   UNL     1      34.568 -15.666 -23.807  0.00  0.00    +0.000 C 
ATOM      9  C   UNL     1      34.524 -14.757 -21.568  0.00  0.00    +0.000 C 
ATOM     10  C   UNL     1      34.938 -16.910 -23.295  0.00  0.00    +0.000 C 
ATOM     11  C   UNL     1      34.893 -16.001 -21.057  0.00  0.00    +0.000 C 
BRANCH   7  13
ATOM     12  N   UNL     1      36.219 -20.860 -20.360  0.00  0.00    -0.242 NA
ATOM     13  C   UNL     1      35.482 -18.367 -21.389  0.00  0.00    +0.003 C 
ATOM     14  C   UNL     1      34.514 -19.332 -21.139  0.00  0.00    +0.021 C 
ATOM     15  C   UNL     1      36.819 -18.646 -21.125  0.00  0.00    +0.021 C 
ATOM     16  C   UNL     1      34.930 -20.552 -20.629  0.00  0.00    +0.099 C 
ATOM     17  C   UNL     1      37.132 -19.896 -20.616  0.00  0.00    +0.099 C 
ENDBRANCH   7  13
ENDBRANCH   3   6
BRANCH   2  20
ATOM     18  O   UNL     1      31.651  -9.446 -23.271  0.00  0.00    -0.270 OA
ATOM     19  N   UNL     1      33.828  -8.911 -22.772  0.00  0.00    -0.298 N 
ATOM     20  C   UNL     1      32.832  -9.788 -23.191  0.00  0.00    +0.252 C 
ATOM     21  H   UNL     1      34.758  -9.232 -22.725  0.00  0.00    +0.150 HD
BRANCH  19  22
ATOM     22  C   UNL     1      33.541  -7.541 -22.405  0.00  0.00    +0.105 C 
BRANCH  22  23
ATOM     23  C   UNL     1      33.516  -6.664 -23.642  0.00  0.00    -0.004 C 
ATOM     24  C   UNL     1      32.329  -6.057 -24.011  0.00  0.00    -0.003 C 
ATOM     25  C   UNL     1      34.678  -6.493 -24.370  0.00  0.00    -0.003 C 
ATOM     26  C   UNL     1      32.305  -5.250 -25.149  0.00  0.00    -0.000 C 
ATOM     27  C   UNL     1      34.654  -5.687 -25.508  0.00  0.00    -0.000 C 
ATOM     28  C   UNL     1      33.467  -5.066 -25.898  0.00  0.00    -0.000 C 
ENDBRANCH  22  23
BRANCH  22  29
ATOM     29  C   UNL     1      32.248  -7.472 -21.575  0.00  0.00    +0.133 C 
BRANCH  29  31
ATOM     30  O   UNL     1      31.864  -8.750 -19.533  0.00  0.00    -0.250 OA
ATOM     31  C   UNL     1      32.447  -7.850 -20.122  0.00  0.00    +0.316 C 
BRANCH  31  32
ATOM     32  O   UNL     1      33.355  -7.038 -19.517  0.00  0.00    -0.480 OA
ATOM     33  H   UNL     1      33.695  -6.295 -19.974  0.00  0.00    +0.295 HD
ENDBRANCH  31  32
ENDBRANCH  29  31
ENDBRANCH  22  29
ENDBRANCH  19  22
ENDBRANCH   2  20
TORSDOF 8
ENDMDL
MODEL 5
REMARK VINA RESULT:     -10.4      3.022      4.660
REMARK  Name = 448942
REMARK  8 active torsions:
REMARK  status: ('A' for Active; 'I' for Inactive)
REMARK    1  A    between atoms: C_2  and  C_20
REMARK    2  A    between atoms: C_3  and  C_6
REMARK    3  A    between atoms: C_7  and  C_13
REMARK    4  A    between atoms: N_19  and  C_22
REMARK    5  A    between atoms: C_22  and  C_23
REMARK    6  A    between atoms: C_22  and  C_29
REMARK    7  A    between atoms: C_29  and  C_31
REMARK    8  A    between atoms: C_31  and  O_32
REMARK                            x       y       z     vdW  Elec       q    Type
REMARK                         _______ _______ _______ _____ _____    ______ ____
ROOT
ATOM      1  S   UNL     1      36.860 -21.648 -19.479  0.00  0.00    -0.082 S 
ATOM      2  C   UNL     1      35.175 -21.816 -19.444  0.00  0.00    +0.083 C 
ATOM      3  C   UNL     1      35.408 -20.049 -20.871  0.00  0.00    +0.007 C 
ATOM      4  C   UNL     1      34.503 -20.928 -20.208  0.00  0.00    +0.012 C 
ATOM      5  C   UNL     1      36.720 -20.329 -20.562  0.00  0.00    +0.036 C 
ENDROOT
BRANCH   3   6
ATOM      6  C   UNL     1      35.074 -18.974 -21.766  0.00  0.00    +0.001 C 
ATOM      7  C   UNL     1      34.425 -16.892 -23.504  0.00  0.00    +0.000 C 
ATOM      8  C   UNL     1      35.228 -17.652 -21.355  0.00  0.00    +0.000 C 
ATOM      9  C   UNL     1      34.595 -19.259 -23.045  0.00  0.00    +0.000 C 
ATOM     10  C   UNL     1      34.903 -16.610 -22.223  0.00  0.00    +0.000 C 
ATOM     11  C   UNL     1      34.270 -18.216 -23.913  0.00  0.00    +0.000 C 
BRANCH   7  13
ATOM     12  N   UNL     1      33.430 -13.724 -26.142  0.00  0.00    -0.242 NA
ATOM     13  C   UNL     1      34.087 -15.812 -24.403  0.00  0.00    +0.003 C 
ATOM     14  C   UNL     1      33.956 -14.516 -23.919  0.00  0.00    +0.021 C 
ATOM     15  C   UNL     1      33.889 -16.065 -25.757  0.00  0.00    +0.021 C 
ATOM     16  C   UNL     1      33.629 -13.515 -24.820  0.00  0.00    +0.099 C 
ATOM     17  C   UNL     1      33.566 -14.997 -26.576  0.00  0.00    +0.099 C 
ENDBRANCH   7  13
ENDBRANCH   3   6
BRANCH   2  20
ATOM     18  O   UNL     1      33.946 -23.808 -19.082  0.00  0.00    -0.270 OA
ATOM     19  N   UNL     1      34.846 -22.769 -17.242  0.00  0.00    -0.298 N 
ATOM     20  C   UNL     1      34.610 -22.884 -18.609  0.00  0.00    +0.252 C 
ATOM     21  H   UNL     1      35.382 -22.012 -16.913  0.00  0.00    +0.150 HD
BRANCH  19  22
ATOM     22  C   UNL     1      34.327 -23.727 -16.289  0.00  0.00    +0.105 C 
BRANCH  22  23
ATOM     23  C   UNL     1      35.421 -24.153 -15.329  0.00  0.00    -0.004 C 
ATOM     24  C   UNL     1      36.091 -23.186 -14.603  0.00  0.00    -0.003 C 
ATOM     25  C   UNL     1      35.721 -25.496 -15.205  0.00  0.00    -0.003 C 
ATOM     26  C   UNL     1      37.097 -23.577 -13.719  0.00  0.00    -0.000 C 
ATOM     27  C   UNL     1      36.727 -25.888 -14.322  0.00  0.00    -0.000 C 
ATOM     28  C   UNL     1      37.416 -24.928 -13.580  0.00  0.00    -0.000 C 
ENDBRANCH  22  23
BRANCH  22  29
ATOM     29  C   UNL     1      33.080 -23.159 -15.590  0.00  0.00    +0.133 C 
BRANCH  29  31
ATOM     30  O   UNL     1      31.021 -24.419 -15.934  0.00  0.00    -0.250 OA
ATOM     31  C   UNL     1      31.784 -23.528 -16.280  0.00  0.00    +0.316 C 
BRANCH  31  32
ATOM     32  O   UNL     1      31.566 -22.753 -17.376  0.00  0.00    -0.480 OA
ATOM     33  H   UNL     1      31.421 -23.152 -18.210  0.00  0.00    +0.295 HD
ENDBRANCH  31  32
ENDBRANCH  29  31
ENDBRANCH  22  29
ENDBRANCH  19  22
ENDBRANCH   2  20
TORSDOF 8
ENDMDL
MODEL 6
REMARK VINA RESULT:      -9.8      2.565      3.651
REMARK  Name = 448942
REMARK  8 active torsions:
REMARK  status: ('A' for Active; 'I' for Inactive)
REMARK    1  A    between atoms: C_2  and  C_20
REMARK    2  A    between atoms: C_3  and  C_6
REMARK    3  A    between atoms: C_7  and  C_13
REMARK    4  A    between atoms: N_19  and  C_22
REMARK    5  A    between atoms: C_22  and  C_23
REMARK    6  A    between atoms: C_22  and  C_29
REMARK    7  A    between atoms: C_29  and  C_31
REMARK    8  A    between atoms: C_31  and  O_32
REMARK                            x       y       z     vdW  Elec       q    Type
REMARK                         _______ _______ _______ _____ _____    ______ ____
ROOT
ATOM      1  S   UNL     1      36.966 -22.398 -17.118  0.00  0.00    -0.082 S 
ATOM      2  C   UNL     1      35.330 -22.805 -17.280  0.00  0.00    +0.083 C 
ATOM      3  C   UNL     1      35.621 -21.435 -19.084  0.00  0.00    +0.007 C 
ATOM      4  C   UNL     1      34.713 -22.248 -18.345  0.00  0.00    +0.012 C 
ATOM      5  C   UNL     1      36.879 -21.427 -18.526  0.00  0.00    +0.036 C 
ENDROOT
BRANCH   3   6
ATOM      6  C   UNL     1      35.337 -20.682 -20.276  0.00  0.00    +0.001 C 
ATOM      7  C   UNL     1      34.785 -19.220 -22.585  0.00  0.00    +0.000 C 
ATOM      8  C   UNL     1      36.360 -19.989 -20.921  0.00  0.00    +0.000 C 
ATOM      9  C   UNL     1      34.038 -20.645 -20.782  0.00  0.00    +0.000 C 
ATOM     10  C   UNL     1      36.084 -19.257 -22.076  0.00  0.00    +0.000 C 
ATOM     11  C   UNL     1      33.763 -19.914 -21.938  0.00  0.00    +0.000 C 
BRANCH   7  13
ATOM     12  N   UNL     1      33.945 -16.991 -26.094  0.00  0.00    -0.242 NA
ATOM     13  C   UNL     1      34.500 -18.461 -23.782  0.00  0.00    +0.003 C 
ATOM     14  C   UNL     1      34.951 -17.151 -23.901  0.00  0.00    +0.021 C 
ATOM     15  C   UNL     1      33.771 -19.036 -24.818  0.00  0.00    +0.021 C 
ATOM     16  C   UNL     1      34.650 -16.465 -25.067  0.00  0.00    +0.099 C 
ATOM     17  C   UNL     1      33.523 -18.266 -25.942  0.00  0.00    +0.099 C 
ENDBRANCH   7  13
ENDBRANCH   3   6
BRANCH   2  20
ATOM     18  O   UNL     1      34.102 -24.709 -16.588  0.00  0.00    -0.270 OA
ATOM     19  N   UNL     1      34.934 -23.331 -14.950  0.00  0.00    -0.298 N 
ATOM     20  C   UNL     1      34.744 -23.704 -16.277  0.00  0.00    +0.252 C 
ATOM     21  H   UNL     1      35.454 -22.519 -14.752  0.00  0.00    +0.150 HD
BRANCH  19  22
ATOM     22  C   UNL     1      34.389 -24.098 -13.850  0.00  0.00    +0.105 C 
BRANCH  22  23
ATOM     23  C   UNL     1      35.329 -24.044 -12.661  0.00  0.00    -0.004 C 
ATOM     24  C   UNL     1      34.980 -24.709 -11.499  0.00  0.00    -0.003 C 
ATOM     25  C   UNL     1      36.508 -23.333 -12.767  0.00  0.00    -0.003 C 
ATOM     26  C   UNL     1      35.843 -24.659 -10.405  0.00  0.00    -0.000 C 
ATOM     27  C   UNL     1      37.371 -23.282 -11.673  0.00  0.00    -0.000 C 
ATOM     28  C   UNL     1      37.038 -23.945 -10.491  0.00  0.00    -0.000 C 
ENDBRANCH  22  23
BRANCH  22  29
ATOM     29  C   UNL     1      32.960 -23.627 -13.529  0.00  0.00    +0.133 C 
BRANCH  29  31
ATOM     30  O   UNL     1      30.706 -24.554 -13.605  0.00  0.00    -0.250 OA
ATOM     31  C   UNL     1      31.913 -24.699 -13.743  0.00  0.00    +0.316 C 
BRANCH  31  32
ATOM     32  O   UNL     1      32.479 -25.885 -14.091  0.00  0.00    -0.480 OA
ATOM     33  H   UNL     1      32.515 -26.586 -13.471  0.00  0.00    +0.295 HD
ENDBRANCH  31  32
ENDBRANCH  29  31
ENDBRANCH  22  29
ENDBRANCH  19  22
ENDBRANCH   2  20
TORSDOF 8
ENDMDL
MODEL 7
REMARK VINA RESULT:      -9.6     11.571     17.774
REMARK  Name = 448942
REMARK  8 active torsions:
REMARK  status: ('A' for Active; 'I' for Inactive)
REMARK    1  A    between atoms: C_2  and  C_20
REMARK    2  A    between atoms: C_3  and  C_6
REMARK    3  A    between atoms: C_7  and  C_13
REMARK    4  A    between atoms: N_19  and  C_22
REMARK    5  A    between atoms: C_22  and  C_23
REMARK    6  A    between atoms: C_22  and  C_29
REMARK    7  A    between atoms: C_29  and  C_31
REMARK    8  A    between atoms: C_31  and  O_32
REMARK                            x       y       z     vdW  Elec       q    Type
REMARK                         _______ _______ _______ _____ _____    ______ ____
ROOT
ATOM      1  S   UNL     1      31.738  -8.212 -20.408  0.00  0.00    -0.082 S 
ATOM      2  C   UNL     1      32.270  -7.717 -21.936  0.00  0.00    +0.083 C 
ATOM      3  C   UNL     1      32.539  -9.979 -22.092  0.00  0.00    +0.007 C 
ATOM      4  C   UNL     1      32.671  -8.720 -22.747  0.00  0.00    +0.012 C 
ATOM      5  C   UNL     1      32.044  -9.847 -20.814  0.00  0.00    +0.036 C 
ENDROOT
BRANCH   3   6
ATOM      6  C   UNL     1      32.863 -11.274 -22.628  0.00  0.00    +0.001 C 
ATOM      7  C   UNL     1      33.492 -13.783 -23.668  0.00  0.00    +0.000 C 
ATOM      8  C   UNL     1      32.489 -12.426 -21.939  0.00  0.00    +0.000 C 
ATOM      9  C   UNL     1      33.551 -11.373 -23.837  0.00  0.00    +0.000 C 
ATOM     10  C   UNL     1      32.804 -13.682 -22.458  0.00  0.00    +0.000 C 
ATOM     11  C   UNL     1      33.865 -12.629 -24.357  0.00  0.00    +0.000 C 
BRANCH   7  13
ATOM     12  N   UNL     1      34.450 -17.602 -25.246  0.00  0.00    -0.242 NA
ATOM     13  C   UNL     1      33.819 -15.084 -24.206  0.00  0.00    +0.003 C 
ATOM     14  C   UNL     1      33.250 -15.508 -25.402  0.00  0.00    +0.021 C 
ATOM     15  C   UNL     1      34.703 -15.918 -23.530  0.00  0.00    +0.021 C 
ATOM     16  C   UNL     1      33.595 -16.764 -25.876  0.00  0.00    +0.099 C 
ATOM     17  C   UNL     1      34.983 -17.155 -24.086  0.00  0.00    +0.099 C 
ENDBRANCH   7  13
ENDBRANCH   3   6
BRANCH   2  20
ATOM     18  O   UNL     1      32.092  -5.425 -21.363  0.00  0.00    -0.270 OA
ATOM     19  N   UNL     1      32.390  -5.943 -23.581  0.00  0.00    -0.298 N 
ATOM     20  C   UNL     1      32.250  -6.279 -22.238  0.00  0.00    +0.252 C 
ATOM     21  H   UNL     1      32.513  -6.662 -24.242  0.00  0.00    +0.150 HD
BRANCH  19  22
ATOM     22  C   UNL     1      32.359  -4.570 -24.037  0.00  0.00    +0.105 C 
BRANCH  22  23
ATOM     23  C   UNL     1      33.243  -4.405 -25.258  0.00  0.00    -0.004 C 
ATOM     24  C   UNL     1      32.962  -3.395 -26.159  0.00  0.00    -0.003 C 
ATOM     25  C   UNL     1      34.307  -5.268 -25.439  0.00  0.00    -0.003 C 
ATOM     26  C   UNL     1      33.775  -3.243 -27.283  0.00  0.00    -0.000 C 
ATOM     27  C   UNL     1      35.120  -5.117 -26.562  0.00  0.00    -0.000 C 
ATOM     28  C   UNL     1      34.853  -4.105 -27.485  0.00  0.00    -0.000 C 
ENDBRANCH  22  23
BRANCH  22  29
ATOM     29  C   UNL     1      30.906  -4.118 -24.263  0.00  0.00    +0.133 C 
BRANCH  29  31
ATOM     30  O   UNL     1      30.318  -1.786 -23.859  0.00  0.00    -0.250 OA
ATOM     31  C   UNL     1      30.515  -2.915 -23.431  0.00  0.00    +0.316 C 
BRANCH  31  32
ATOM     32  O   UNL     1      30.429  -3.230 -22.111  0.00  0.00    -0.480 OA
ATOM     33  H   UNL     1      29.715  -2.906 -21.599  0.00  0.00    +0.295 HD
ENDBRANCH  31  32
ENDBRANCH  29  31
ENDBRANCH  22  29
ENDBRANCH  19  22
ENDBRANCH   2  20
TORSDOF 8
ENDMDL
MODEL 8
REMARK VINA RESULT:      -9.6      7.646     11.726
REMARK  Name = 448942
REMARK  8 active torsions:
REMARK  status: ('A' for Active; 'I' for Inactive)
REMARK    1  A    between atoms: C_2  and  C_20
REMARK    2  A    between atoms: C_3  and  C_6
REMARK    3  A    between atoms: C_7  and  C_13
REMARK    4  A    between atoms: N_19  and  C_22
REMARK    5  A    between atoms: C_22  and  C_23
REMARK    6  A    between atoms: C_22  and  C_29
REMARK    7  A    between atoms: C_29  and  C_31
REMARK    8  A    between atoms: C_31  and  O_32
REMARK                            x       y       z     vdW  Elec       q    Type
REMARK                         _______ _______ _______ _____ _____    ______ ____
ROOT
ATOM      1  S   UNL     1      33.292 -14.856 -21.096  0.00  0.00    -0.082 S 
ATOM      2  C   UNL     1      34.041 -14.590 -22.591  0.00  0.00    +0.083 C 
ATOM      3  C   UNL     1      33.076 -12.555 -22.219  0.00  0.00    +0.007 C 
ATOM      4  C   UNL     1      33.868 -13.350 -23.097  0.00  0.00    +0.012 C 
ATOM      5  C   UNL     1      32.694 -13.251 -21.094  0.00  0.00    +0.036 C 
ENDROOT
BRANCH   3   6
ATOM      6  C   UNL     1      32.676 -11.187 -22.411  0.00  0.00    +0.001 C 
ATOM      7  C   UNL     1      31.902  -8.534 -22.781  0.00  0.00    +0.000 C 
ATOM      8  C   UNL     1      33.097 -10.491 -23.543  0.00  0.00    +0.000 C 
ATOM      9  C   UNL     1      31.869 -10.559 -21.463  0.00  0.00    +0.000 C 
ATOM     10  C   UNL     1      32.710  -9.164 -23.728  0.00  0.00    +0.000 C 
ATOM     11  C   UNL     1      31.483  -9.232 -21.648  0.00  0.00    +0.000 C 
BRANCH   7  13
ATOM     12  N   UNL     1      30.732  -4.496 -23.343  0.00  0.00    -0.242 NA
ATOM     13  C   UNL     1      31.502  -7.158 -22.972  0.00  0.00    +0.003 C 
ATOM     14  C   UNL     1      31.536  -6.592 -24.241  0.00  0.00    +0.021 C 
ATOM     15  C   UNL     1      31.085  -6.394 -21.888  0.00  0.00    +0.021 C 
ATOM     16  C   UNL     1      31.144  -5.269 -24.373  0.00  0.00    +0.099 C 
ATOM     17  C   UNL     1      30.714  -5.081 -22.124  0.00  0.00    +0.099 C 
ENDBRANCH   7  13
ENDBRANCH   3   6
BRANCH   2  20
ATOM     18  O   UNL     1      35.715 -15.520 -23.987  0.00  0.00    -0.270 OA
ATOM     19  N   UNL     1      34.380 -16.978 -22.818  0.00  0.00    -0.298 N 
ATOM     20  C   UNL     1      34.794 -15.702 -23.188  0.00  0.00    +0.252 C 
ATOM     21  H   UNL     1      33.639 -17.071 -22.176  0.00  0.00    +0.150 HD
BRANCH  19  22
ATOM     22  C   UNL     1      35.003 -18.172 -23.346  0.00  0.00    +0.105 C 
BRANCH  22  23
ATOM     23  C   UNL     1      35.549 -19.021 -22.214  0.00  0.00    -0.004 C 
ATOM     24  C   UNL     1      36.859 -18.840 -21.810  0.00  0.00    -0.003 C 
ATOM     25  C   UNL     1      34.724 -19.954 -21.614  0.00  0.00    -0.003 C 
ATOM     26  C   UNL     1      37.361 -19.621 -20.769  0.00  0.00    -0.000 C 
ATOM     27  C   UNL     1      35.225 -20.735 -20.574  0.00  0.00    -0.000 C 
ATOM     28  C   UNL     1      36.545 -20.569 -20.152  0.00  0.00    -0.000 C 
ENDBRANCH  22  23
BRANCH  22  29
ATOM     29  C   UNL     1      34.022 -18.924 -24.262  0.00  0.00    +0.133 C 
BRANCH  29  31
ATOM     30  O   UNL     1      32.492 -18.100 -25.974  0.00  0.00    -0.250 OA
ATOM     31  C   UNL     1      33.613 -18.129 -25.484  0.00  0.00    +0.316 C 
BRANCH  31  32
ATOM     32  O   UNL     1      34.667 -17.450 -26.011  0.00  0.00    -0.480 OA
ATOM     33  H   UNL     1      34.568 -16.986 -26.818  0.00  0.00    +0.295 HD
ENDBRANCH  31  32
ENDBRANCH  29  31
ENDBRANCH  22  29
ENDBRANCH  19  22
ENDBRANCH   2  20
TORSDOF 8
ENDMDL
MODEL 9
REMARK VINA RESULT:      -9.6     10.351     16.750
REMARK  Name = 448942
REMARK  8 active torsions:
REMARK  status: ('A' for Active; 'I' for Inactive)
REMARK    1  A    between atoms: C_2  and  C_20
REMARK    2  A    between atoms: C_3  and  C_6
REMARK    3  A    between atoms: C_7  and  C_13
REMARK    4  A    between atoms: N_19  and  C_22
REMARK    5  A    between atoms: C_22  and  C_23
REMARK    6  A    between atoms: C_22  and  C_29
REMARK    7  A    between atoms: C_29  and  C_31
REMARK    8  A    between atoms: C_31  and  O_32
REMARK                            x       y       z     vdW  Elec       q    Type
REMARK                         _______ _______ _______ _____ _____    ______ ____
ROOT
ATOM      1  S   UNL     1      31.797  -9.365 -22.460  0.00  0.00    -0.082 S 
ATOM      2  C   UNL     1      33.329  -9.145 -23.147  0.00  0.00    +0.083 C 
ATOM      3  C   UNL     1      33.139 -11.419 -23.224  0.00  0.00    +0.007 C 
ATOM      4  C   UNL     1      33.952 -10.286 -23.515  0.00  0.00    +0.012 C 
ATOM      5  C   UNL     1      31.941 -11.062 -22.647  0.00  0.00    +0.036 C 
ENDROOT
BRANCH   3   6
ATOM      6  C   UNL     1      33.457 -12.800 -23.468  0.00  0.00    +0.001 C 
ATOM      7  C   UNL     1      34.073 -15.478 -23.941  0.00  0.00    +0.000 C 
ATOM      8  C   UNL     1      33.088 -13.397 -24.672  0.00  0.00    +0.000 C 
ATOM      9  C   UNL     1      34.134 -13.540 -22.499  0.00  0.00    +0.000 C 
ATOM     10  C   UNL     1      33.396 -14.736 -24.910  0.00  0.00    +0.000 C 
ATOM     11  C   UNL     1      34.441 -14.880 -22.736  0.00  0.00    +0.000 C 
BRANCH   7  13
ATOM     12  N   UNL     1      35.002 -19.554 -24.658  0.00  0.00    -0.242 NA
ATOM     13  C   UNL     1      34.391 -16.867 -24.186  0.00  0.00    +0.003 C 
ATOM     14  C   UNL     1      33.897 -17.507 -25.317  0.00  0.00    +0.021 C 
ATOM     15  C   UNL     1      35.190 -17.570 -23.290  0.00  0.00    +0.021 C 
ATOM     16  C   UNL     1      34.229 -18.839 -25.506  0.00  0.00    +0.099 C 
ATOM     17  C   UNL     1      35.463 -18.899 -23.569  0.00  0.00    +0.099 C 
ENDBRANCH   7  13
ENDBRANCH   3   6
BRANCH   2  20
ATOM     18  O   UNL     1      34.994  -7.465 -23.012  0.00  0.00    -0.270 OA
ATOM     19  N   UNL     1      32.897  -6.826 -23.698  0.00  0.00    -0.298 N 
ATOM     20  C   UNL     1      33.830  -7.771 -23.279  0.00  0.00    +0.252 C 
ATOM     21  H   UNL     1      31.979  -7.120 -23.900  0.00  0.00    +0.150 HD
BRANCH  19  22
ATOM     22  C   UNL     1      33.233  -5.427 -23.845  0.00  0.00    +0.105 C 
BRANCH  22  23
ATOM     23  C   UNL     1      33.754  -5.160 -25.244  0.00  0.00    -0.004 C 
ATOM     24  C   UNL     1      35.083  -5.419 -25.527  0.00  0.00    -0.003 C 
ATOM     25  C   UNL     1      32.889  -4.663 -26.201  0.00  0.00    -0.003 C 
ATOM     26  C   UNL     1      35.563  -5.174 -26.814  0.00  0.00    -0.000 C 
ATOM     27  C   UNL     1      33.369  -4.417 -27.487  0.00  0.00    -0.000 C 
ATOM     28  C   UNL     1      34.706  -4.671 -27.793  0.00  0.00    -0.000 C 
ENDBRANCH  22  23
BRANCH  22  29
ATOM     29  C   UNL     1      32.032  -4.548 -23.458  0.00  0.00    +0.133 C 
BRANCH  29  31
ATOM     30  O   UNL     1      30.103  -5.064 -22.057  0.00  0.00    -0.250 OA
ATOM     31  C   UNL     1      31.316  -5.026 -22.212  0.00  0.00    +0.316 C 
BRANCH  31  32
ATOM     32  O   UNL     1      32.196  -5.395 -21.244  0.00  0.00    -0.480 OA
ATOM     33  H   UNL     1      31.880  -5.694 -20.414  0.00  0.00    +0.295 HD
ENDBRANCH  31  32
ENDBRANCH  29  31
ENDBRANCH  22  29
ENDBRANCH  19  22
ENDBRANCH   2  20
TORSDOF 8
ENDMDL
