MODEL 1
REMARK VINA RESULT:     -11.2      0.000      0.000
REMARK  Name = 25134248
REMARK  7 active torsions:
REMARK  status: ('A' for Active; 'I' for Inactive)
REMARK    1  A    between atoms: N_2  and  C_20
REMARK    2  A    between atoms: C_3  and  C_7
REMARK    3  A    between atoms: C_11  and  C_12
REMARK    4  A    between atoms: C_12  and  C_13
REMARK    5  A    between atoms: C_13  and  C_14
REMARK    6  A    between atoms: C_20  and  C_21
REMARK    7  A    between atoms: C_26  and  C_29
REMARK                            x       y       z     vdW  Elec       q    Type
REMARK                         _______ _______ _______ _____ _____    ______ ____
ROOT
ATOM      1  O   UNL     1      35.130 -23.949 -13.182  0.00  0.00    -0.273 OA
ATOM      2  N   UNL     1      33.574 -25.186 -14.393  0.00  0.00    -0.299 N 
ATOM      3  C   UNL     1      34.827 -24.655 -14.140  0.00  0.00    +0.241 C 
ATOM      4  H   UNL     1      33.454 -25.740 -15.199  0.00  0.00    +0.150 HD
ENDROOT
BRANCH   3   7
ATOM      5  O   UNL     1      37.100 -21.958 -16.692  0.00  0.00    -0.275 OA
ATOM      6  N   UNL     1      36.642 -23.884 -15.500  0.00  0.00    -0.273 N 
ATOM      7  C   UNL     1      35.834 -25.057 -15.177  0.00  0.00    +0.152 C 
ATOM      8  C   UNL     1      36.830 -26.059 -14.600  0.00  0.00    +0.031 C 
ATOM      9  C   UNL     1      37.973 -23.987 -14.917  0.00  0.00    +0.094 C 
ATOM     10  C   UNL     1      37.899 -25.173 -13.967  0.00  0.00    +0.024 C 
ATOM     11  C   UNL     1      36.315 -22.849 -16.361  0.00  0.00    +0.226 C 
BRANCH  11  12
ATOM     12  C   UNL     1      34.907 -22.853 -16.900  0.00  0.00    +0.085 C 
BRANCH  12  13
ATOM     13  C   UNL     1      34.918 -22.987 -18.414  0.00  0.00    +0.010 C 
BRANCH  13  14
ATOM     14  C   UNL     1      34.643 -21.665 -19.128  0.00  0.00    +0.000 C 
ATOM     15  C   UNL     1      35.784 -21.323 -20.094  0.00  0.00    +0.000 C 
ATOM     16  C   UNL     1      33.299 -21.718 -19.867  0.00  0.00    +0.000 C 
ATOM     17  C   UNL     1      35.507 -20.032 -20.861  0.00  0.00    +0.000 C 
ATOM     18  C   UNL     1      33.026 -20.426 -20.633  0.00  0.00    +0.000 C 
ATOM     19  C   UNL     1      34.167 -20.085 -21.586  0.00  0.00    +0.000 C 
ENDBRANCH  13  14
ENDBRANCH  12  13
ENDBRANCH  11  12
ENDBRANCH   3   7
BRANCH   2  20
ATOM     20  C   UNL     1      32.435 -24.968 -13.532  0.00  0.00    +0.116 C 
BRANCH  20  21
ATOM     21  C   UNL     1      31.229 -24.508 -14.300  0.00  0.00    -0.003 C 
ATOM     22  C   UNL     1      30.212 -25.413 -14.606  0.00  0.00    -0.003 C 
ATOM     23  C   UNL     1      31.125 -23.178 -14.706  0.00  0.00    -0.003 C 
ATOM     24  C   UNL     1      29.091 -24.987 -15.319  0.00  0.00    +0.002 C 
ATOM     25  C   UNL     1      30.005 -22.752 -15.419  0.00  0.00    +0.002 C 
ATOM     26  C   UNL     1      28.987 -23.656 -15.725  0.00  0.00    +0.031 C 
BRANCH  26  29
ATOM     27  N   UNL     1      26.823 -22.447 -15.863  0.00  0.00    -0.343 N 
ATOM     28  N   UNL     1      27.685 -23.537 -17.741  0.00  0.00    -0.285 NA
ATOM     29  C   UNL     1      27.818 -23.212 -16.467  0.00  0.00    +0.117 C 
ATOM     30  H   UNL     1      26.040 -22.157 -16.384  0.00  0.00    +0.144 HD
ATOM     31  H   UNL     1      26.903 -22.197 -14.914  0.00  0.00    +0.144 HD
ATOM     32  H   UNL     1      26.894 -23.237 -18.246  0.00  0.00    +0.188 HD
ENDBRANCH  26  29
ENDBRANCH  20  21
ENDBRANCH   2  20
TORSDOF 7
ENDMDL
MODEL 2
REMARK VINA RESULT:     -11.2      2.747      6.527
REMARK  Name = 25134248
REMARK  7 active torsions:
REMARK  status: ('A' for Active; 'I' for Inactive)
REMARK    1  A    between atoms: N_2  and  C_20
REMARK    2  A    between atoms: C_3  and  C_7
REMARK    3  A    between atoms: C_11  and  C_12
REMARK    4  A    between atoms: C_12  and  C_13
REMARK    5  A    between atoms: C_13  and  C_14
REMARK    6  A    between atoms: C_20  and  C_21
REMARK    7  A    between atoms: C_26  and  C_29
REMARK                            x       y       z     vdW  Elec       q    Type
REMARK                         _______ _______ _______ _____ _____    ______ ____
ROOT
ATOM      1  O   UNL     1      34.962 -24.947 -16.126  0.00  0.00    -0.273 OA
ATOM      2  N   UNL     1      34.722 -22.787 -16.960  0.00  0.00    -0.299 N 
ATOM      3  C   UNL     1      35.088 -23.731 -16.016  0.00  0.00    +0.241 C 
ATOM      4  H   UNL     1      34.873 -21.836 -16.755  0.00  0.00    +0.150 HD
ENDROOT
BRANCH   3   7
ATOM      5  O   UNL     1      34.710 -25.168 -11.924  0.00  0.00    -0.275 OA
ATOM      6  N   UNL     1      35.683 -24.095 -13.724  0.00  0.00    -0.273 N 
ATOM      7  C   UNL     1      35.703 -23.106 -14.799  0.00  0.00    +0.152 C 
ATOM      8  C   UNL     1      37.185 -22.823 -15.029  0.00  0.00    +0.031 C 
ATOM      9  C   UNL     1      37.015 -24.634 -13.483  0.00  0.00    +0.094 C 
ATOM     10  C   UNL     1      37.861 -24.137 -14.644  0.00  0.00    +0.024 C 
ATOM     11  C   UNL     1      34.618 -24.419 -12.899  0.00  0.00    +0.226 C 
BRANCH  11  12
ATOM     12  C   UNL     1      33.292 -23.796 -13.252  0.00  0.00    +0.085 C 
BRANCH  12  13
ATOM     13  C   UNL     1      32.241 -24.872 -13.472  0.00  0.00    +0.010 C 
BRANCH  13  14
ATOM     14  C   UNL     1      31.433 -24.660 -14.750  0.00  0.00    +0.000 C 
ATOM     15  C   UNL     1      29.950 -24.974 -14.512  0.00  0.00    +0.000 C 
ATOM     16  C   UNL     1      31.611 -23.229 -15.273  0.00  0.00    +0.000 C 
ATOM     17  C   UNL     1      29.111 -24.718 -15.762  0.00  0.00    +0.000 C 
ATOM     18  C   UNL     1      30.770 -22.976 -16.522  0.00  0.00    +0.000 C 
ATOM     19  C   UNL     1      29.298 -23.297 -16.284  0.00  0.00    +0.000 C 
ENDBRANCH  13  14
ENDBRANCH  12  13
ENDBRANCH  11  12
ENDBRANCH   3   7
BRANCH   2  20
ATOM     20  C   UNL     1      34.128 -23.131 -18.232  0.00  0.00    +0.116 C 
BRANCH  20  21
ATOM     21  C   UNL     1      34.344 -22.060 -19.261  0.00  0.00    -0.003 C 
ATOM     22  C   UNL     1      33.248 -21.423 -19.844  0.00  0.00    -0.003 C 
ATOM     23  C   UNL     1      35.638 -21.698 -19.633  0.00  0.00    -0.003 C 
ATOM     24  C   UNL     1      33.447 -20.426 -20.799  0.00  0.00    +0.002 C 
ATOM     25  C   UNL     1      35.838 -20.702 -20.588  0.00  0.00    +0.002 C 
ATOM     26  C   UNL     1      34.742 -20.065 -21.171  0.00  0.00    +0.031 C 
BRANCH  26  29
ATOM     27  N   UNL     1      35.555 -17.814 -21.835  0.00  0.00    -0.343 N 
ATOM     28  N   UNL     1      34.558 -19.220 -23.413  0.00  0.00    -0.285 NA
ATOM     29  C   UNL     1      34.950 -19.026 -22.166  0.00  0.00    +0.117 C 
ATOM     30  H   UNL     1      35.685 -17.125 -22.524  0.00  0.00    +0.144 HD
ATOM     31  H   UNL     1      35.850 -17.650 -20.910  0.00  0.00    +0.144 HD
ATOM     32  H   UNL     1      34.697 -18.518 -24.088  0.00  0.00    +0.188 HD
ENDBRANCH  26  29
ENDBRANCH  20  21
ENDBRANCH   2  20
TORSDOF 7
ENDMDL
MODEL 3
REMARK VINA RESULT:      -9.8      8.870     12.715
REMARK  Name = 25134248
REMARK  7 active torsions:
REMARK  status: ('A' for Active; 'I' for Inactive)
REMARK    1  A    between atoms: N_2  and  C_20
REMARK    2  A    between atoms: C_3  and  C_7
REMARK    3  A    between atoms: C_11  and  C_12
REMARK    4  A    between atoms: C_12  and  C_13
REMARK    5  A    between atoms: C_13  and  C_14
REMARK    6  A    between atoms: C_20  and  C_21
REMARK    7  A    between atoms: C_26  and  C_29
REMARK                            x       y       z     vdW  Elec       q    Type
REMARK                         _______ _______ _______ _____ _____    ______ ____
ROOT
ATOM      1  O   UNL     1      33.919 -14.798 -21.309  0.00  0.00    -0.273 OA
ATOM      2  N   UNL     1      32.762 -13.218 -22.567  0.00  0.00    -0.299 N 
ATOM      3  C   UNL     1      33.732 -14.182 -22.355  0.00  0.00    +0.241 C 
ATOM      4  H   UNL     1      32.711 -12.792 -23.454  0.00  0.00    +0.150 HD
ENDROOT
BRANCH   3   7
ATOM      5  O   UNL     1      34.365 -18.038 -24.273  0.00  0.00    -0.275 OA
ATOM      6  N   UNL     1      34.183 -15.740 -24.117  0.00  0.00    -0.273 N 
ATOM      7  C   UNL     1      34.559 -14.435 -23.580  0.00  0.00    +0.152 C 
ATOM      8  C   UNL     1      34.197 -13.448 -24.687  0.00  0.00    +0.031 C 
ATOM      9  C   UNL     1      33.377 -15.598 -25.323  0.00  0.00    +0.094 C 
ATOM     10  C   UNL     1      33.023 -14.121 -25.392  0.00  0.00    +0.024 C 
ATOM     11  C   UNL     1      34.618 -16.983 -23.688  0.00  0.00    +0.226 C 
BRANCH  11  12
ATOM     12  C   UNL     1      35.445 -16.998 -22.427  0.00  0.00    +0.085 C 
BRANCH  12  13
ATOM     13  C   UNL     1      36.224 -18.298 -22.319  0.00  0.00    +0.010 C 
BRANCH  13  14
ATOM     14  C   UNL     1      35.787 -19.153 -21.131  0.00  0.00    +0.000 C 
ATOM     15  C   UNL     1      34.490 -19.907 -21.453  0.00  0.00    +0.000 C 
ATOM     16  C   UNL     1      36.900 -20.130 -20.727  0.00  0.00    +0.000 C 
ATOM     17  C   UNL     1      34.061 -20.811 -20.300  0.00  0.00    +0.000 C 
ATOM     18  C   UNL     1      36.467 -21.033 -19.575  0.00  0.00    +0.000 C 
ATOM     19  C   UNL     1      35.173 -21.773 -19.896  0.00  0.00    +0.000 C 
ENDBRANCH  13  14
ENDBRANCH  12  13
ENDBRANCH  11  12
ENDBRANCH   3   7
BRANCH   2  20
ATOM     20  C   UNL     1      31.820 -12.808 -21.551  0.00  0.00    +0.116 C 
BRANCH  20  21
ATOM     21  C   UNL     1      31.927 -11.342 -21.244  0.00  0.00    -0.003 C 
ATOM     22  C   UNL     1      32.111 -10.425 -22.278  0.00  0.00    -0.003 C 
ATOM     23  C   UNL     1      31.842 -10.897 -19.925  0.00  0.00    -0.003 C 
ATOM     24  C   UNL     1      32.210  -9.063 -21.994  0.00  0.00    +0.002 C 
ATOM     25  C   UNL     1      31.941  -9.535 -19.640  0.00  0.00    +0.002 C 
ATOM     26  C   UNL     1      32.124  -8.618 -20.675  0.00  0.00    +0.031 C 
BRANCH  26  29
ATOM     27  N   UNL     1      31.445  -6.259 -21.050  0.00  0.00    -0.343 N 
ATOM     28  N   UNL     1      33.076  -6.777 -19.458  0.00  0.00    -0.285 NA
ATOM     29  C   UNL     1      32.227  -7.198 -20.379  0.00  0.00    +0.117 C 
ATOM     30  H   UNL     1      31.531  -5.303 -20.834  0.00  0.00    +0.144 HD
ATOM     31  H   UNL     1      30.809  -6.553 -21.741  0.00  0.00    +0.144 HD
ATOM     32  H   UNL     1      33.147  -5.816 -19.256  0.00  0.00    +0.188 HD
ENDBRANCH  26  29
ENDBRANCH  20  21
ENDBRANCH   2  20
TORSDOF 7
ENDMDL
MODEL 4
REMARK VINA RESULT:      -9.2     10.288     14.276
REMARK  Name = 25134248
REMARK  7 active torsions:
REMARK  status: ('A' for Active; 'I' for Inactive)
REMARK    1  A    between atoms: N_2  and  C_20
REMARK    2  A    between atoms: C_3  and  C_7
REMARK    3  A    between atoms: C_11  and  C_12
REMARK    4  A    between atoms: C_12  and  C_13
REMARK    5  A    between atoms: C_13  and  C_14
REMARK    6  A    between atoms: C_20  and  C_21
REMARK    7  A    between atoms: C_26  and  C_29
REMARK                            x       y       z     vdW  Elec       q    Type
REMARK                         _______ _______ _______ _____ _____    ______ ____
ROOT
ATOM      1  O   UNL     1      32.836 -13.885 -22.491  0.00  0.00    -0.273 OA
ATOM      2  N   UNL     1      32.950 -11.608 -22.960  0.00  0.00    -0.299 N 
ATOM      3  C   UNL     1      33.250 -12.944 -23.163  0.00  0.00    +0.241 C 
ATOM      4  H   UNL     1      33.345 -10.941 -23.568  0.00  0.00    +0.150 HD
ENDROOT
BRANCH   3   7
ATOM      5  O   UNL     1      33.516 -16.549 -25.588  0.00  0.00    -0.275 OA
ATOM      6  N   UNL     1      33.648 -14.294 -25.101  0.00  0.00    -0.273 N 
ATOM      7  C   UNL     1      34.150 -13.150 -24.344  0.00  0.00    +0.152 C 
ATOM      8  C   UNL     1      34.045 -11.976 -25.313  0.00  0.00    +0.031 C 
ATOM      9  C   UNL     1      32.995 -13.864 -26.330  0.00  0.00    +0.094 C 
ATOM     10  C   UNL     1      32.863 -12.355 -26.201  0.00  0.00    +0.024 C 
ATOM     11  C   UNL     1      33.857 -15.637 -24.832  0.00  0.00    +0.226 C 
BRANCH  11  12
ATOM     12  C   UNL     1      34.544 -15.954 -23.528  0.00  0.00    +0.085 C 
BRANCH  12  13
ATOM     13  C   UNL     1      35.300 -17.268 -23.632  0.00  0.00    +0.010 C 
BRANCH  13  14
ATOM     14  C   UNL     1      35.305 -18.055 -22.323  0.00  0.00    +0.000 C 
ATOM     15  C   UNL     1      34.321 -19.231 -22.394  0.00  0.00    +0.000 C 
ATOM     16  C   UNL     1      36.720 -18.546 -21.990  0.00  0.00    +0.000 C 
ATOM     17  C   UNL     1      34.347 -20.066 -21.116  0.00  0.00    +0.000 C 
ATOM     18  C   UNL     1      36.741 -19.381 -20.713  0.00  0.00    +0.000 C 
ATOM     19  C   UNL     1      35.756 -20.544 -20.784  0.00  0.00    +0.000 C 
ENDBRANCH  13  14
ENDBRANCH  12  13
ENDBRANCH  11  12
ENDBRANCH   3   7
BRANCH   2  20
ATOM     20  C   UNL     1      32.083 -11.145 -21.900  0.00  0.00    +0.116 C 
BRANCH  20  21
ATOM     21  C   UNL     1      31.896  -9.655 -21.939  0.00  0.00    -0.003 C 
ATOM     22  C   UNL     1      32.137  -8.893 -20.795  0.00  0.00    -0.003 C 
ATOM     23  C   UNL     1      31.483  -9.033 -23.116  0.00  0.00    -0.003 C 
ATOM     24  C   UNL     1      31.964  -7.510 -20.830  0.00  0.00    +0.002 C 
ATOM     25  C   UNL     1      31.309  -7.650 -23.152  0.00  0.00    +0.002 C 
ATOM     26  C   UNL     1      31.551  -6.888 -22.008  0.00  0.00    +0.031 C 
BRANCH  26  29
ATOM     27  N   UNL     1      32.008  -4.659 -23.003  0.00  0.00    -0.343 N 
ATOM     28  N   UNL     1      30.594  -4.856 -21.153  0.00  0.00    -0.285 NA
ATOM     29  C   UNL     1      31.372  -5.445 -22.044  0.00  0.00    +0.117 C 
ATOM     30  H   UNL     1      31.873  -3.684 -23.009  0.00  0.00    +0.144 HD
ATOM     31  H   UNL     1      32.594  -5.079 -23.674  0.00  0.00    +0.144 HD
ATOM     32  H   UNL     1      30.471  -3.879 -21.176  0.00  0.00    +0.188 HD
ENDBRANCH  26  29
ENDBRANCH  20  21
ENDBRANCH   2  20
TORSDOF 7
ENDMDL
MODEL 5
REMARK VINA RESULT:      -9.1     10.938     14.876
REMARK  Name = 25134248
REMARK  7 active torsions:
REMARK  status: ('A' for Active; 'I' for Inactive)
REMARK    1  A    between atoms: N_2  and  C_20
REMARK    2  A    between atoms: C_3  and  C_7
REMARK    3  A    between atoms: C_11  and  C_12
REMARK    4  A    between atoms: C_12  and  C_13
REMARK    5  A    between atoms: C_13  and  C_14
REMARK    6  A    between atoms: C_20  and  C_21
REMARK    7  A    between atoms: C_26  and  C_29
REMARK                            x       y       z     vdW  Elec       q    Type
REMARK                         _______ _______ _______ _____ _____    ______ ____
ROOT
ATOM      1  O   UNL     1      32.238 -13.105 -22.660  0.00  0.00    -0.273 OA
ATOM      2  N   UNL     1      32.907 -10.881 -22.822  0.00  0.00    -0.299 N 
ATOM      3  C   UNL     1      32.973 -12.233 -23.116  0.00  0.00    +0.241 C 
ATOM      4  H   UNL     1      33.555 -10.276 -23.252  0.00  0.00    +0.150 HD
ENDROOT
BRANCH   3   7
ATOM      5  O   UNL     1      33.201 -15.777 -25.632  0.00  0.00    -0.275 OA
ATOM      6  N   UNL     1      33.558 -13.582 -25.006  0.00  0.00    -0.273 N 
ATOM      7  C   UNL     1      34.055 -12.547 -24.104  0.00  0.00    +0.152 C 
ATOM      8  C   UNL     1      34.323 -11.348 -25.010  0.00  0.00    +0.031 C 
ATOM      9  C   UNL     1      33.240 -13.028 -26.316  0.00  0.00    +0.094 C 
ATOM     10  C   UNL     1      33.305 -11.520 -26.134  0.00  0.00    +0.024 C 
ATOM     11  C   UNL     1      33.509 -14.947 -24.775  0.00  0.00    +0.226 C 
BRANCH  11  12
ATOM     12  C   UNL     1      33.861 -15.397 -23.379  0.00  0.00    +0.085 C 
BRANCH  12  13
ATOM     13  C   UNL     1      35.338 -15.739 -23.289  0.00  0.00    +0.010 C 
BRANCH  13  14
ATOM     14  C   UNL     1      35.587 -17.198 -22.911  0.00  0.00    +0.000 C 
ATOM     15  C   UNL     1      35.367 -17.414 -21.408  0.00  0.00    +0.000 C 
ATOM     16  C   UNL     1      34.690 -18.132 -23.734  0.00  0.00    +0.000 C 
ATOM     17  C   UNL     1      35.557 -18.877 -21.014  0.00  0.00    +0.000 C 
ATOM     18  C   UNL     1      34.882 -19.593 -23.337  0.00  0.00    +0.000 C 
ATOM     19  C   UNL     1      34.671 -19.802 -21.841  0.00  0.00    +0.000 C 
ENDBRANCH  13  14
ENDBRANCH  12  13
ENDBRANCH  11  12
ENDBRANCH   3   7
BRANCH   2  20
ATOM     20  C   UNL     1      31.935 -10.316 -21.915  0.00  0.00    +0.116 C 
BRANCH  20  21
ATOM     21  C   UNL     1      31.749  -8.843 -22.138  0.00  0.00    -0.003 C 
ATOM     22  C   UNL     1      31.999  -7.943 -21.102  0.00  0.00    -0.003 C 
ATOM     23  C   UNL     1      31.327  -8.373 -23.382  0.00  0.00    -0.003 C 
ATOM     24  C   UNL     1      31.827  -6.575 -21.308  0.00  0.00    +0.002 C 
ATOM     25  C   UNL     1      31.155  -7.005 -23.589  0.00  0.00    +0.002 C 
ATOM     26  C   UNL     1      31.405  -6.105 -22.552  0.00  0.00    +0.031 C 
BRANCH  26  29
ATOM     27  N   UNL     1      30.363  -3.927 -21.973  0.00  0.00    -0.343 N 
ATOM     28  N   UNL     1      31.890  -4.071 -23.736  0.00  0.00    -0.285 NA
ATOM     29  C   UNL     1      31.227  -4.678 -22.768  0.00  0.00    +0.117 C 
ATOM     30  H   UNL     1      30.258  -2.962 -22.137  0.00  0.00    +0.144 HD
ATOM     31  H   UNL     1      29.858  -4.362 -21.249  0.00  0.00    +0.144 HD
ATOM     32  H   UNL     1      31.771  -3.105 -23.884  0.00  0.00    +0.188 HD
ENDBRANCH  26  29
ENDBRANCH  20  21
ENDBRANCH   2  20
TORSDOF 7
ENDMDL
MODEL 6
REMARK VINA RESULT:      -9.1      3.914      8.728
REMARK  Name = 25134248
REMARK  7 active torsions:
REMARK  status: ('A' for Active; 'I' for Inactive)
REMARK    1  A    between atoms: N_2  and  C_20
REMARK    2  A    between atoms: C_3  and  C_7
REMARK    3  A    between atoms: C_11  and  C_12
REMARK    4  A    between atoms: C_12  and  C_13
REMARK    5  A    between atoms: C_13  and  C_14
REMARK    6  A    between atoms: C_20  and  C_21
REMARK    7  A    between atoms: C_26  and  C_29
REMARK                            x       y       z     vdW  Elec       q    Type
REMARK                         _______ _______ _______ _____ _____    ______ ____
ROOT
ATOM      1  O   UNL     1      36.787 -21.297 -17.943  0.00  0.00    -0.273 OA
ATOM      2  N   UNL     1      35.905 -20.980 -20.074  0.00  0.00    -0.299 N 
ATOM      3  C   UNL     1      36.067 -21.650 -18.873  0.00  0.00    +0.241 C 
ATOM      4  H   UNL     1      35.296 -21.364 -20.746  0.00  0.00    +0.150 HD
ENDROOT
BRANCH   3   7
ATOM      5  O   UNL     1      34.053 -23.174 -15.328  0.00  0.00    -0.275 OA
ATOM      6  N   UNL     1      34.424 -22.819 -17.581  0.00  0.00    -0.273 N 
ATOM      7  C   UNL     1      35.228 -22.890 -18.798  0.00  0.00    +0.152 C 
ATOM      8  C   UNL     1      34.204 -22.918 -19.930  0.00  0.00    +0.031 C 
ATOM      9  C   UNL     1      33.031 -22.520 -17.889  0.00  0.00    +0.094 C 
ATOM     10  C   UNL     1      33.024 -22.136 -19.360  0.00  0.00    +0.024 C 
ATOM     11  C   UNL     1      34.822 -23.128 -16.290  0.00  0.00    +0.226 C 
BRANCH  11  12
ATOM     12  C   UNL     1      36.289 -23.419 -16.100  0.00  0.00    +0.085 C 
BRANCH  12  13
ATOM     13  C   UNL     1      36.808 -22.736 -14.845  0.00  0.00    +0.010 C 
BRANCH  13  14
ATOM     14  C   UNL     1      37.323 -23.725 -13.802  0.00  0.00    +0.000 C 
ATOM     15  C   UNL     1      36.170 -24.249 -12.935  0.00  0.00    +0.000 C 
ATOM     16  C   UNL     1      38.070 -24.884 -14.475  0.00  0.00    +0.000 C 
ATOM     17  C   UNL     1      36.652 -25.281 -11.918  0.00  0.00    +0.000 C 
ATOM     18  C   UNL     1      38.549 -25.914 -13.456  0.00  0.00    +0.000 C 
ATOM     19  C   UNL     1      37.402 -26.426 -12.590  0.00  0.00    +0.000 C 
ENDBRANCH  13  14
ENDBRANCH  12  13
ENDBRANCH  11  12
ENDBRANCH   3   7
BRANCH   2  20
ATOM     20  C   UNL     1      36.585 -19.744 -20.387  0.00  0.00    +0.116 C 
BRANCH  20  21
ATOM     21  C   UNL     1      35.963 -19.042 -21.560  0.00  0.00    -0.003 C 
ATOM     22  C   UNL     1      35.995 -17.649 -21.636  0.00  0.00    -0.003 C 
ATOM     23  C   UNL     1      35.356 -19.781 -22.574  0.00  0.00    -0.003 C 
ATOM     24  C   UNL     1      35.418 -16.997 -22.725  0.00  0.00    +0.002 C 
ATOM     25  C   UNL     1      34.779 -19.129 -23.664  0.00  0.00    +0.002 C 
ATOM     26  C   UNL     1      34.811 -17.737 -23.740  0.00  0.00    +0.031 C 
BRANCH  26  29
ATOM     27  N   UNL     1      33.829 -15.717 -24.801  0.00  0.00    -0.343 N 
ATOM     28  N   UNL     1      34.015 -17.710 -26.007  0.00  0.00    -0.285 NA
ATOM     29  C   UNL     1      34.211 -17.056 -24.876  0.00  0.00    +0.117 C 
ATOM     30  H   UNL     1      33.425 -15.276 -25.582  0.00  0.00    +0.144 HD
ATOM     31  H   UNL     1      33.964 -15.214 -23.965  0.00  0.00    +0.144 HD
ATOM     32  H   UNL     1      33.610 -17.251 -26.778  0.00  0.00    +0.188 HD
ENDBRANCH  26  29
ENDBRANCH  20  21
ENDBRANCH   2  20
TORSDOF 7
ENDMDL
MODEL 7
REMARK VINA RESULT:      -9.0     13.285     16.902
REMARK  Name = 25134248
REMARK  7 active torsions:
REMARK  status: ('A' for Active; 'I' for Inactive)
REMARK    1  A    between atoms: N_2  and  C_20
REMARK    2  A    between atoms: C_3  and  C_7
REMARK    3  A    between atoms: C_11  and  C_12
REMARK    4  A    between atoms: C_12  and  C_13
REMARK    5  A    between atoms: C_13  and  C_14
REMARK    6  A    between atoms: C_20  and  C_21
REMARK    7  A    between atoms: C_26  and  C_29
REMARK                            x       y       z     vdW  Elec       q    Type
REMARK                         _______ _______ _______ _____ _____    ______ ____
ROOT
ATOM      1  O   UNL     1      31.274  -8.463 -23.329  0.00  0.00    -0.273 OA
ATOM      2  N   UNL     1      32.378  -9.921 -21.890  0.00  0.00    -0.299 N 
ATOM      3  C   UNL     1      32.134  -8.695 -22.483  0.00  0.00    +0.241 C 
ATOM      4  H   UNL     1      33.099  -9.983 -21.221  0.00  0.00    +0.150 HD
ENDROOT
BRANCH   3   7
ATOM      5  O   UNL     1      31.968  -4.469 -23.515  0.00  0.00    -0.275 OA
ATOM      6  N   UNL     1      32.408  -6.330 -22.218  0.00  0.00    -0.273 N 
ATOM      7  C   UNL     1      33.040  -7.621 -21.961  0.00  0.00    +0.152 C 
ATOM      8  C   UNL     1      33.145  -7.698 -20.440  0.00  0.00    +0.031 C 
ATOM      9  C   UNL     1      31.873  -5.754 -20.992  0.00  0.00    +0.094 C 
ATOM     10  C   UNL     1      31.957  -6.868 -19.961  0.00  0.00    +0.024 C 
ATOM     11  C   UNL     1      32.407  -5.615 -23.406  0.00  0.00    +0.226 C 
BRANCH  11  12
ATOM     12  C   UNL     1      32.989  -6.321 -24.605  0.00  0.00    +0.085 C 
BRANCH  12  13
ATOM     13  C   UNL     1      34.434  -5.902 -24.817  0.00  0.00    +0.010 C 
BRANCH  13  14
ATOM     14  C   UNL     1      34.588  -4.828 -25.893  0.00  0.00    +0.000 C 
ATOM     15  C   UNL     1      35.895  -5.025 -26.672  0.00  0.00    +0.000 C 
ATOM     16  C   UNL     1      33.381  -4.832 -26.840  0.00  0.00    +0.000 C 
ATOM     17  C   UNL     1      36.047  -3.995 -27.789  0.00  0.00    +0.000 C 
ATOM     18  C   UNL     1      33.537  -3.802 -27.956  0.00  0.00    +0.000 C 
ATOM     19  C   UNL     1      34.841  -3.996 -28.723  0.00  0.00    +0.000 C 
ENDBRANCH  13  14
ENDBRANCH  12  13
ENDBRANCH  11  12
ENDBRANCH   3   7
BRANCH   2  20
ATOM     20  C   UNL     1      31.625 -11.115 -22.202  0.00  0.00    +0.116 C 
BRANCH  20  21
ATOM     21  C   UNL     1      32.490 -12.342 -22.197  0.00  0.00    -0.003 C 
ATOM     22  C   UNL     1      33.316 -12.616 -23.288  0.00  0.00    -0.003 C 
ATOM     23  C   UNL     1      32.470 -13.207 -21.103  0.00  0.00    -0.003 C 
ATOM     24  C   UNL     1      34.121 -13.756 -23.284  0.00  0.00    +0.002 C 
ATOM     25  C   UNL     1      33.274 -14.346 -21.099  0.00  0.00    +0.002 C 
ATOM     26  C   UNL     1      34.101 -14.620 -22.189  0.00  0.00    +0.031 C 
BRANCH  26  29
ATOM     27  N   UNL     1      35.145 -16.547 -21.022  0.00  0.00    -0.343 N 
ATOM     28  N   UNL     1      35.529 -16.201 -23.301  0.00  0.00    -0.285 NA
ATOM     29  C   UNL     1      34.940 -15.807 -22.185  0.00  0.00    +0.117 C 
ATOM     30  H   UNL     1      35.717 -17.347 -21.042  0.00  0.00    +0.144 HD
ATOM     31  H   UNL     1      34.718 -16.268 -20.180  0.00  0.00    +0.144 HD
ATOM     32  H   UNL     1      36.098 -17.005 -23.301  0.00  0.00    +0.188 HD
ENDBRANCH  26  29
ENDBRANCH  20  21
ENDBRANCH   2  20
TORSDOF 7
ENDMDL
MODEL 8
REMARK VINA RESULT:      -8.9      7.594     11.638
REMARK  Name = 25134248
REMARK  7 active torsions:
REMARK  status: ('A' for Active; 'I' for Inactive)
REMARK    1  A    between atoms: N_2  and  C_20
REMARK    2  A    between atoms: C_3  and  C_7
REMARK    3  A    between atoms: C_11  and  C_12
REMARK    4  A    between atoms: C_12  and  C_13
REMARK    5  A    between atoms: C_13  and  C_14
REMARK    6  A    between atoms: C_20  and  C_21
REMARK    7  A    between atoms: C_26  and  C_29
REMARK                            x       y       z     vdW  Elec       q    Type
REMARK                         _______ _______ _______ _____ _____    ______ ____
ROOT
ATOM      1  O   UNL     1      35.350 -14.918 -22.910  0.00  0.00    -0.273 OA
ATOM      2  N   UNL     1      34.827 -17.103 -23.520  0.00  0.00    -0.299 N 
ATOM      3  C   UNL     1      34.620 -15.735 -23.463  0.00  0.00    +0.241 C 
ATOM      4  H   UNL     1      34.167 -17.658 -23.995  0.00  0.00    +0.150 HD
ENDROOT
BRANCH   3   7
ATOM      5  O   UNL     1      33.647 -11.703 -24.784  0.00  0.00    -0.275 OA
ATOM      6  N   UNL     1      33.624 -14.014 -24.798  0.00  0.00    -0.273 N 
ATOM      7  C   UNL     1      33.378 -15.320 -24.193  0.00  0.00    +0.152 C 
ATOM      8  C   UNL     1      33.114 -16.245 -25.378  0.00  0.00    +0.031 C 
ATOM      9  C   UNL     1      33.808 -14.129 -26.239  0.00  0.00    +0.094 C 
ATOM     10  C   UNL     1      33.933 -15.621 -26.504  0.00  0.00    +0.024 C 
ATOM     11  C   UNL     1      33.558 -12.775 -24.181  0.00  0.00    +0.226 C 
BRANCH  11  12
ATOM     12  C   UNL     1      33.365 -12.788 -22.686  0.00  0.00    +0.085 C 
BRANCH  12  13
ATOM     13  C   UNL     1      31.888 -12.695 -22.341  0.00  0.00    +0.010 C 
BRANCH  13  14
ATOM     14  C   UNL     1      31.535 -11.416 -21.584  0.00  0.00    +0.000 C 
ATOM     15  C   UNL     1      31.992 -11.507 -20.122  0.00  0.00    +0.000 C 
ATOM     16  C   UNL     1      32.150 -10.191 -22.273  0.00  0.00    +0.000 C 
ATOM     17  C   UNL     1      31.698 -10.219 -19.358  0.00  0.00    +0.000 C 
ATOM     18  C   UNL     1      31.855  -8.905 -21.505  0.00  0.00    +0.000 C 
ATOM     19  C   UNL     1      32.302  -9.003 -20.050  0.00  0.00    +0.000 C 
ENDBRANCH  13  14
ENDBRANCH  12  13
ENDBRANCH  11  12
ENDBRANCH   3   7
BRANCH   2  20
ATOM     20  C   UNL     1      35.966 -17.755 -22.915  0.00  0.00    +0.116 C 
BRANCH  20  21
ATOM     21  C   UNL     1      35.553 -18.858 -21.983  0.00  0.00    -0.003 C 
ATOM     22  C   UNL     1      34.227 -19.289 -21.959  0.00  0.00    -0.003 C 
ATOM     23  C   UNL     1      36.494 -19.452 -21.143  0.00  0.00    -0.003 C 
ATOM     24  C   UNL     1      33.842 -20.315 -21.095  0.00  0.00    +0.002 C 
ATOM     25  C   UNL     1      36.111 -20.477 -20.279  0.00  0.00    +0.002 C 
ATOM     26  C   UNL     1      34.784 -20.909 -20.255  0.00  0.00    +0.031 C 
BRANCH  26  29
ATOM     27  N   UNL     1      33.057 -22.400 -19.275  0.00  0.00    -0.343 N 
ATOM     28  N   UNL     1      35.285 -22.567 -18.590  0.00  0.00    -0.285 NA
ATOM     29  C   UNL     1      34.383 -21.978 -19.355  0.00  0.00    +0.117 C 
ATOM     30  H   UNL     1      32.808 -23.125 -18.659  0.00  0.00    +0.144 HD
ATOM     31  H   UNL     1      32.370 -21.971 -19.835  0.00  0.00    +0.144 HD
ATOM     32  H   UNL     1      35.015 -23.292 -17.980  0.00  0.00    +0.188 HD
ENDBRANCH  26  29
ENDBRANCH  20  21
ENDBRANCH   2  20
TORSDOF 7
ENDMDL
MODEL 9
REMARK VINA RESULT:      -8.9     11.530     15.431
REMARK  Name = 25134248
REMARK  7 active torsions:
REMARK  status: ('A' for Active; 'I' for Inactive)
REMARK    1  A    between atoms: N_2  and  C_20
REMARK    2  A    between atoms: C_3  and  C_7
REMARK    3  A    between atoms: C_11  and  C_12
REMARK    4  A    between atoms: C_12  and  C_13
REMARK    5  A    between atoms: C_13  and  C_14
REMARK    6  A    between atoms: C_20  and  C_21
REMARK    7  A    between atoms: C_26  and  C_29
REMARK                            x       y       z     vdW  Elec       q    Type
REMARK                         _______ _______ _______ _____ _____    ______ ____
ROOT
ATOM      1  O   UNL     1      34.114 -11.579 -23.790  0.00  0.00    -0.273 OA
ATOM      2  N   UNL     1      32.759  -9.822 -23.086  0.00  0.00    -0.299 N 
ATOM      3  C   UNL     1      33.097 -11.155 -23.248  0.00  0.00    +0.241 C 
ATOM      4  H   UNL     1      31.911  -9.606 -22.633  0.00  0.00    +0.150 HD
ENDROOT
BRANCH   3   7
ATOM      5  O   UNL     1      33.917 -14.794 -21.004  0.00  0.00    -0.275 OA
ATOM      6  N   UNL     1      32.743 -12.916 -21.663  0.00  0.00    -0.273 N 
ATOM      7  C   UNL     1      32.074 -12.076 -22.654  0.00  0.00    +0.152 C 
ATOM      8  C   UNL     1      31.041 -11.289 -21.852  0.00  0.00    +0.031 C 
ATOM      9  C   UNL     1      32.400 -12.503 -20.309  0.00  0.00    +0.094 C 
ATOM     10  C   UNL     1      31.678 -11.175 -20.470  0.00  0.00    +0.024 C 
ATOM     11  C   UNL     1      33.492 -14.058 -21.897  0.00  0.00    +0.226 C 
BRANCH  11  12
ATOM     12  C   UNL     1      33.780 -14.379 -23.342  0.00  0.00    +0.085 C 
BRANCH  12  13
ATOM     13  C   UNL     1      34.919 -15.380 -23.447  0.00  0.00    +0.010 C 
BRANCH  13  14
ATOM     14  C   UNL     1      34.431 -16.816 -23.621  0.00  0.00    +0.000 C 
ATOM     15  C   UNL     1      34.396 -17.200 -25.106  0.00  0.00    +0.000 C 
ATOM     16  C   UNL     1      35.314 -17.789 -22.827  0.00  0.00    +0.000 C 
ATOM     17  C   UNL     1      33.962 -18.651 -25.304  0.00  0.00    +0.000 C 
ATOM     18  C   UNL     1      34.878 -19.238 -23.028  0.00  0.00    +0.000 C 
ATOM     19  C   UNL     1      34.835 -19.613 -24.506  0.00  0.00    +0.000 C 
ENDBRANCH  13  14
ENDBRANCH  12  13
ENDBRANCH  11  12
ENDBRANCH   3   7
BRANCH   2  20
ATOM     20  C   UNL     1      33.589  -8.734 -23.549  0.00  0.00    +0.116 C 
BRANCH  20  21
ATOM     21  C   UNL     1      32.871  -7.416 -23.493  0.00  0.00    -0.003 C 
ATOM     22  C   UNL     1      31.659  -7.311 -22.809  0.00  0.00    -0.003 C 
ATOM     23  C   UNL     1      33.415  -6.297 -24.121  0.00  0.00    -0.003 C 
ATOM     24  C   UNL     1      30.992  -6.088 -22.755  0.00  0.00    +0.002 C 
ATOM     25  C   UNL     1      32.749  -5.073 -24.068  0.00  0.00    +0.002 C 
ATOM     26  C   UNL     1      31.538  -4.968 -23.384  0.00  0.00    +0.031 C 
BRANCH  26  29
ATOM     27  N   UNL     1      30.354  -3.185 -22.124  0.00  0.00    -0.343 N 
ATOM     28  N   UNL     1      30.661  -2.991 -24.432  0.00  0.00    -0.285 NA
ATOM     29  C   UNL     1      30.842  -3.692 -23.327  0.00  0.00    +0.117 C 
ATOM     30  H   UNL     1      29.887  -2.320 -22.108  0.00  0.00    +0.144 HD
ATOM     31  H   UNL     1      30.477  -3.695 -21.290  0.00  0.00    +0.144 HD
ATOM     32  H   UNL     1      30.191  -2.127 -24.396  0.00  0.00    +0.188 HD
ENDBRANCH  26  29
ENDBRANCH  20  21
ENDBRANCH   2  20
TORSDOF 7
ENDMDL
