MODEL 1
REMARK VINA RESULT:     -11.4      0.000      0.000
REMARK  Name = 445579
REMARK  10 active torsions:
REMARK  status: ('A' for Active; 'I' for Inactive)
REMARK    1  A    between atoms: C_1  and  O_18
REMARK    2  A    between atoms: C_4  and  C_9
REMARK    3  A    between atoms: N_8  and  C_11
REMARK    4  A    between atoms: C_11  and  C_12
REMARK    5  A    between atoms: O_18  and  C_24
REMARK    6  A    between atoms: C_20  and  O_27
REMARK    7  A    between atoms: C_21  and  O_25
REMARK    8  A    between atoms: C_22  and  C_31
REMARK    9  A    between atoms: C_23  and  O_29
REMARK   10  A    between atoms: C_31  and  O_32
REMARK                            x       y       z     vdW  Elec       q    Type
REMARK                         _______ _______ _______ _____ _____    ______ ____
ROOT
ATOM      1  C   UNL     1      33.798 -24.047 -15.091  0.00  0.00    +0.142 C 
ATOM      2  C   UNL     1      34.076 -23.745 -16.421  0.00  0.00    +0.042 C 
ATOM      3  C   UNL     1      32.515 -23.871 -14.580  0.00  0.00    +0.037 C 
ATOM      4  C   UNL     1      33.061 -23.262 -17.247  0.00  0.00    +0.056 C 
ATOM      5  C   UNL     1      31.502 -23.389 -15.407  0.00  0.00    +0.003 C 
ATOM      6  C   UNL     1      31.774 -23.084 -16.741  0.00  0.00    +0.005 C 
ENDROOT
BRANCH   4   9
ATOM      7  O   UNL     1      33.828 -23.781 -19.415  0.00  0.00    -0.270 OA
ATOM      8  N   UNL     1      33.014 -21.655 -19.055  0.00  0.00    -0.297 N 
ATOM      9  C   UNL     1      33.346 -22.945 -18.638  0.00  0.00    +0.246 C 
ATOM     10  H   UNL     1      32.632 -21.029 -18.396  0.00  0.00    +0.150 HD
BRANCH   8  11
ATOM     11  C   UNL     1      33.206 -21.199 -20.413  0.00  0.00    +0.117 C 
BRANCH  11  12
ATOM     12  C   UNL     1      34.543 -20.543 -20.602  0.00  0.00    -0.003 C 
ATOM     13  C   UNL     1      34.633 -19.361 -21.328  0.00  0.00    -0.003 C 
ATOM     14  C   UNL     1      35.679 -21.125 -20.050  0.00  0.00    -0.003 C 
ATOM     15  C   UNL     1      35.875 -18.751 -21.504  0.00  0.00    -0.000 C 
ATOM     16  C   UNL     1      36.921 -20.514 -20.225  0.00  0.00    -0.000 C 
ATOM     17  C   UNL     1      37.019 -19.328 -20.953  0.00  0.00    -0.000 C 
ENDBRANCH  11  12
ENDBRANCH   8  11
ENDBRANCH   4   9
BRANCH   1  18
ATOM     18  O   UNL     1      34.793 -24.521 -14.280  0.00  0.00    -0.451 OA
BRANCH  18  24
ATOM     19  O   UNL     1      36.651 -23.260 -13.534  0.00  0.00    -0.316 OA
ATOM     20  C   UNL     1      37.736 -25.143 -12.416  0.00  0.00    +0.169 C 
ATOM     21  C   UNL     1      37.244 -26.076 -13.526  0.00  0.00    +0.173 C 
ATOM     22  C   UNL     1      36.795 -23.940 -12.276  0.00  0.00    +0.177 C 
ATOM     23  C   UNL     1      37.029 -25.290 -14.819  0.00  0.00    +0.210 C 
ATOM     24  C   UNL     1      36.119 -24.085 -14.574  0.00  0.00    +0.318 C 
BRANCH  21  25
ATOM     25  O   UNL     1      38.199 -27.108 -13.755  0.00  0.00    -0.379 OA
ATOM     26  H   UNL     1      39.053 -26.849 -13.374  0.00  0.00    +0.211 HD
ENDBRANCH  21  25
BRANCH  20  27
ATOM     27  O   UNL     1      39.047 -24.671 -12.735  0.00  0.00    -0.379 OA
ATOM     28  H   UNL     1      39.189 -24.735 -13.692  0.00  0.00    +0.211 HD
ENDBRANCH  20  27
BRANCH  23  29
ATOM     29  O   UNL     1      36.446 -26.125 -15.815  0.00  0.00    -0.377 OA
ATOM     30  H   UNL     1      36.695 -25.800 -16.695  0.00  0.00    +0.211 HD
ENDBRANCH  23  29
BRANCH  22  31
ATOM     31  C   UNL     1      37.304 -22.918 -11.267  0.00  0.00    +0.169 C 
BRANCH  31  32
ATOM     32  O   UNL     1      38.250 -22.080 -11.908  0.00  0.00    -0.379 OA
ATOM     33  H   UNL     1      38.358 -21.264 -11.397  0.00  0.00    +0.211 HD
ENDBRANCH  31  32
ENDBRANCH  22  31
ENDBRANCH  18  24
ENDBRANCH   1  18
TORSDOF 10
ENDMDL
MODEL 2
REMARK VINA RESULT:     -11.3      1.100      2.265
REMARK  Name = 445579
REMARK  10 active torsions:
REMARK  status: ('A' for Active; 'I' for Inactive)
REMARK    1  A    between atoms: C_1  and  O_18
REMARK    2  A    between atoms: C_4  and  C_9
REMARK    3  A    between atoms: N_8  and  C_11
REMARK    4  A    between atoms: C_11  and  C_12
REMARK    5  A    between atoms: O_18  and  C_24
REMARK    6  A    between atoms: C_20  and  O_27
REMARK    7  A    between atoms: C_21  and  O_25
REMARK    8  A    between atoms: C_22  and  C_31
REMARK    9  A    between atoms: C_23  and  O_29
REMARK   10  A    between atoms: C_31  and  O_32
REMARK                            x       y       z     vdW  Elec       q    Type
REMARK                         _______ _______ _______ _____ _____    ______ ____
ROOT
ATOM      1  C   UNL     1      34.215 -23.506 -15.162  0.00  0.00    +0.142 C 
ATOM      2  C   UNL     1      34.405 -23.244 -16.515  0.00  0.00    +0.042 C 
ATOM      3  C   UNL     1      32.931 -23.630 -14.640  0.00  0.00    +0.037 C 
ATOM      4  C   UNL     1      33.300 -23.103 -17.355  0.00  0.00    +0.056 C 
ATOM      5  C   UNL     1      31.826 -23.490 -15.480  0.00  0.00    +0.003 C 
ATOM      6  C   UNL     1      32.010 -23.227 -16.837  0.00  0.00    +0.005 C 
ENDROOT
BRANCH   4   9
ATOM      7  O   UNL     1      33.896 -23.699 -19.556  0.00  0.00    -0.270 OA
ATOM      8  N   UNL     1      33.166 -21.542 -19.197  0.00  0.00    -0.297 N 
ATOM      9  C   UNL     1      33.493 -22.830 -18.770  0.00  0.00    +0.246 C 
ATOM     10  H   UNL     1      32.849 -20.889 -18.530  0.00  0.00    +0.150 HD
BRANCH   8  11
ATOM     11  C   UNL     1      33.273 -21.126 -20.577  0.00  0.00    +0.117 C 
BRANCH  11  12
ATOM     12  C   UNL     1      34.541 -20.367 -20.839  0.00  0.00    -0.003 C 
ATOM     13  C   UNL     1      34.515 -19.246 -21.661  0.00  0.00    -0.003 C 
ATOM     14  C   UNL     1      35.731 -20.793 -20.258  0.00  0.00    -0.003 C 
ATOM     15  C   UNL     1      35.694 -18.541 -21.905  0.00  0.00    -0.000 C 
ATOM     16  C   UNL     1      36.909 -20.087 -20.502  0.00  0.00    -0.000 C 
ATOM     17  C   UNL     1      36.890 -18.962 -21.325  0.00  0.00    -0.000 C 
ENDBRANCH  11  12
ENDBRANCH   8  11
ENDBRANCH   4   9
BRANCH   1  18
ATOM     18  O   UNL     1      35.299 -23.644 -14.338  0.00  0.00    -0.451 OA
BRANCH  18  24
ATOM     19  O   UNL     1      36.496 -25.679 -14.189  0.00  0.00    -0.316 OA
ATOM     20  C   UNL     1      38.107 -24.846 -12.551  0.00  0.00    +0.169 C 
ATOM     21  C   UNL     1      36.999 -24.015 -11.896  0.00  0.00    +0.173 C 
ATOM     22  C   UNL     1      37.791 -25.077 -14.034  0.00  0.00    +0.177 C 
ATOM     23  C   UNL     1      35.636 -24.653 -12.159  0.00  0.00    +0.210 C 
ATOM     24  C   UNL     1      35.429 -24.890 -13.656  0.00  0.00    +0.318 C 
BRANCH  21  25
ATOM     25  O   UNL     1      37.218 -23.933 -10.491  0.00  0.00    -0.379 OA
ATOM     26  H   UNL     1      37.221 -23.002 -10.217  0.00  0.00    +0.211 HD
ENDBRANCH  21  25
BRANCH  20  27
ATOM     27  O   UNL     1      38.205 -26.112 -11.895  0.00  0.00    -0.379 OA
ATOM     28  H   UNL     1      37.483 -26.201 -11.254  0.00  0.00    +0.211 HD
ENDBRANCH  20  27
BRANCH  23  29
ATOM     29  O   UNL     1      34.594 -23.816 -11.667  0.00  0.00    -0.377 OA
ATOM     30  H   UNL     1      34.047 -24.314 -11.039  0.00  0.00    +0.211 HD
ENDBRANCH  23  29
BRANCH  22  31
ATOM     31  C   UNL     1      38.801 -26.000 -14.706  0.00  0.00    +0.169 C 
BRANCH  31  32
ATOM     32  O   UNL     1      38.337 -27.334 -14.597  0.00  0.00    -0.379 OA
ATOM     33  H   UNL     1      39.074 -27.915 -14.355  0.00  0.00    +0.211 HD
ENDBRANCH  31  32
ENDBRANCH  22  31
ENDBRANCH  18  24
ENDBRANCH   1  18
TORSDOF 10
ENDMDL
MODEL 3
REMARK VINA RESULT:     -11.1      1.772      2.907
REMARK  Name = 445579
REMARK  10 active torsions:
REMARK  status: ('A' for Active; 'I' for Inactive)
REMARK    1  A    between atoms: C_1  and  O_18
REMARK    2  A    between atoms: C_4  and  C_9
REMARK    3  A    between atoms: N_8  and  C_11
REMARK    4  A    between atoms: C_11  and  C_12
REMARK    5  A    between atoms: O_18  and  C_24
REMARK    6  A    between atoms: C_20  and  O_27
REMARK    7  A    between atoms: C_21  and  O_25
REMARK    8  A    between atoms: C_22  and  C_31
REMARK    9  A    between atoms: C_23  and  O_29
REMARK   10  A    between atoms: C_31  and  O_32
REMARK                            x       y       z     vdW  Elec       q    Type
REMARK                         _______ _______ _______ _____ _____    ______ ____
ROOT
ATOM      1  C   UNL     1      32.723 -24.269 -13.739  0.00  0.00    +0.142 C 
ATOM      2  C   UNL     1      32.585 -23.554 -14.925  0.00  0.00    +0.042 C 
ATOM      3  C   UNL     1      31.764 -25.204 -13.362  0.00  0.00    +0.037 C 
ATOM      4  C   UNL     1      31.475 -23.776 -15.741  0.00  0.00    +0.056 C 
ATOM      5  C   UNL     1      30.656 -25.426 -14.179  0.00  0.00    +0.003 C 
ATOM      6  C   UNL     1      30.511 -24.712 -15.368  0.00  0.00    +0.005 C 
ENDROOT
BRANCH   4   9
ATOM      7  O   UNL     1      30.225 -22.611 -17.365  0.00  0.00    -0.270 OA
ATOM      8  N   UNL     1      32.499 -22.790 -17.699  0.00  0.00    -0.297 N 
ATOM      9  C   UNL     1      31.326 -23.031 -16.982  0.00  0.00    +0.246 C 
ATOM     10  H   UNL     1      33.348 -23.146 -17.349  0.00  0.00    +0.150 HD
BRANCH   8  11
ATOM     11  C   UNL     1      32.519 -22.038 -18.933  0.00  0.00    +0.117 C 
BRANCH  11  12
ATOM     12  C   UNL     1      33.915 -21.669 -19.343  0.00  0.00    -0.003 C 
ATOM     13  C   UNL     1      34.999 -22.228 -18.674  0.00  0.00    -0.003 C 
ATOM     14  C   UNL     1      34.111 -20.773 -20.388  0.00  0.00    -0.003 C 
ATOM     15  C   UNL     1      36.296 -21.884 -19.055  0.00  0.00    -0.000 C 
ATOM     16  C   UNL     1      35.408 -20.431 -20.769  0.00  0.00    -0.000 C 
ATOM     17  C   UNL     1      36.501 -20.986 -20.103  0.00  0.00    -0.000 C 
ENDBRANCH  11  12
ENDBRANCH   8  11
ENDBRANCH   4   9
BRANCH   1  18
ATOM     18  O   UNL     1      33.811 -24.051 -12.938  0.00  0.00    -0.451 OA
BRANCH  18  24
ATOM     19  O   UNL     1      35.669 -24.533 -14.321  0.00  0.00    -0.316 OA
ATOM     20  C   UNL     1      37.222 -23.116 -13.074  0.00  0.00    +0.169 C 
ATOM     21  C   UNL     1      36.519 -23.507 -11.771  0.00  0.00    +0.173 C 
ATOM     22  C   UNL     1      36.247 -23.220 -14.255  0.00  0.00    +0.177 C 
ATOM     23  C   UNL     1      35.853 -24.874 -11.920  0.00  0.00    +0.210 C 
ATOM     24  C   UNL     1      34.939 -24.899 -13.148  0.00  0.00    +0.318 C 
BRANCH  21  25
ATOM     25  O   UNL     1      37.463 -23.558 -10.705  0.00  0.00    -0.379 OA
ATOM     26  H   UNL     1      38.356 -23.413 -11.056  0.00  0.00    +0.211 HD
ENDBRANCH  21  25
BRANCH  20  27
ATOM     27  O   UNL     1      38.324 -23.996 -13.306  0.00  0.00    -0.379 OA
ATOM     28  H   UNL     1      38.975 -23.555 -13.874  0.00  0.00    +0.211 HD
ENDBRANCH  20  27
BRANCH  23  29
ATOM     29  O   UNL     1      35.089 -25.182 -10.759  0.00  0.00    -0.377 OA
ATOM     30  H   UNL     1      34.143 -25.112 -10.966  0.00  0.00    +0.211 HD
ENDBRANCH  23  29
BRANCH  22  31
ATOM     31  C   UNL     1      36.927 -22.958 -15.594  0.00  0.00    +0.169 C 
BRANCH  31  32
ATOM     32  O   UNL     1      37.647 -24.118 -15.971  0.00  0.00    -0.379 OA
ATOM     33  H   UNL     1      37.833 -24.089 -16.921  0.00  0.00    +0.211 HD
ENDBRANCH  31  32
ENDBRANCH  22  31
ENDBRANCH  18  24
ENDBRANCH   1  18
TORSDOF 10
ENDMDL
MODEL 4
REMARK VINA RESULT:     -11.0      2.097      3.700
REMARK  Name = 445579
REMARK  10 active torsions:
REMARK  status: ('A' for Active; 'I' for Inactive)
REMARK    1  A    between atoms: C_1  and  O_18
REMARK    2  A    between atoms: C_4  and  C_9
REMARK    3  A    between atoms: N_8  and  C_11
REMARK    4  A    between atoms: C_11  and  C_12
REMARK    5  A    between atoms: O_18  and  C_24
REMARK    6  A    between atoms: C_20  and  O_27
REMARK    7  A    between atoms: C_21  and  O_25
REMARK    8  A    between atoms: C_22  and  C_31
REMARK    9  A    between atoms: C_23  and  O_29
REMARK   10  A    between atoms: C_31  and  O_32
REMARK                            x       y       z     vdW  Elec       q    Type
REMARK                         _______ _______ _______ _____ _____    ______ ____
ROOT
ATOM      1  C   UNL     1      35.170 -22.872 -17.016  0.00  0.00    +0.142 C 
ATOM      2  C   UNL     1      35.994 -22.139 -17.865  0.00  0.00    +0.042 C 
ATOM      3  C   UNL     1      33.874 -23.202 -17.401  0.00  0.00    +0.037 C 
ATOM      4  C   UNL     1      35.517 -21.731 -19.111  0.00  0.00    +0.056 C 
ATOM      5  C   UNL     1      33.398 -22.795 -18.647  0.00  0.00    +0.003 C 
ATOM      6  C   UNL     1      34.219 -22.060 -19.502  0.00  0.00    +0.005 C 
ENDROOT
BRANCH   4   9
ATOM      7  O   UNL     1      37.514 -21.345 -20.301  0.00  0.00    -0.270 OA
ATOM      8  N   UNL     1      35.824 -19.795 -20.528  0.00  0.00    -0.297 N 
ATOM      9  C   UNL     1      36.374 -20.966 -20.002  0.00  0.00    +0.246 C 
ATOM     10  H   UNL     1      34.911 -19.539 -20.258  0.00  0.00    +0.150 HD
BRANCH   8  11
ATOM     11  C   UNL     1      36.537 -18.943 -21.452  0.00  0.00    +0.117 C 
BRANCH  11  12
ATOM     12  C   UNL     1      35.687 -18.549 -22.624  0.00  0.00    -0.003 C 
ATOM     13  C   UNL     1      35.001 -19.527 -23.336  0.00  0.00    -0.003 C 
ATOM     14  C   UNL     1      35.595 -17.210 -22.989  0.00  0.00    -0.003 C 
ATOM     15  C   UNL     1      34.211 -19.161 -24.426  0.00  0.00    -0.000 C 
ATOM     16  C   UNL     1      34.805 -16.845 -24.078  0.00  0.00    -0.000 C 
ATOM     17  C   UNL     1      34.113 -17.820 -24.797  0.00  0.00    -0.000 C 
ENDBRANCH  11  12
ENDBRANCH   8  11
ENDBRANCH   4   9
BRANCH   1  18
ATOM     18  O   UNL     1      35.638 -23.271 -15.794  0.00  0.00    -0.451 OA
BRANCH  18  24
ATOM     19  O   UNL     1      36.436 -25.466 -15.414  0.00  0.00    -0.316 OA
ATOM     20  C   UNL     1      36.959 -25.085 -13.057  0.00  0.00    +0.169 C 
ATOM     21  C   UNL     1      35.728 -24.181 -12.938  0.00  0.00    +0.173 C 
ATOM     22  C   UNL     1      37.479 -25.088 -14.501  0.00  0.00    +0.177 C 
ATOM     23  C   UNL     1      34.684 -24.573 -13.983  0.00  0.00    +0.210 C 
ATOM     24  C   UNL     1      35.303 -24.595 -15.383  0.00  0.00    +0.318 C 
BRANCH  21  25
ATOM     25  O   UNL     1      35.160 -24.301 -11.637  0.00  0.00    -0.379 OA
ATOM     26  H   UNL     1      35.790 -24.744 -11.048  0.00  0.00    +0.211 HD
ENDBRANCH  21  25
BRANCH  20  27
ATOM     27  O   UNL     1      36.609 -26.421 -12.688  0.00  0.00    -0.379 OA
ATOM     28  H   UNL     1      37.031 -26.644 -11.844  0.00  0.00    +0.211 HD
ENDBRANCH  20  27
BRANCH  23  29
ATOM     29  O   UNL     1      33.597 -23.653 -13.964  0.00  0.00    -0.377 OA
ATOM     30  H   UNL     1      32.826 -24.072 -13.550  0.00  0.00    +0.211 HD
ENDBRANCH  23  29
BRANCH  22  31
ATOM     31  C   UNL     1      38.631 -26.065 -14.701  0.00  0.00    +0.169 C 
BRANCH  31  32
ATOM     32  O   UNL     1      38.102 -27.376 -14.795  0.00  0.00    -0.379 OA
ATOM     33  H   UNL     1      38.660 -27.909 -15.381  0.00  0.00    +0.211 HD
ENDBRANCH  31  32
ENDBRANCH  22  31
ENDBRANCH  18  24
ENDBRANCH   1  18
TORSDOF 10
ENDMDL
MODEL 5
REMARK VINA RESULT:     -10.8      2.616      4.145
REMARK  Name = 445579
REMARK  10 active torsions:
REMARK  status: ('A' for Active; 'I' for Inactive)
REMARK    1  A    between atoms: C_1  and  O_18
REMARK    2  A    between atoms: C_4  and  C_9
REMARK    3  A    between atoms: N_8  and  C_11
REMARK    4  A    between atoms: C_11  and  C_12
REMARK    5  A    between atoms: O_18  and  C_24
REMARK    6  A    between atoms: C_20  and  O_27
REMARK    7  A    between atoms: C_21  and  O_25
REMARK    8  A    between atoms: C_22  and  C_31
REMARK    9  A    between atoms: C_23  and  O_29
REMARK   10  A    between atoms: C_31  and  O_32
REMARK                            x       y       z     vdW  Elec       q    Type
REMARK                         _______ _______ _______ _____ _____    ______ ____
ROOT
ATOM      1  C   UNL     1      35.098 -22.632 -18.116  0.00  0.00    +0.142 C 
ATOM      2  C   UNL     1      35.839 -21.728 -18.871  0.00  0.00    +0.042 C 
ATOM      3  C   UNL     1      33.732 -22.780 -18.334  0.00  0.00    +0.037 C 
ATOM      4  C   UNL     1      35.207 -20.965 -19.853  0.00  0.00    +0.056 C 
ATOM      5  C   UNL     1      33.101 -22.017 -19.316  0.00  0.00    +0.003 C 
ATOM      6  C   UNL     1      33.838 -21.110 -20.076  0.00  0.00    +0.005 C 
ENDROOT
BRANCH   4   9
ATOM      7  O   UNL     1      37.139 -19.708 -20.348  0.00  0.00    -0.270 OA
ATOM      8  N   UNL     1      35.343 -19.508 -21.779  0.00  0.00    -0.297 N 
ATOM      9  C   UNL     1      35.978 -20.019 -20.646  0.00  0.00    +0.246 C 
ATOM     10  H   UNL     1      34.418 -19.789 -21.970  0.00  0.00    +0.150 HD
BRANCH   8  11
ATOM     11  C   UNL     1      35.987 -18.584 -22.684  0.00  0.00    +0.117 C 
BRANCH  11  12
ATOM     12  C   UNL     1      35.063 -18.131 -23.777  0.00  0.00    -0.003 C 
ATOM     13  C   UNL     1      34.295 -19.068 -24.460  0.00  0.00    -0.003 C 
ATOM     14  C   UNL     1      34.984 -16.780 -24.097  0.00  0.00    -0.003 C 
ATOM     15  C   UNL     1      33.437 -18.648 -25.477  0.00  0.00    -0.000 C 
ATOM     16  C   UNL     1      34.125 -16.361 -25.113  0.00  0.00    -0.000 C 
ATOM     17  C   UNL     1      33.352 -17.294 -25.802  0.00  0.00    -0.000 C 
ENDBRANCH  11  12
ENDBRANCH   8  11
ENDBRANCH   4   9
BRANCH   1  18
ATOM     18  O   UNL     1      35.717 -23.380 -17.152  0.00  0.00    -0.451 OA
BRANCH  18  24
ATOM     19  O   UNL     1      34.756 -22.997 -15.025  0.00  0.00    -0.316 OA
ATOM     20  C   UNL     1      35.771 -24.963 -13.988  0.00  0.00    +0.169 C 
ATOM     21  C   UNL     1      37.033 -24.746 -14.829  0.00  0.00    +0.173 C 
ATOM     22  C   UNL     1      34.546 -24.382 -14.706  0.00  0.00    +0.177 C 
ATOM     23  C   UNL     1      37.165 -23.272 -15.210  0.00  0.00    +0.210 C 
ATOM     24  C   UNL     1      35.882 -22.768 -15.875  0.00  0.00    +0.318 C 
BRANCH  21  25
ATOM     25  O   UNL     1      38.184 -25.148 -14.093  0.00  0.00    -0.379 OA
ATOM     26  H   UNL     1      38.978 -24.763 -14.498  0.00  0.00    +0.211 HD
ENDBRANCH  21  25
BRANCH  20  27
ATOM     27  O   UNL     1      35.921 -24.310 -12.725  0.00  0.00    -0.379 OA
ATOM     28  H   UNL     1      35.200 -24.579 -12.135  0.00  0.00    +0.211 HD
ENDBRANCH  20  27
BRANCH  23  29
ATOM     29  O   UNL     1      38.261 -23.087 -16.101  0.00  0.00    -0.377 OA
ATOM     30  H   UNL     1      38.908 -22.488 -15.697  0.00  0.00    +0.211 HD
ENDBRANCH  23  29
BRANCH  22  31
ATOM     31  C   UNL     1      33.283 -24.464 -13.858  0.00  0.00    +0.169 C 
BRANCH  31  32
ATOM     32  O   UNL     1      33.345 -23.466 -12.855  0.00  0.00    -0.379 OA
ATOM     33  H   UNL     1      33.992 -22.791 -13.109  0.00  0.00    +0.211 HD
ENDBRANCH  31  32
ENDBRANCH  22  31
ENDBRANCH  18  24
ENDBRANCH   1  18
TORSDOF 10
ENDMDL
MODEL 6
REMARK VINA RESULT:     -10.2      1.732      2.675
REMARK  Name = 445579
REMARK  10 active torsions:
REMARK  status: ('A' for Active; 'I' for Inactive)
REMARK    1  A    between atoms: C_1  and  O_18
REMARK    2  A    between atoms: C_4  and  C_9
REMARK    3  A    between atoms: N_8  and  C_11
REMARK    4  A    between atoms: C_11  and  C_12
REMARK    5  A    between atoms: O_18  and  C_24
REMARK    6  A    between atoms: C_20  and  O_27
REMARK    7  A    between atoms: C_21  and  O_25
REMARK    8  A    between atoms: C_22  and  C_31
REMARK    9  A    between atoms: C_23  and  O_29
REMARK   10  A    between atoms: C_31  and  O_32
REMARK                            x       y       z     vdW  Elec       q    Type
REMARK                         _______ _______ _______ _____ _____    ______ ____
ROOT
ATOM      1  C   UNL     1      34.933 -23.268 -16.637  0.00  0.00    +0.142 C 
ATOM      2  C   UNL     1      35.832 -22.620 -17.479  0.00  0.00    +0.042 C 
ATOM      3  C   UNL     1      33.590 -23.376 -16.986  0.00  0.00    +0.037 C 
ATOM      4  C   UNL     1      35.383 -22.075 -18.683  0.00  0.00    +0.056 C 
ATOM      5  C   UNL     1      33.143 -22.832 -18.189  0.00  0.00    +0.003 C 
ATOM      6  C   UNL     1      34.038 -22.182 -19.038  0.00  0.00    +0.005 C 
ENDROOT
BRANCH   4   9
ATOM      7  O   UNL     1      37.414 -21.893 -19.864  0.00  0.00    -0.270 OA
ATOM      8  N   UNL     1      35.895 -20.174 -20.088  0.00  0.00    -0.297 N 
ATOM      9  C   UNL     1      36.318 -21.398 -19.567  0.00  0.00    +0.246 C 
ATOM     10  H   UNL     1      35.013 -19.826 -19.820  0.00  0.00    +0.150 HD
BRANCH   8  11
ATOM     11  C   UNL     1      36.696 -19.396 -21.005  0.00  0.00    +0.117 C 
BRANCH  11  12
ATOM     12  C   UNL     1      35.878 -18.838 -22.132  0.00  0.00    -0.003 C 
ATOM     13  C   UNL     1      35.117 -19.695 -22.920  0.00  0.00    -0.003 C 
ATOM     14  C   UNL     1      35.890 -17.469 -22.380  0.00  0.00    -0.003 C 
ATOM     15  C   UNL     1      34.357 -19.176 -23.968  0.00  0.00    -0.000 C 
ATOM     16  C   UNL     1      35.129 -16.952 -23.427  0.00  0.00    -0.000 C 
ATOM     17  C   UNL     1      34.363 -17.804 -24.222  0.00  0.00    -0.000 C 
ENDBRANCH  11  12
ENDBRANCH   8  11
ENDBRANCH   4   9
BRANCH   1  18
ATOM     18  O   UNL     1      35.373 -23.802 -15.457  0.00  0.00    -0.451 OA
BRANCH  18  24
ATOM     19  O   UNL     1      37.431 -23.291 -14.406  0.00  0.00    -0.316 OA
ATOM     20  C   UNL     1      37.167 -24.948 -12.630  0.00  0.00    +0.169 C 
ATOM     21  C   UNL     1      36.491 -25.897 -13.625  0.00  0.00    +0.173 C 
ATOM     22  C   UNL     1      36.964 -23.491 -13.063  0.00  0.00    +0.177 C 
ATOM     23  C   UNL     1      36.960 -25.590 -15.047  0.00  0.00    +0.210 C 
ATOM     24  C   UNL     1      36.764 -24.108 -15.372  0.00  0.00    +0.318 C 
BRANCH  21  25
ATOM     25  O   UNL     1      36.811 -27.247 -13.305  0.00  0.00    -0.379 OA
ATOM     26  H   UNL     1      35.996 -27.773 -13.265  0.00  0.00    +0.211 HD
ENDBRANCH  21  25
BRANCH  20  27
ATOM     27  O   UNL     1      38.568 -25.226 -12.581  0.00  0.00    -0.379 OA
ATOM     28  H   UNL     1      38.722 -26.154 -12.820  0.00  0.00    +0.211 HD
ENDBRANCH  20  27
BRANCH  23  29
ATOM     29  O   UNL     1      36.236 -26.378 -15.987  0.00  0.00    -0.377 OA
ATOM     30  H   UNL     1      36.355 -26.009 -16.877  0.00  0.00    +0.211 HD
ENDBRANCH  23  29
BRANCH  22  31
ATOM     31  C   UNL     1      37.719 -22.510 -12.173  0.00  0.00    +0.169 C 
BRANCH  31  32
ATOM     32  O   UNL     1      37.778 -23.042 -10.861  0.00  0.00    -0.379 OA
ATOM     33  H   UNL     1      37.732 -22.320 -10.216  0.00  0.00    +0.211 HD
ENDBRANCH  31  32
ENDBRANCH  22  31
ENDBRANCH  18  24
ENDBRANCH   1  18
TORSDOF 10
ENDMDL
MODEL 7
REMARK VINA RESULT:     -10.2      1.786      2.625
REMARK  Name = 445579
REMARK  10 active torsions:
REMARK  status: ('A' for Active; 'I' for Inactive)
REMARK    1  A    between atoms: C_1  and  O_18
REMARK    2  A    between atoms: C_4  and  C_9
REMARK    3  A    between atoms: N_8  and  C_11
REMARK    4  A    between atoms: C_11  and  C_12
REMARK    5  A    between atoms: O_18  and  C_24
REMARK    6  A    between atoms: C_20  and  O_27
REMARK    7  A    between atoms: C_21  and  O_25
REMARK    8  A    between atoms: C_22  and  C_31
REMARK    9  A    between atoms: C_23  and  O_29
REMARK   10  A    between atoms: C_31  and  O_32
REMARK                            x       y       z     vdW  Elec       q    Type
REMARK                         _______ _______ _______ _____ _____    ______ ____
ROOT
ATOM      1  C   UNL     1      33.493 -24.528 -14.345  0.00  0.00    +0.142 C 
ATOM      2  C   UNL     1      33.144 -23.798 -15.478  0.00  0.00    +0.042 C 
ATOM      3  C   UNL     1      32.517 -25.186 -13.602  0.00  0.00    +0.037 C 
ATOM      4  C   UNL     1      31.807 -23.724 -15.870  0.00  0.00    +0.056 C 
ATOM      5  C   UNL     1      31.181 -25.113 -13.995  0.00  0.00    +0.003 C 
ATOM      6  C   UNL     1      30.826 -24.382 -15.128  0.00  0.00    +0.005 C 
ENDROOT
BRANCH   4   9
ATOM      7  O   UNL     1      30.275 -22.586 -17.252  0.00  0.00    -0.270 OA
ATOM      8  N   UNL     1      32.475 -22.655 -17.934  0.00  0.00    -0.297 N 
ATOM      9  C   UNL     1      31.438 -22.963 -17.053  0.00  0.00    +0.246 C 
ATOM     10  H   UNL     1      33.383 -22.979 -17.727  0.00  0.00    +0.150 HD
BRANCH   8  11
ATOM     11  C   UNL     1      32.275 -21.879 -19.136  0.00  0.00    +0.117 C 
BRANCH  11  12
ATOM     12  C   UNL     1      33.572 -21.399 -19.719  0.00  0.00    -0.003 C 
ATOM     13  C   UNL     1      34.767 -21.978 -19.306  0.00  0.00    -0.003 C 
ATOM     14  C   UNL     1      33.566 -20.381 -20.666  0.00  0.00    -0.003 C 
ATOM     15  C   UNL     1      35.973 -21.531 -19.848  0.00  0.00    -0.000 C 
ATOM     16  C   UNL     1      34.772 -19.936 -21.208  0.00  0.00    -0.000 C 
ATOM     17  C   UNL     1      35.975 -20.511 -20.798  0.00  0.00    -0.000 C 
ENDBRANCH  11  12
ENDBRANCH   8  11
ENDBRANCH   4   9
BRANCH   1  18
ATOM     18  O   UNL     1      34.804 -24.600 -13.961  0.00  0.00    -0.451 OA
BRANCH  18  24
ATOM     19  O   UNL     1      36.147 -24.121 -15.849  0.00  0.00    -0.316 OA
ATOM     20  C   UNL     1      38.137 -23.563 -14.544  0.00  0.00    +0.169 C 
ATOM     21  C   UNL     1      37.771 -24.656 -13.534  0.00  0.00    +0.173 C 
ATOM     22  C   UNL     1      36.875 -23.041 -15.242  0.00  0.00    +0.177 C 
ATOM     23  C   UNL     1      36.931 -25.739 -14.210  0.00  0.00    +0.210 C 
ATOM     24  C   UNL     1      35.723 -25.121 -14.919  0.00  0.00    +0.318 C 
BRANCH  21  25
ATOM     25  O   UNL     1      38.955 -25.243 -13.002  0.00  0.00    -0.379 OA
ATOM     26  H   UNL     1      39.652 -24.571 -12.943  0.00  0.00    +0.211 HD
ENDBRANCH  21  25
BRANCH  20  27
ATOM     27  O   UNL     1      39.022 -24.100 -15.529  0.00  0.00    -0.379 OA
ATOM     28  H   UNL     1      39.549 -24.814 -15.136  0.00  0.00    +0.211 HD
ENDBRANCH  20  27
BRANCH  23  29
ATOM     29  O   UNL     1      36.478 -26.686 -13.248  0.00  0.00    -0.377 OA
ATOM     30  H   UNL     1      37.237 -27.179 -12.897  0.00  0.00    +0.211 HD
ENDBRANCH  23  29
BRANCH  22  31
ATOM     31  C   UNL     1      37.193 -22.037 -16.343  0.00  0.00    +0.169 C 
BRANCH  31  32
ATOM     32  O   UNL     1      37.656 -22.743 -17.480  0.00  0.00    -0.379 OA
ATOM     33  H   UNL     1      37.567 -22.184 -18.267  0.00  0.00    +0.211 HD
ENDBRANCH  31  32
ENDBRANCH  22  31
ENDBRANCH  18  24
ENDBRANCH   1  18
TORSDOF 10
ENDMDL
MODEL 8
REMARK VINA RESULT:      -9.9      1.300      1.680
REMARK  Name = 445579
REMARK  10 active torsions:
REMARK  status: ('A' for Active; 'I' for Inactive)
REMARK    1  A    between atoms: C_1  and  O_18
REMARK    2  A    between atoms: C_4  and  C_9
REMARK    3  A    between atoms: N_8  and  C_11
REMARK    4  A    between atoms: C_11  and  C_12
REMARK    5  A    between atoms: O_18  and  C_24
REMARK    6  A    between atoms: C_20  and  O_27
REMARK    7  A    between atoms: C_21  and  O_25
REMARK    8  A    between atoms: C_22  and  C_31
REMARK    9  A    between atoms: C_23  and  O_29
REMARK   10  A    between atoms: C_31  and  O_32
REMARK                            x       y       z     vdW  Elec       q    Type
REMARK                         _______ _______ _______ _____ _____    ______ ____
ROOT
ATOM      1  C   UNL     1      34.507 -24.119 -15.749  0.00  0.00    +0.142 C 
ATOM      2  C   UNL     1      34.577 -23.634 -17.051  0.00  0.00    +0.042 C 
ATOM      3  C   UNL     1      33.289 -24.163 -15.076  0.00  0.00    +0.037 C 
ATOM      4  C   UNL     1      33.418 -23.189 -17.688  0.00  0.00    +0.056 C 
ATOM      5  C   UNL     1      32.131 -23.718 -15.713  0.00  0.00    +0.003 C 
ATOM      6  C   UNL     1      32.195 -23.231 -17.018  0.00  0.00    +0.005 C 
ENDROOT
BRANCH   4   9
ATOM      7  O   UNL     1      33.809 -23.405 -20.002  0.00  0.00    -0.270 OA
ATOM      8  N   UNL     1      33.132 -21.343 -19.224  0.00  0.00    -0.297 N 
ATOM      9  C   UNL     1      33.485 -22.682 -19.049  0.00  0.00    +0.246 C 
ATOM     10  H   UNL     1      32.881 -20.813 -18.433  0.00  0.00    +0.150 HD
BRANCH   8  11
ATOM     11  C   UNL     1      33.118 -20.702 -20.520  0.00  0.00    +0.117 C 
BRANCH  11  12
ATOM     12  C   UNL     1      34.472 -20.181 -20.904  0.00  0.00    -0.003 C 
ATOM     13  C   UNL     1      35.591 -20.571 -20.176  0.00  0.00    -0.003 C 
ATOM     14  C   UNL     1      34.595 -19.313 -21.983  0.00  0.00    -0.003 C 
ATOM     15  C   UNL     1      36.850 -20.086 -20.532  0.00  0.00    -0.000 C 
ATOM     16  C   UNL     1      35.854 -18.829 -22.339  0.00  0.00    -0.000 C 
ATOM     17  C   UNL     1      36.981 -19.216 -21.614  0.00  0.00    -0.000 C 
ENDBRANCH  11  12
ENDBRANCH   8  11
ENDBRANCH   4   9
BRANCH   1  18
ATOM     18  O   UNL     1      35.643 -24.555 -15.124  0.00  0.00    -0.451 OA
BRANCH  18  24
ATOM     19  O   UNL     1      35.894 -23.380 -13.086  0.00  0.00    -0.316 OA
ATOM     20  C   UNL     1      37.451 -24.993 -12.114  0.00  0.00    +0.169 C 
ATOM     21  C   UNL     1      38.074 -25.213 -13.496  0.00  0.00    +0.173 C 
ATOM     22  C   UNL     1      35.990 -24.547 -12.254  0.00  0.00    +0.177 C 
ATOM     23  C   UNL     1      37.873 -23.974 -14.368  0.00  0.00    +0.210 C 
ATOM     24  C   UNL     1      36.396 -23.577 -14.410  0.00  0.00    +0.318 C 
BRANCH  21  25
ATOM     25  O   UNL     1      39.468 -25.477 -13.366  0.00  0.00    -0.379 OA
ATOM     26  H   UNL     1      39.846 -25.660 -14.241  0.00  0.00    +0.211 HD
ENDBRANCH  21  25
BRANCH  20  27
ATOM     27  O   UNL     1      38.180 -23.980 -11.417  0.00  0.00    -0.379 OA
ATOM     28  H   UNL     1      38.769 -24.394 -10.768  0.00  0.00    +0.211 HD
ENDBRANCH  20  27
BRANCH  23  29
ATOM     29  O   UNL     1      38.332 -24.223 -15.693  0.00  0.00    -0.377 OA
ATOM     30  H   UNL     1      37.620 -24.634 -16.210  0.00  0.00    +0.211 HD
ENDBRANCH  23  29
BRANCH  22  31
ATOM     31  C   UNL     1      35.358 -24.198 -10.912  0.00  0.00    +0.169 C 
BRANCH  31  32
ATOM     32  O   UNL     1      35.509 -25.304 -10.039  0.00  0.00    -0.379 OA
ATOM     33  H   UNL     1      36.376 -25.713 -10.182  0.00  0.00    +0.211 HD
ENDBRANCH  31  32
ENDBRANCH  22  31
ENDBRANCH  18  24
ENDBRANCH   1  18
TORSDOF 10
ENDMDL
MODEL 9
REMARK VINA RESULT:      -9.8      2.721      5.672
REMARK  Name = 445579
REMARK  10 active torsions:
REMARK  status: ('A' for Active; 'I' for Inactive)
REMARK    1  A    between atoms: C_1  and  O_18
REMARK    2  A    between atoms: C_4  and  C_9
REMARK    3  A    between atoms: N_8  and  C_11
REMARK    4  A    between atoms: C_11  and  C_12
REMARK    5  A    between atoms: O_18  and  C_24
REMARK    6  A    between atoms: C_20  and  O_27
REMARK    7  A    between atoms: C_21  and  O_25
REMARK    8  A    between atoms: C_22  and  C_31
REMARK    9  A    between atoms: C_23  and  O_29
REMARK   10  A    between atoms: C_31  and  O_32
REMARK                            x       y       z     vdW  Elec       q    Type
REMARK                         _______ _______ _______ _____ _____    ______ ____
ROOT
ATOM      1  C   UNL     1      34.208 -24.190 -14.326  0.00  0.00    +0.142 C 
ATOM      2  C   UNL     1      34.733 -23.509 -15.420  0.00  0.00    +0.042 C 
ATOM      3  C   UNL     1      34.956 -24.337 -13.161  0.00  0.00    +0.037 C 
ATOM      4  C   UNL     1      36.019 -22.972 -15.350  0.00  0.00    +0.056 C 
ATOM      5  C   UNL     1      36.241 -23.800 -13.091  0.00  0.00    +0.003 C 
ATOM      6  C   UNL     1      36.772 -23.117 -14.185  0.00  0.00    +0.005 C 
ENDROOT
BRANCH   4   9
ATOM      7  O   UNL     1      37.556 -21.514 -16.383  0.00  0.00    -0.270 OA
ATOM      8  N   UNL     1      35.950 -22.489 -17.719  0.00  0.00    -0.297 N 
ATOM      9  C   UNL     1      36.572 -22.259 -16.491  0.00  0.00    +0.246 C 
ATOM     10  H   UNL     1      35.171 -23.092 -17.749  0.00  0.00    +0.150 HD
BRANCH   8  11
ATOM     11  C   UNL     1      36.402 -21.880 -18.949  0.00  0.00    +0.117 C 
BRANCH  11  12
ATOM     12  C   UNL     1      35.267 -21.288 -19.734  0.00  0.00    -0.003 C 
ATOM     13  C   UNL     1      35.534 -20.363 -20.737  0.00  0.00    -0.003 C 
ATOM     14  C   UNL     1      33.961 -21.670 -19.449  0.00  0.00    -0.003 C 
ATOM     15  C   UNL     1      34.479 -19.813 -21.466  0.00  0.00    -0.000 C 
ATOM     16  C   UNL     1      32.907 -21.120 -20.179  0.00  0.00    -0.000 C 
ATOM     17  C   UNL     1      33.166 -20.192 -21.187  0.00  0.00    -0.000 C 
ENDBRANCH  11  12
ENDBRANCH   8  11
ENDBRANCH   4   9
BRANCH   1  18
ATOM     18  O   UNL     1      32.947 -24.717 -14.395  0.00  0.00    -0.451 OA
BRANCH  18  24
ATOM     19  O   UNL     1      31.466 -22.985 -15.031  0.00  0.00    -0.316 OA
ATOM     20  C   UNL     1      29.706 -24.497 -15.797  0.00  0.00    +0.169 C 
ATOM     21  C   UNL     1      30.056 -25.466 -14.664  0.00  0.00    +0.173 C 
ATOM     22  C   UNL     1      30.934 -23.661 -16.181  0.00  0.00    +0.177 C 
ATOM     23  C   UNL     1      30.693 -24.709 -13.500  0.00  0.00    +0.210 C 
ATOM     24  C   UNL     1      31.877 -23.868 -13.985  0.00  0.00    +0.318 C 
BRANCH  21  25
ATOM     25  O   UNL     1      28.880 -26.129 -14.208  0.00  0.00    -0.379 OA
ATOM     26  H   UNL     1      28.727 -26.923 -14.744  0.00  0.00    +0.211 HD
ENDBRANCH  21  25
BRANCH  20  27
ATOM     27  O   UNL     1      28.663 -23.617 -15.368  0.00  0.00    -0.379 OA
ATOM     28  H   UNL     1      29.050 -22.867 -14.889  0.00  0.00    +0.211 HD
ENDBRANCH  20  27
BRANCH  23  29
ATOM     29  O   UNL     1      31.141 -25.621 -12.502  0.00  0.00    -0.377 OA
ATOM     30  H   UNL     1      30.472 -25.691 -11.803  0.00  0.00    +0.211 HD
ENDBRANCH  23  29
BRANCH  22  31
ATOM     31  C   UNL     1      30.609 -22.596 -17.221  0.00  0.00    +0.169 C 
BRANCH  31  32
ATOM     32  O   UNL     1      29.202 -22.517 -17.365  0.00  0.00    -0.379 OA
ATOM     33  H   UNL     1      28.918 -21.595 -17.274  0.00  0.00    +0.211 HD
ENDBRANCH  31  32
ENDBRANCH  22  31
ENDBRANCH  18  24
ENDBRANCH   1  18
TORSDOF 10
ENDMDL
