MODEL 1
REMARK VINA RESULT:     -11.5      0.000      0.000
REMARK  Name = 135565554
REMARK  0 active torsions:
REMARK  status: ('A' for Active; 'I' for Inactive)
REMARK                            x       y       z     vdW  Elec       q    Type
REMARK                         _______ _______ _______ _____ _____    ______ ____
ROOT
ATOM      1  F   UNL     1      29.599 -24.447 -14.670  0.00  0.00    -0.204 F 
ATOM      2  O   UNL     1      32.536 -22.784 -18.300  0.00  0.00    -0.268 OA
ATOM      3  N   UNL     1      37.732 -24.367 -14.239  0.00  0.00    +0.397 N 
ATOM      4  N   UNL     1      34.187 -24.663 -13.053  0.00  0.00    -0.358 N 
ATOM      5  N   UNL     1      35.867 -22.900 -16.987  0.00  0.00    -0.185 NA
ATOM      6  N   UNL     1      34.702 -22.794 -17.666  0.00  0.00    -0.203 N 
ATOM      7  C   UNL     1      36.746 -24.447 -13.128  0.00  0.00    -0.007 C 
ATOM      8  C   UNL     1      37.047 -25.838 -12.564  0.00  0.00    -0.016 C 
ATOM      9  C   UNL     1      35.356 -24.320 -13.675  0.00  0.00    +0.017 A 
ATOM     10  C   UNL     1      37.862 -25.702 -14.839  0.00  0.00    -0.076 C 
ATOM     11  C   UNL     1      37.371 -26.686 -13.786  0.00  0.00    -0.024 C 
ATOM     12  C   UNL     1      37.488 -23.308 -15.234  0.00  0.00    -0.028 C 
ATOM     13  C   UNL     1      35.041 -23.816 -14.915  0.00  0.00    +0.024 A 
ATOM     14  C   UNL     1      37.008 -23.362 -12.078  0.00  0.00    -0.015 C 
ATOM     15  C   UNL     1      36.062 -23.344 -15.791  0.00  0.00    +0.056 C 
ATOM     16  C   UNL     1      33.660 -23.892 -15.085  0.00  0.00    +0.022 A 
ATOM     17  C   UNL     1      33.129 -24.418 -13.904  0.00  0.00    +0.059 A 
ATOM     18  C   UNL     1      32.824 -23.556 -16.145  0.00  0.00    +0.059 C 
ATOM     19  C   UNL     1      31.758 -24.619 -13.726  0.00  0.00    +0.047 C 
ATOM     20  C   UNL     1      33.361 -23.027 -17.411  0.00  0.00    +0.265 C 
ATOM     21  C   UNL     1      31.441 -23.754 -15.978  0.00  0.00    +0.034 C 
ATOM     22  C   UNL     1      30.922 -24.273 -14.790  0.00  0.00    +0.142 C 
ATOM     23  H   UNL     1      38.621 -24.075 -13.834  0.00  0.00    -0.078 HD
ATOM     24  H   UNL     1      34.113 -25.029 -12.142  0.00  0.00    +0.166 HD
ATOM     25  H   UNL     1      34.845 -22.465 -18.582  0.00  0.00    +0.178 HD
ENDROOT
TORSDOF 0
ENDMDL
MODEL 2
REMARK VINA RESULT:      -9.7      3.018      5.879
REMARK  Name = 135565554
REMARK  0 active torsions:
REMARK  status: ('A' for Active; 'I' for Inactive)
REMARK                            x       y       z     vdW  Elec       q    Type
REMARK                         _______ _______ _______ _____ _____    ______ ____
ROOT
ATOM      1  F   UNL     1      35.548 -22.049 -19.761  0.00  0.00    -0.204 F 
ATOM      2  O   UNL     1      36.721 -23.440 -15.150  0.00  0.00    -0.268 OA
ATOM      3  N   UNL     1      30.080 -24.459 -14.226  0.00  0.00    +0.397 N 
ATOM      4  N   UNL     1      31.385 -22.951 -17.401  0.00  0.00    -0.358 N 
ATOM      5  N   UNL     1      33.602 -23.995 -13.477  0.00  0.00    -0.185 NA
ATOM      6  N   UNL     1      34.870 -23.855 -13.927  0.00  0.00    -0.203 N 
ATOM      7  C   UNL     1      29.859 -23.656 -15.459  0.00  0.00    -0.007 C 
ATOM      8  C   UNL     1      28.978 -24.607 -16.276  0.00  0.00    -0.016 C 
ATOM      9  C   UNL     1      31.175 -23.362 -16.114  0.00  0.00    +0.017 A 
ATOM     10  C   UNL     1      30.191 -25.873 -14.608  0.00  0.00    -0.076 C 
ATOM     11  C   UNL     1      29.525 -25.994 -15.972  0.00  0.00    -0.024 C 
ATOM     12  C   UNL     1      31.183 -24.006 -13.360  0.00  0.00    -0.028 C 
ATOM     13  C   UNL     1      32.400 -23.454 -15.496  0.00  0.00    +0.024 A 
ATOM     14  C   UNL     1      29.115 -22.354 -15.145  0.00  0.00    -0.015 C 
ATOM     15  C   UNL     1      32.498 -23.836 -14.126  0.00  0.00    +0.056 C 
ATOM     16  C   UNL     1      33.389 -23.142 -16.427  0.00  0.00    +0.022 A 
ATOM     17  C   UNL     1      32.740 -22.818 -17.622  0.00  0.00    +0.059 A 
ATOM     18  C   UNL     1      34.777 -23.111 -16.347  0.00  0.00    +0.059 C 
ATOM     19  C   UNL     1      33.438 -22.441 -18.772  0.00  0.00    +0.047 C 
ATOM     20  C   UNL     1      35.486 -23.476 -15.108  0.00  0.00    +0.265 C 
ATOM     21  C   UNL     1      35.492 -22.733 -17.499  0.00  0.00    +0.034 C 
ATOM     22  C   UNL     1      34.832 -22.403 -18.685  0.00  0.00    +0.142 C 
ATOM     23  H   UNL     1      29.268 -24.319 -13.625  0.00  0.00    -0.078 HD
ATOM     24  H   UNL     1      30.679 -22.779 -18.067  0.00  0.00    +0.166 HD
ATOM     25  H   UNL     1      35.528 -24.083 -13.232  0.00  0.00    +0.178 HD
ENDROOT
TORSDOF 0
ENDMDL
MODEL 3
REMARK VINA RESULT:      -9.1     14.299     16.854
REMARK  Name = 135565554
REMARK  0 active torsions:
REMARK  status: ('A' for Active; 'I' for Inactive)
REMARK                            x       y       z     vdW  Elec       q    Type
REMARK                         _______ _______ _______ _____ _____    ______ ____
ROOT
ATOM      1  F   UNL     1      33.670 -14.663 -25.259  0.00  0.00    -0.204 F 
ATOM      2  O   UNL     1      31.744 -13.805 -20.773  0.00  0.00    -0.268 OA
ATOM      3  N   UNL     1      32.332  -7.213 -22.252  0.00  0.00    +0.397 N 
ATOM      4  N   UNL     1      33.671  -9.843 -24.564  0.00  0.00    -0.358 N 
ATOM      5  N   UNL     1      31.868 -10.253 -20.323  0.00  0.00    -0.185 NA
ATOM      6  N   UNL     1      31.720 -11.597 -20.304  0.00  0.00    -0.203 N 
ATOM      7  C   UNL     1      33.241  -7.616 -23.359  0.00  0.00    -0.007 C 
ATOM      8  C   UNL     1      32.590  -6.906 -24.549  0.00  0.00    -0.016 C 
ATOM      9  C   UNL     1      33.244  -9.109 -23.493  0.00  0.00    +0.017 A 
ATOM     10  C   UNL     1      30.961  -7.155 -22.776  0.00  0.00    -0.076 C 
ATOM     11  C   UNL     1      31.094  -7.007 -24.286  0.00  0.00    -0.024 C 
ATOM     12  C   UNL     1      32.444  -8.004 -21.014  0.00  0.00    -0.028 C 
ATOM     13  C   UNL     1      32.815  -9.987 -22.525  0.00  0.00    +0.024 A 
ATOM     14  C   UNL     1      34.663  -7.097 -23.122  0.00  0.00    -0.015 C 
ATOM     15  C   UNL     1      32.334  -9.511 -21.270  0.00  0.00    +0.056 C 
ATOM     16  C   UNL     1      32.932 -11.284 -23.021  0.00  0.00    +0.022 A 
ATOM     17  C   UNL     1      33.481 -11.184 -24.302  0.00  0.00    +0.059 A 
ATOM     18  C   UNL     1      32.616 -12.527 -22.483  0.00  0.00    +0.059 C 
ATOM     19  C   UNL     1      33.747 -12.307 -25.090  0.00  0.00    +0.047 C 
ATOM     20  C   UNL     1      32.010 -12.657 -21.147  0.00  0.00    +0.265 C 
ATOM     21  C   UNL     1      32.879 -13.666 -23.267  0.00  0.00    +0.034 C 
ATOM     22  C   UNL     1      33.436 -13.554 -24.543  0.00  0.00    +0.142 C 
ATOM     23  H   UNL     1      32.629  -6.288 -21.939  0.00  0.00    -0.078 HD
ATOM     24  H   UNL     1      34.054  -9.472 -25.392  0.00  0.00    +0.166 HD
ATOM     25  H   UNL     1      31.294 -11.903 -19.471  0.00  0.00    +0.178 HD
ENDROOT
TORSDOF 0
ENDMDL
MODEL 4
REMARK VINA RESULT:      -8.5      2.510      4.049
REMARK  Name = 135565554
REMARK  0 active torsions:
REMARK  status: ('A' for Active; 'I' for Inactive)
REMARK                            x       y       z     vdW  Elec       q    Type
REMARK                         _______ _______ _______ _____ _____    ______ ____
ROOT
ATOM      1  F   UNL     1      36.286 -21.342 -19.471  0.00  0.00    -0.204 F 
ATOM      2  O   UNL     1      32.284 -23.131 -17.157  0.00  0.00    -0.268 OA
ATOM      3  N   UNL     1      36.480 -24.787 -12.093  0.00  0.00    +0.397 N 
ATOM      4  N   UNL     1      37.791 -23.382 -15.313  0.00  0.00    -0.358 N 
ATOM      5  N   UNL     1      33.501 -24.680 -14.165  0.00  0.00    -0.185 NA
ATOM      6  N   UNL     1      32.847 -24.144 -15.220  0.00  0.00    -0.203 N 
ATOM      7  C   UNL     1      37.601 -24.585 -13.051  0.00  0.00    -0.007 C 
ATOM      8  C   UNL     1      38.486 -23.610 -12.269  0.00  0.00    -0.016 C 
ATOM      9  C   UNL     1      37.074 -24.007 -14.331  0.00  0.00    +0.017 A 
ATOM     10  C   UNL     1      36.229 -23.517 -11.400  0.00  0.00    -0.076 C 
ATOM     11  C   UNL     1      37.507 -22.700 -11.543  0.00  0.00    -0.024 C 
ATOM     12  C   UNL     1      35.260 -25.389 -12.657  0.00  0.00    -0.028 C 
ATOM     13  C   UNL     1      35.756 -24.031 -14.721  0.00  0.00    +0.024 A 
ATOM     14  C   UNL     1      38.340 -25.899 -13.323  0.00  0.00    -0.015 C 
ATOM     15  C   UNL     1      34.765 -24.651 -13.905  0.00  0.00    +0.056 C 
ATOM     16  C   UNL     1      35.644 -23.368 -15.942  0.00  0.00    +0.022 A 
ATOM     17  C   UNL     1      36.932 -22.970 -16.312  0.00  0.00    +0.059 A 
ATOM     18  C   UNL     1      34.555 -23.077 -16.756  0.00  0.00    +0.059 C 
ATOM     19  C   UNL     1      37.189 -22.283 -17.501  0.00  0.00    +0.047 C 
ATOM     20  C   UNL     1      33.185 -23.460 -16.375  0.00  0.00    +0.265 C 
ATOM     21  C   UNL     1      34.800 -22.385 -17.957  0.00  0.00    +0.034 C 
ATOM     22  C   UNL     1      36.093 -22.000 -18.320  0.00  0.00    +0.142 C 
ATOM     23  H   UNL     1      36.778 -25.500 -11.427  0.00  0.00    -0.078 HD
ATOM     24  H   UNL     1      38.766 -23.245 -15.307  0.00  0.00    +0.166 HD
ATOM     25  H   UNL     1      31.874 -24.275 -15.147  0.00  0.00    +0.178 HD
ENDROOT
TORSDOF 0
ENDMDL
