MODEL 1
REMARK VINA RESULT:     -12.5      0.000      0.000
REMARK  Name = 448605
REMARK  6 active torsions:
REMARK  status: ('A' for Active; 'I' for Inactive)
REMARK    1  A    between atoms: C_3  and  N_11
REMARK    2  A    between atoms: C_4  and  C_27
REMARK    3  A    between atoms: C_9  and  C_21
REMARK    4  A    between atoms: N_26  and  C_29
REMARK    5  A    between atoms: C_30  and  C_35
REMARK    6  A    between atoms: C_35  and  N_36
REMARK                            x       y       z     vdW  Elec       q    Type
REMARK                         _______ _______ _______ _____ _____    ______ ____
ROOT
ATOM      1  C   UNL     1      34.351 -23.254 -16.404  0.00  0.00    +0.014 C 
ATOM      2  C   UNL     1      33.378 -22.953 -17.388  0.00  0.00    +0.001 C 
ATOM      3  C   UNL     1      35.688 -22.886 -16.626  0.00  0.00    +0.057 C 
ATOM      4  C   UNL     1      35.105 -21.936 -18.768  0.00  0.00    +0.055 C 
ATOM      5  C   UNL     1      33.771 -22.293 -18.564  0.00  0.00    +0.005 C 
ATOM      6  C   UNL     1      36.061 -22.231 -17.800  0.00  0.00    +0.020 C 
ATOM      7  C   UNL     1      33.958 -23.912 -15.228  0.00  0.00    +0.004 C 
ATOM      8  C   UNL     1      32.041 -23.321 -17.166  0.00  0.00    +0.000 C 
ATOM      9  C   UNL     1      32.624 -24.271 -15.025  0.00  0.00    +0.031 C 
ATOM     10  C   UNL     1      31.668 -23.975 -15.992  0.00  0.00    +0.003 C 
ENDROOT
BRANCH   3  11
ATOM     11  N   UNL     1      36.701 -23.162 -15.675  0.00  0.00    -0.257 N 
ATOM     12  N   UNL     1      36.640 -25.505 -15.590  0.00  0.00    -0.180 NA
ATOM     13  N   UNL     1      38.192 -24.258 -14.233  0.00  0.00    -0.203 NA
ATOM     14  C   UNL     1      37.200 -24.361 -15.143  0.00  0.00    +0.091 C 
ATOM     15  C   UNL     1      37.143 -26.638 -15.058  0.00  0.00    +0.108 C 
ATOM     16  C   UNL     1      38.647 -25.430 -13.742  0.00  0.00    +0.165 C 
ATOM     17  C   UNL     1      38.157 -26.662 -14.121  0.00  0.00    +0.022 C 
ATOM     18  H   UNL     1      37.140 -22.356 -15.318  0.00  0.00    +0.164 HD
ENDBRANCH   3  11
BRANCH   9  21
ATOM     19  N   UNL     1      30.925 -25.391 -13.602  0.00  0.00    -0.343 N 
ATOM     20  N   UNL     1      33.126 -25.162 -12.850  0.00  0.00    -0.285 NA
ATOM     21  C   UNL     1      32.233 -24.952 -13.801  0.00  0.00    +0.117 C 
ATOM     22  H   UNL     1      30.681 -25.849 -12.766  0.00  0.00    +0.144 HD
ATOM     23  H   UNL     1      30.244 -25.241 -14.298  0.00  0.00    +0.144 HD
ATOM     24  H   UNL     1      32.862 -25.624 -12.021  0.00  0.00    +0.188 HD
ENDBRANCH   9  21
BRANCH   4  27
ATOM     25  O   UNL     1      36.506 -21.638 -20.600  0.00  0.00    -0.270 OA
ATOM     26  N   UNL     1      34.659 -20.206 -20.400  0.00  0.00    -0.280 N 
ATOM     27  C   UNL     1      35.495 -21.254 -19.991  0.00  0.00    +0.250 C 
ATOM     28  H   UNL     1      33.893 -20.015 -19.812  0.00  0.00    +0.155 HD
BRANCH  26  29
ATOM     29  C   UNL     1      34.771 -19.384 -21.549  0.00  0.00    +0.051 C 
ATOM     30  C   UNL     1      34.990 -17.780 -23.794  0.00  0.00    -0.044 C 
ATOM     31  C   UNL     1      34.216 -19.813 -22.743  0.00  0.00    +0.014 C 
ATOM     32  C   UNL     1      35.434 -18.173 -21.453  0.00  0.00    +0.014 C 
ATOM     33  C   UNL     1      34.327 -19.004 -23.874  0.00  0.00    -0.005 C 
ATOM     34  C   UNL     1      35.544 -17.365 -22.584  0.00  0.00    -0.005 C 
BRANCH  30  35
ATOM     35  C   UNL     1      35.108 -16.916 -25.004  0.00  0.00    -0.059 C 
BRANCH  35  36
ATOM     36  N   UNL     1      33.826 -16.603 -25.581  0.00  0.00    +0.383 N 
ATOM     37  H   UNL     1      33.957 -16.032 -26.416  0.00  0.00    -0.089 HD
ATOM     38  H   UNL     1      33.264 -16.088 -24.902  0.00  0.00    -0.089 HD
ATOM     39  H   UNL     1      33.346 -17.467 -25.832  0.00  0.00    -0.089 HD
ENDBRANCH  35  36
ENDBRANCH  30  35
ENDBRANCH  26  29
ENDBRANCH   4  27
TORSDOF 6
ENDMDL
MODEL 2
REMARK VINA RESULT:     -12.1      1.742      4.625
REMARK  Name = 448605
REMARK  6 active torsions:
REMARK  status: ('A' for Active; 'I' for Inactive)
REMARK    1  A    between atoms: C_3  and  N_11
REMARK    2  A    between atoms: C_4  and  C_27
REMARK    3  A    between atoms: C_9  and  C_21
REMARK    4  A    between atoms: N_26  and  C_29
REMARK    5  A    between atoms: C_30  and  C_35
REMARK    6  A    between atoms: C_35  and  N_36
REMARK                            x       y       z     vdW  Elec       q    Type
REMARK                         _______ _______ _______ _____ _____    ______ ____
ROOT
ATOM      1  C   UNL     1      34.935 -23.535 -16.286  0.00  0.00    +0.014 C 
ATOM      2  C   UNL     1      35.952 -22.785 -16.924  0.00  0.00    +0.001 C 
ATOM      3  C   UNL     1      33.638 -23.530 -16.824  0.00  0.00    +0.057 C 
ATOM      4  C   UNL     1      34.346 -22.058 -18.601  0.00  0.00    +0.055 C 
ATOM      5  C   UNL     1      35.641 -22.052 -18.082  0.00  0.00    +0.005 C 
ATOM      6  C   UNL     1      33.347 -22.796 -17.974  0.00  0.00    +0.020 C 
ATOM      7  C   UNL     1      35.245 -24.268 -15.129  0.00  0.00    +0.004 C 
ATOM      8  C   UNL     1      37.249 -22.790 -16.386  0.00  0.00    +0.000 C 
ATOM      9  C   UNL     1      36.540 -24.262 -14.608  0.00  0.00    +0.031 C 
ATOM     10  C   UNL     1      37.540 -23.524 -15.236  0.00  0.00    +0.003 C 
ENDROOT
BRANCH   3  11
ATOM     11  N   UNL     1      32.583 -24.263 -16.226  0.00  0.00    -0.257 N 
ATOM     12  N   UNL     1      30.722 -22.950 -16.785  0.00  0.00    -0.180 NA
ATOM     13  N   UNL     1      30.468 -24.970 -15.497  0.00  0.00    -0.203 NA
ATOM     14  C   UNL     1      31.196 -24.052 -16.167  0.00  0.00    +0.091 C 
ATOM     15  C   UNL     1      29.386 -22.778 -16.709  0.00  0.00    +0.108 C 
ATOM     16  C   UNL     1      29.139 -24.736 -15.460  0.00  0.00    +0.165 C 
ATOM     17  C   UNL     1      28.537 -23.646 -16.054  0.00  0.00    +0.022 C 
ATOM     18  H   UNL     1      32.881 -25.078 -15.761  0.00  0.00    +0.164 HD
ENDBRANCH   3  11
BRANCH   9  21
ATOM     19  N   UNL     1      38.157 -25.368 -13.083  0.00  0.00    -0.343 N 
ATOM     20  N   UNL     1      35.869 -25.415 -12.610  0.00  0.00    -0.285 NA
ATOM     21  C   UNL     1      36.846 -25.027 -13.410  0.00  0.00    +0.117 C 
ATOM     22  H   UNL     1      38.342 -25.886 -12.267  0.00  0.00    +0.144 HD
ATOM     23  H   UNL     1      38.899 -25.090 -13.668  0.00  0.00    +0.144 HD
ATOM     24  H   UNL     1      36.074 -25.933 -11.798  0.00  0.00    +0.188 HD
ENDBRANCH   9  21
BRANCH   4  27
ATOM     25  O   UNL     1      32.923 -21.414 -20.324  0.00  0.00    -0.270 OA
ATOM     26  N   UNL     1      35.060 -20.448 -20.261  0.00  0.00    -0.280 N 
ATOM     27  C   UNL     1      34.042 -21.294 -19.801  0.00  0.00    +0.250 C 
ATOM     28  H   UNL     1      35.895 -20.461 -19.742  0.00  0.00    +0.155 HD
BRANCH  26  29
ATOM     29  C   UNL     1      35.044 -19.575 -21.378  0.00  0.00    +0.051 C 
ATOM     30  C   UNL     1      35.012 -17.870 -23.558  0.00  0.00    -0.044 C 
ATOM     31  C   UNL     1      35.421 -18.254 -21.208  0.00  0.00    +0.014 C 
ATOM     32  C   UNL     1      34.651 -20.063 -22.612  0.00  0.00    +0.014 C 
ATOM     33  C   UNL     1      35.405 -17.395 -22.307  0.00  0.00    -0.005 C 
ATOM     34  C   UNL     1      34.636 -19.205 -23.710  0.00  0.00    -0.005 C 
BRANCH  30  35
ATOM     35  C   UNL     1      34.996 -16.952 -24.733  0.00  0.00    -0.059 C 
BRANCH  35  36
ATOM     36  N   UNL     1      33.807 -17.106 -25.532  0.00  0.00    +0.383 N 
ATOM     37  H   UNL     1      33.106 -16.427 -25.236  0.00  0.00    -0.089 HD
ATOM     38  H   UNL     1      33.438 -18.049 -25.414  0.00  0.00    -0.089 HD
ATOM     39  H   UNL     1      34.036 -16.951 -26.514  0.00  0.00    -0.089 HD
ENDBRANCH  35  36
ENDBRANCH  30  35
ENDBRANCH  26  29
ENDBRANCH   4  27
TORSDOF 6
ENDMDL
MODEL 3
REMARK VINA RESULT:     -11.8      1.870      4.580
REMARK  Name = 448605
REMARK  6 active torsions:
REMARK  status: ('A' for Active; 'I' for Inactive)
REMARK    1  A    between atoms: C_3  and  N_11
REMARK    2  A    between atoms: C_4  and  C_27
REMARK    3  A    between atoms: C_9  and  C_21
REMARK    4  A    between atoms: N_26  and  C_29
REMARK    5  A    between atoms: C_30  and  C_35
REMARK    6  A    between atoms: C_35  and  N_36
REMARK                            x       y       z     vdW  Elec       q    Type
REMARK                         _______ _______ _______ _____ _____    ______ ____
ROOT
ATOM      1  C   UNL     1      35.171 -23.789 -15.337  0.00  0.00    +0.014 C 
ATOM      2  C   UNL     1      36.224 -23.147 -16.033  0.00  0.00    +0.001 C 
ATOM      3  C   UNL     1      33.893 -23.836 -15.915  0.00  0.00    +0.057 C 
ATOM      4  C   UNL     1      34.688 -22.627 -17.848  0.00  0.00    +0.055 C 
ATOM      5  C   UNL     1      35.965 -22.572 -17.289  0.00  0.00    +0.005 C 
ATOM      6  C   UNL     1      33.654 -23.258 -17.163  0.00  0.00    +0.020 C 
ATOM      7  C   UNL     1      35.429 -24.365 -14.082  0.00  0.00    +0.004 C 
ATOM      8  C   UNL     1      37.502 -23.100 -15.455  0.00  0.00    +0.000 C 
ATOM      9  C   UNL     1      36.707 -24.309 -13.522  0.00  0.00    +0.031 C 
ATOM     10  C   UNL     1      37.741 -23.679 -14.208  0.00  0.00    +0.003 C 
ENDROOT
BRANCH   3  11
ATOM     11  N   UNL     1      32.805 -24.465 -15.262  0.00  0.00    -0.257 N 
ATOM     12  N   UNL     1      30.972 -23.415 -16.282  0.00  0.00    -0.180 NA
ATOM     13  N   UNL     1      30.648 -25.094 -14.586  0.00  0.00    -0.203 NA
ATOM     14  C   UNL     1      31.414 -24.318 -15.382  0.00  0.00    +0.091 C 
ATOM     15  C   UNL     1      29.631 -23.299 -16.372  0.00  0.00    +0.108 C 
ATOM     16  C   UNL     1      29.316 -24.927 -14.727  0.00  0.00    +0.165 C 
ATOM     17  C   UNL     1      28.745 -24.037 -15.613  0.00  0.00    +0.022 C 
ATOM     18  H   UNL     1      33.077 -25.134 -14.593  0.00  0.00    +0.164 HD
ENDBRANCH   3  11
BRANCH   9  21
ATOM     19  N   UNL     1      37.458 -24.160 -11.160  0.00  0.00    -0.343 N 
ATOM     20  N   UNL     1      36.715 -26.196 -12.034  0.00  0.00    -0.285 NA
ATOM     21  C   UNL     1      36.958 -24.911 -12.222  0.00  0.00    +0.117 C 
ATOM     22  H   UNL     1      37.621 -24.588 -10.289  0.00  0.00    +0.144 HD
ATOM     23  H   UNL     1      37.648 -23.201 -11.281  0.00  0.00    +0.144 HD
ATOM     24  H   UNL     1      36.885 -26.605 -11.155  0.00  0.00    +0.188 HD
ENDBRANCH   9  21
BRANCH   4  27
ATOM     25  O   UNL     1      33.511 -22.464 -19.847  0.00  0.00    -0.270 OA
ATOM     26  N   UNL     1      35.276 -20.958 -19.499  0.00  0.00    -0.280 N 
ATOM     27  C   UNL     1      34.438 -22.025 -19.148  0.00  0.00    +0.250 C 
ATOM     28  H   UNL     1      35.969 -20.723 -18.841  0.00  0.00    +0.155 HD
BRANCH  26  29
ATOM     29  C   UNL     1      35.255 -20.171 -20.677  0.00  0.00    +0.051 C 
ATOM     30  C   UNL     1      35.214 -18.633 -22.979  0.00  0.00    -0.044 C 
ATOM     31  C   UNL     1      34.118 -20.165 -21.466  0.00  0.00    +0.014 C 
ATOM     32  C   UNL     1      36.373 -19.426 -21.013  0.00  0.00    +0.014 C 
ATOM     33  C   UNL     1      34.097 -19.391 -22.626  0.00  0.00    -0.005 C 
ATOM     34  C   UNL     1      36.352 -18.652 -22.172  0.00  0.00    -0.005 C 
BRANCH  30  35
ATOM     35  C   UNL     1      35.191 -17.805 -24.219  0.00  0.00    -0.059 C 
BRANCH  35  36
ATOM     36  N   UNL     1      35.332 -16.399 -23.941  0.00  0.00    +0.383 N 
ATOM     37  H   UNL     1      35.127 -16.223 -22.958  0.00  0.00    -0.089 HD
ATOM     38  H   UNL     1      34.682 -15.870 -24.523  0.00  0.00    -0.089 HD
ATOM     39  H   UNL     1      36.287 -16.106 -24.147  0.00  0.00    -0.089 HD
ENDBRANCH  35  36
ENDBRANCH  30  35
ENDBRANCH  26  29
ENDBRANCH   4  27
TORSDOF 6
ENDMDL
MODEL 4
REMARK VINA RESULT:     -10.7      3.084      8.284
REMARK  Name = 448605
REMARK  6 active torsions:
REMARK  status: ('A' for Active; 'I' for Inactive)
REMARK    1  A    between atoms: C_3  and  N_11
REMARK    2  A    between atoms: C_4  and  C_27
REMARK    3  A    between atoms: C_9  and  C_21
REMARK    4  A    between atoms: N_26  and  C_29
REMARK    5  A    between atoms: C_30  and  C_35
REMARK    6  A    between atoms: C_35  and  N_36
REMARK                            x       y       z     vdW  Elec       q    Type
REMARK                         _______ _______ _______ _____ _____    ______ ____
ROOT
ATOM      1  C   UNL     1      30.978 -23.365 -16.272  0.00  0.00    +0.014 C 
ATOM      2  C   UNL     1      30.988 -24.068 -15.043  0.00  0.00    +0.001 C 
ATOM      3  C   UNL     1      32.196 -23.055 -16.896  0.00  0.00    +0.057 C 
ATOM      4  C   UNL     1      33.420 -24.123 -15.109  0.00  0.00    +0.055 C 
ATOM      5  C   UNL     1      32.218 -24.440 -14.475  0.00  0.00    +0.005 C 
ATOM      6  C   UNL     1      33.409 -23.433 -16.318  0.00  0.00    +0.020 C 
ATOM      7  C   UNL     1      29.749 -22.994 -16.840  0.00  0.00    +0.004 C 
ATOM      8  C   UNL     1      29.770 -24.377 -14.418  0.00  0.00    +0.000 C 
ATOM      9  C   UNL     1      28.546 -23.310 -16.205  0.00  0.00    +0.031 C 
ATOM     10  C   UNL     1      28.557 -24.001 -14.997  0.00  0.00    +0.003 C 
ENDROOT
BRANCH   3  11
ATOM     11  N   UNL     1      32.243 -22.355 -18.127  0.00  0.00    -0.257 N 
ATOM     12  N   UNL     1      34.556 -22.187 -18.484  0.00  0.00    -0.180 NA
ATOM     13  N   UNL     1      32.990 -21.260 -20.063  0.00  0.00    -0.203 NA
ATOM     14  C   UNL     1      33.310 -21.915 -18.927  0.00  0.00    +0.091 C 
ATOM     15  C   UNL     1      35.556 -21.751 -19.277  0.00  0.00    +0.108 C 
ATOM     16  C   UNL     1      34.039 -20.851 -20.808  0.00  0.00    +0.165 C 
ATOM     17  C   UNL     1      35.356 -21.071 -20.461  0.00  0.00    +0.022 C 
ATOM     18  H   UNL     1      31.356 -22.132 -18.490  0.00  0.00    +0.164 HD
ENDBRANCH   3  11
BRANCH   9  21
ATOM     19  N   UNL     1      26.295 -22.272 -16.064  0.00  0.00    -0.343 N 
ATOM     20  N   UNL     1      27.049 -23.180 -18.080  0.00  0.00    -0.285 NA
ATOM     21  C   UNL     1      27.281 -22.918 -16.806  0.00  0.00    +0.117 C 
ATOM     22  H   UNL     1      25.446 -22.016 -16.490  0.00  0.00    +0.144 HD
ATOM     23  H   UNL     1      26.447 -22.071 -15.111  0.00  0.00    +0.144 HD
ATOM     24  H   UNL     1      26.193 -22.915 -18.489  0.00  0.00    +0.188 HD
ENDBRANCH   9  21
BRANCH   4  27
ATOM     25  O   UNL     1      34.728 -24.743 -13.289  0.00  0.00    -0.270 OA
ATOM     26  N   UNL     1      35.771 -24.627 -15.387  0.00  0.00    -0.280 N 
ATOM     27  C   UNL     1      34.685 -24.515 -14.508  0.00  0.00    +0.250 C 
ATOM     28  H   UNL     1      35.583 -24.412 -16.329  0.00  0.00    +0.155 HD
BRANCH  26  29
ATOM     29  C   UNL     1      37.104 -25.010 -15.097  0.00  0.00    +0.051 C 
ATOM     30  C   UNL     1      39.708 -25.757 -14.530  0.00  0.00    -0.044 C 
ATOM     31  C   UNL     1      38.125 -24.094 -15.283  0.00  0.00    +0.014 C 
ATOM     32  C   UNL     1      37.355 -26.291 -14.635  0.00  0.00    +0.014 C 
ATOM     33  C   UNL     1      39.438 -24.471 -14.998  0.00  0.00    -0.005 C 
ATOM     34  C   UNL     1      38.667 -26.667 -14.349  0.00  0.00    -0.005 C 
BRANCH  30  35
ATOM     35  C   UNL     1      41.111 -26.159 -14.225  0.00  0.00    -0.059 C 
BRANCH  35  36
ATOM     36  N   UNL     1      41.224 -27.560 -13.908  0.00  0.00    +0.383 N 
ATOM     37  H   UNL     1      41.088 -28.113 -14.755  0.00  0.00    -0.089 HD
ATOM     38  H   UNL     1      40.513 -27.811 -13.220  0.00  0.00    -0.089 HD
ATOM     39  H   UNL     1      42.150 -27.748 -13.524  0.00  0.00    -0.089 HD
ENDBRANCH  35  36
ENDBRANCH  30  35
ENDBRANCH  26  29
ENDBRANCH   4  27
TORSDOF 6
ENDMDL
