MODEL 1
REMARK VINA RESULT:     -12.3      0.000      0.000
REMARK  Name = 6102777
REMARK  2 active torsions:
REMARK  status: ('A' for Active; 'I' for Inactive)
REMARK    1  A    between atoms: C_4  and  S_16
REMARK    2  A    between atoms: S_16  and  N_19
REMARK                            x       y       z     vdW  Elec       q    Type
REMARK                         _______ _______ _______ _____ _____    ______ ____
ROOT
ATOM      1  O   UNL     1      33.727 -23.356 -16.439  0.00  0.00    -0.453 OA
ATOM      2  O   UNL     1      37.672 -22.291 -16.671  0.00  0.00    -0.286 OA
ATOM      3  C   UNL     1      35.937 -23.254 -15.402  0.00  0.00    +0.075 A 
ATOM      4  C   UNL     1      36.190 -24.137 -13.171  0.00  0.00    +0.126 C 
ATOM      5  C   UNL     1      34.583 -23.591 -15.391  0.00  0.00    +0.148 A 
ATOM      6  C   UNL     1      36.745 -23.525 -14.296  0.00  0.00    +0.026 C 
ATOM      7  C   UNL     1      35.562 -22.369 -17.714  0.00  0.00    +0.074 A 
ATOM      8  C   UNL     1      36.494 -22.610 -16.602  0.00  0.00    +0.201 A 
ATOM      9  C   UNL     1      34.230 -22.756 -17.567  0.00  0.00    +0.148 A 
ATOM     10  C   UNL     1      34.837 -24.475 -13.154  0.00  0.00    +0.023 C 
ATOM     11  C   UNL     1      34.033 -24.202 -14.262  0.00  0.00    +0.039 C 
ATOM     12  C   UNL     1      35.999 -21.763 -18.894  0.00  0.00    +0.006 C 
ATOM     13  C   UNL     1      33.327 -22.537 -18.610  0.00  0.00    +0.038 C 
ATOM     14  C   UNL     1      35.093 -21.546 -19.932  0.00  0.00    +0.000 C 
ATOM     15  C   UNL     1      33.760 -21.931 -19.791  0.00  0.00    +0.003 C 
ENDROOT
BRANCH   4  16
ATOM     16  S   UNL     1      37.191 -24.480 -11.782  0.00  0.00    +0.081 S 
ATOM     17  O   UNL     1      37.100 -23.350 -10.866  0.00  0.00    -0.149 OA
ATOM     18  O   UNL     1      36.862 -25.818 -11.306  0.00  0.00    -0.149 OA
BRANCH  16  19
ATOM     19  N   UNL     1      38.746 -24.504 -12.487  0.00  0.00    -0.156 N 
ATOM     20  N   UNL     1      40.429 -25.437 -13.932  0.00  0.00    -0.094 NA
ATOM     21  N   UNL     1      38.429 -26.496 -13.839  0.00  0.00    -0.071 NA
ATOM     22  N   UNL     1      40.349 -26.524 -14.713  0.00  0.00    -0.139 N 
ATOM     23  N   UNL     1      39.182 -27.183 -14.688  0.00  0.00    -0.020 NA
ATOM     24  C   UNL     1      39.207 -25.469 -13.414  0.00  0.00    +0.145 C 
ATOM     25  H   UNL     1      39.372 -23.789 -12.228  0.00  0.00    +0.186 HD
ATOM     26  H   UNL     1      41.104 -26.821 -15.271  0.00  0.00    +0.197 HD
ENDBRANCH  16  19
ENDBRANCH   4  16
TORSDOF 2
ENDMDL
MODEL 2
REMARK VINA RESULT:     -12.2      5.691      6.916
REMARK  Name = 6102777
REMARK  2 active torsions:
REMARK  status: ('A' for Active; 'I' for Inactive)
REMARK    1  A    between atoms: C_4  and  S_16
REMARK    2  A    between atoms: S_16  and  N_19
REMARK                            x       y       z     vdW  Elec       q    Type
REMARK                         _______ _______ _______ _____ _____    ______ ____
ROOT
ATOM      1  O   UNL     1      35.576 -22.986 -16.965  0.00  0.00    -0.453 OA
ATOM      2  O   UNL     1      32.008 -22.146 -18.785  0.00  0.00    -0.286 OA
ATOM      3  C   UNL     1      33.138 -23.129 -16.967  0.00  0.00    +0.075 A 
ATOM      4  C   UNL     1      32.061 -24.256 -15.125  0.00  0.00    +0.126 C 
ATOM      5  C   UNL     1      34.388 -23.381 -16.402  0.00  0.00    +0.148 A 
ATOM      6  C   UNL     1      31.972 -23.563 -16.333  0.00  0.00    +0.026 C 
ATOM      7  C   UNL     1      34.357 -21.981 -18.828  0.00  0.00    +0.074 A 
ATOM      8  C   UNL     1      33.074 -22.396 -18.241  0.00  0.00    +0.201 A 
ATOM      9  C   UNL     1      35.536 -22.301 -18.155  0.00  0.00    +0.148 A 
ATOM     10  C   UNL     1      33.309 -24.512 -14.556  0.00  0.00    +0.023 C 
ATOM     11  C   UNL     1      34.471 -24.076 -15.193  0.00  0.00    +0.039 C 
ATOM     12  C   UNL     1      34.397 -21.280 -20.036  0.00  0.00    +0.006 C 
ATOM     13  C   UNL     1      36.766 -21.917 -18.694  0.00  0.00    +0.038 C 
ATOM     14  C   UNL     1      35.629 -20.899 -20.569  0.00  0.00    +0.000 C 
ATOM     15  C   UNL     1      36.810 -21.216 -19.900  0.00  0.00    +0.003 C 
ENDROOT
BRANCH   4  16
ATOM     16  S   UNL     1      30.610 -24.804 -14.323  0.00  0.00    +0.081 S 
ATOM     17  O   UNL     1      30.122 -25.984 -15.025  0.00  0.00    -0.149 OA
ATOM     18  O   UNL     1      30.883 -24.880 -12.894  0.00  0.00    -0.149 OA
BRANCH  16  19
ATOM     19  N   UNL     1      29.550 -23.499 -14.622  0.00  0.00    -0.156 N 
ATOM     20  N   UNL     1      27.860 -22.361 -15.902  0.00  0.00    -0.094 NA
ATOM     21  N   UNL     1      28.574 -24.369 -16.667  0.00  0.00    -0.071 NA
ATOM     22  N   UNL     1      27.263 -22.758 -17.035  0.00  0.00    -0.139 N 
ATOM     23  N   UNL     1      27.657 -23.942 -17.525  0.00  0.00    -0.020 NA
ATOM     24  C   UNL     1      28.664 -23.402 -15.721  0.00  0.00    +0.145 C 
ATOM     25  H   UNL     1      29.556 -22.754 -13.977  0.00  0.00    +0.186 HD
ATOM     26  H   UNL     1      26.577 -22.211 -17.481  0.00  0.00    +0.197 HD
ENDBRANCH  16  19
ENDBRANCH   4  16
TORSDOF 2
ENDMDL
MODEL 3
REMARK VINA RESULT:     -12.2      2.738      4.052
REMARK  Name = 6102777
REMARK  2 active torsions:
REMARK  status: ('A' for Active; 'I' for Inactive)
REMARK    1  A    between atoms: C_4  and  S_16
REMARK    2  A    between atoms: S_16  and  N_19
REMARK                            x       y       z     vdW  Elec       q    Type
REMARK                         _______ _______ _______ _____ _____    ______ ____
ROOT
ATOM      1  O   UNL     1      36.405 -21.221 -19.073  0.00  0.00    -0.453 OA
ATOM      2  O   UNL     1      32.563 -22.504 -18.489  0.00  0.00    -0.286 OA
ATOM      3  C   UNL     1      34.799 -22.497 -17.749  0.00  0.00    +0.075 A 
ATOM      4  C   UNL     1      35.603 -23.656 -15.790  0.00  0.00    +0.126 C 
ATOM      5  C   UNL     1      36.085 -22.025 -18.007  0.00  0.00    +0.148 A 
ATOM      6  C   UNL     1      34.552 -23.313 -16.641  0.00  0.00    +0.026 C 
ATOM      7  C   UNL     1      34.073 -21.257 -19.798  0.00  0.00    +0.074 A 
ATOM      8  C   UNL     1      33.711 -22.120 -18.663  0.00  0.00    +0.201 A 
ATOM      9  C   UNL     1      35.402 -20.857 -19.938  0.00  0.00    +0.148 A 
ATOM     10  C   UNL     1      36.891 -23.187 -16.045  0.00  0.00    +0.023 C 
ATOM     11  C   UNL     1      37.133 -22.372 -17.152  0.00  0.00    +0.039 C 
ATOM     12  C   UNL     1      33.107 -20.846 -20.720  0.00  0.00    +0.006 C 
ATOM     13  C   UNL     1      35.769 -20.038 -21.008  0.00  0.00    +0.038 C 
ATOM     14  C   UNL     1      33.480 -20.028 -21.787  0.00  0.00    +0.000 C 
ATOM     15  C   UNL     1      34.807 -19.625 -21.931  0.00  0.00    +0.003 C 
ENDROOT
BRANCH   4  16
ATOM     16  S   UNL     1      35.305 -24.675 -14.403  0.00  0.00    +0.081 S 
ATOM     17  O   UNL     1      33.892 -24.573 -14.060  0.00  0.00    -0.149 OA
ATOM     18  O   UNL     1      35.886 -25.984 -14.671  0.00  0.00    -0.149 OA
BRANCH  16  19
ATOM     19  N   UNL     1      36.230 -23.886 -13.204  0.00  0.00    -0.156 N 
ATOM     20  N   UNL     1      36.910 -23.508 -10.927  0.00  0.00    -0.094 NA
ATOM     21  N   UNL     1      35.334 -25.092 -11.297  0.00  0.00    -0.071 NA
ATOM     22  N   UNL     1      36.478 -24.120  -9.815  0.00  0.00    -0.139 N 
ATOM     23  N   UNL     1      35.543 -25.065  -9.987  0.00  0.00    -0.020 NA
ATOM     24  C   UNL     1      36.165 -24.154 -11.816  0.00  0.00    +0.145 C 
ATOM     25  H   UNL     1      36.859 -23.189 -13.502  0.00  0.00    +0.186 HD
ATOM     26  H   UNL     1      36.827 -23.887  -8.924  0.00  0.00    +0.197 HD
ENDBRANCH  16  19
ENDBRANCH   4  16
TORSDOF 2
ENDMDL
MODEL 4
REMARK VINA RESULT:     -11.7      2.269      3.704
REMARK  Name = 6102777
REMARK  2 active torsions:
REMARK  status: ('A' for Active; 'I' for Inactive)
REMARK    1  A    between atoms: C_4  and  S_16
REMARK    2  A    between atoms: S_16  and  N_19
REMARK                            x       y       z     vdW  Elec       q    Type
REMARK                         _______ _______ _______ _____ _____    ______ ____
ROOT
ATOM      1  O   UNL     1      33.033 -23.092 -15.817  0.00  0.00    -0.453 OA
ATOM      2  O   UNL     1      31.686 -25.464 -12.767  0.00  0.00    -0.286 OA
ATOM      3  C   UNL     1      33.503 -24.367 -13.787  0.00  0.00    +0.075 A 
ATOM      4  C   UNL     1      35.773 -24.416 -12.972  0.00  0.00    +0.126 C 
ATOM      5  C   UNL     1      33.894 -23.556 -14.852  0.00  0.00    +0.148 A 
ATOM      6  C   UNL     1      34.438 -24.799 -12.844  0.00  0.00    +0.026 C 
ATOM      7  C   UNL     1      31.182 -24.247 -14.719  0.00  0.00    +0.074 A 
ATOM      8  C   UNL     1      32.088 -24.755 -13.677  0.00  0.00    +0.201 A 
ATOM      9  C   UNL     1      31.708 -23.443 -15.730  0.00  0.00    +0.148 A 
ATOM     10  C   UNL     1      36.170 -23.606 -14.036  0.00  0.00    +0.023 C 
ATOM     11  C   UNL     1      35.232 -23.176 -14.975  0.00  0.00    +0.039 C 
ATOM     12  C   UNL     1      29.822 -24.562 -14.698  0.00  0.00    +0.006 C 
ATOM     13  C   UNL     1      30.867 -22.950 -16.730  0.00  0.00    +0.038 C 
ATOM     14  C   UNL     1      28.986 -24.066 -15.700  0.00  0.00    +0.000 C 
ATOM     15  C   UNL     1      29.507 -23.263 -16.713  0.00  0.00    +0.003 C 
ENDROOT
BRANCH   4  16
ATOM     16  S   UNL     1      36.951 -24.952 -11.799  0.00  0.00    +0.081 S 
ATOM     17  O   UNL     1      36.815 -24.123 -10.608  0.00  0.00    -0.149 OA
ATOM     18  O   UNL     1      36.847 -26.400 -11.681  0.00  0.00    -0.149 OA
BRANCH  16  19
ATOM     19  N   UNL     1      38.413 -24.558 -12.589  0.00  0.00    -0.156 N 
ATOM     20  N   UNL     1      40.214 -25.019 -14.117  0.00  0.00    -0.094 NA
ATOM     21  N   UNL     1      38.596 -26.589 -13.906  0.00  0.00    -0.071 NA
ATOM     22  N   UNL     1      40.401 -26.103 -14.883  0.00  0.00    -0.139 N 
ATOM     23  N   UNL     1      39.467 -27.059 -14.790  0.00  0.00    -0.020 NA
ATOM     24  C   UNL     1      39.077 -25.377 -13.532  0.00  0.00    +0.145 C 
ATOM     25  H   UNL     1      38.827 -23.691 -12.370  0.00  0.00    +0.186 HD
ATOM     26  H   UNL     1      41.179 -26.191 -15.480  0.00  0.00    +0.197 HD
ENDBRANCH  16  19
ENDBRANCH   4  16
TORSDOF 2
ENDMDL
MODEL 5
REMARK VINA RESULT:     -11.6      2.527      3.457
REMARK  Name = 6102777
REMARK  2 active torsions:
REMARK  status: ('A' for Active; 'I' for Inactive)
REMARK    1  A    between atoms: C_4  and  S_16
REMARK    2  A    between atoms: S_16  and  N_19
REMARK                            x       y       z     vdW  Elec       q    Type
REMARK                         _______ _______ _______ _____ _____    ______ ____
ROOT
ATOM      1  O   UNL     1      32.826 -21.609 -19.330  0.00  0.00    -0.453 OA
ATOM      2  O   UNL     1      36.889 -21.818 -18.890  0.00  0.00    -0.286 OA
ATOM      3  C   UNL     1      34.761 -22.431 -18.087  0.00  0.00    +0.075 A 
ATOM      4  C   UNL     1      34.367 -23.800 -16.140  0.00  0.00    +0.126 C 
ATOM      5  C   UNL     1      33.387 -22.317 -18.296  0.00  0.00    +0.148 A 
ATOM      6  C   UNL     1      35.257 -23.171 -17.011  0.00  0.00    +0.026 C 
ATOM      7  C   UNL     1      35.055 -21.004 -20.122  0.00  0.00    +0.074 A 
ATOM      8  C   UNL     1      35.676 -21.757 -19.022  0.00  0.00    +0.201 A 
ATOM      9  C   UNL     1      33.664 -20.973 -20.213  0.00  0.00    +0.148 A 
ATOM     10  C   UNL     1      32.992 -23.689 -16.344  0.00  0.00    +0.023 C 
ATOM     11  C   UNL     1      32.501 -22.949 -17.420  0.00  0.00    +0.039 C 
ATOM     12  C   UNL     1      35.843 -20.331 -21.060  0.00  0.00    +0.006 C 
ATOM     13  C   UNL     1      33.054 -20.264 -21.249  0.00  0.00    +0.038 C 
ATOM     14  C   UNL     1      35.227 -19.624 -22.094  0.00  0.00    +0.000 C 
ATOM     15  C   UNL     1      33.836 -19.590 -22.189  0.00  0.00    +0.003 C 
ENDROOT
BRANCH   4  16
ATOM     16  S   UNL     1      34.976 -24.728 -14.791  0.00  0.00    +0.081 S 
ATOM     17  O   UNL     1      33.902 -24.871 -13.817  0.00  0.00    -0.149 OA
ATOM     18  O   UNL     1      35.629 -25.918 -15.319  0.00  0.00    -0.149 OA
BRANCH  16  19
ATOM     19  N   UNL     1      36.161 -23.670 -14.165  0.00  0.00    -0.156 N 
ATOM     20  N   UNL     1      37.849 -23.049 -12.566  0.00  0.00    -0.094 NA
ATOM     21  N   UNL     1      36.807 -25.038 -12.266  0.00  0.00    -0.071 NA
ATOM     22  N   UNL     1      38.273 -23.732 -11.493  0.00  0.00    -0.139 N 
ATOM     23  N   UNL     1      37.683 -24.916 -11.277  0.00  0.00    -0.020 NA
ATOM     24  C   UNL     1      36.939 -23.909 -13.007  0.00  0.00    +0.145 C 
ATOM     25  H   UNL     1      36.316 -22.826 -14.649  0.00  0.00    +0.186 HD
ATOM     26  H   UNL     1      38.977 -23.384 -10.899  0.00  0.00    +0.197 HD
ENDBRANCH  16  19
ENDBRANCH   4  16
TORSDOF 2
ENDMDL
MODEL 6
REMARK VINA RESULT:     -11.4      2.698      4.392
REMARK  Name = 6102777
REMARK  2 active torsions:
REMARK  status: ('A' for Active; 'I' for Inactive)
REMARK    1  A    between atoms: C_4  and  S_16
REMARK    2  A    between atoms: S_16  and  N_19
REMARK                            x       y       z     vdW  Elec       q    Type
REMARK                         _______ _______ _______ _____ _____    ______ ____
ROOT
ATOM      1  O   UNL     1      31.919 -23.407 -16.906  0.00  0.00    -0.453 OA
ATOM      2  O   UNL     1      32.717 -25.001 -13.222  0.00  0.00    -0.286 OA
ATOM      3  C   UNL     1      33.546 -23.983 -15.178  0.00  0.00    +0.075 A 
ATOM      4  C   UNL     1      35.870 -23.477 -15.586  0.00  0.00    +0.126 C 
ATOM      5  C   UNL     1      33.204 -23.455 -16.422  0.00  0.00    +0.148 A 
ATOM      6  C   UNL     1      34.877 -23.997 -14.754  0.00  0.00    +0.026 C 
ATOM      7  C   UNL     1      31.110 -24.462 -14.858  0.00  0.00    +0.074 A 
ATOM      8  C   UNL     1      32.479 -24.524 -14.322  0.00  0.00    +0.201 A 
ATOM      9  C   UNL     1      30.909 -23.907 -16.121  0.00  0.00    +0.148 A 
ATOM     10  C   UNL     1      35.533 -22.948 -16.832  0.00  0.00    +0.023 C 
ATOM     11  C   UNL     1      34.202 -22.937 -17.250  0.00  0.00    +0.039 C 
ATOM     12  C   UNL     1      30.031 -24.951 -14.117  0.00  0.00    +0.006 C 
ATOM     13  C   UNL     1      29.619 -23.838 -16.649  0.00  0.00    +0.038 C 
ATOM     14  C   UNL     1      28.743 -24.880 -14.651  0.00  0.00    +0.000 C 
ATOM     15  C   UNL     1      28.537 -24.325 -15.913  0.00  0.00    +0.003 C 
ENDROOT
BRANCH   4  16
ATOM     16  S   UNL     1      37.537 -23.489 -15.067  0.00  0.00    +0.081 S 
ATOM     17  O   UNL     1      38.344 -22.879 -16.116  0.00  0.00    -0.149 OA
ATOM     18  O   UNL     1      37.594 -22.952 -13.714  0.00  0.00    -0.149 OA
BRANCH  16  19
ATOM     19  N   UNL     1      37.860 -25.165 -15.017  0.00  0.00    -0.156 N 
ATOM     20  N   UNL     1      39.318 -27.059 -14.735  0.00  0.00    -0.094 NA
ATOM     21  N   UNL     1      40.232 -24.997 -14.528  0.00  0.00    -0.071 NA
ATOM     22  N   UNL     1      40.631 -27.068 -14.465  0.00  0.00    -0.139 N 
ATOM     23  N   UNL     1      41.214 -25.868 -14.335  0.00  0.00    -0.020 NA
ATOM     24  C   UNL     1      39.125 -25.746 -14.763  0.00  0.00    +0.145 C 
ATOM     25  H   UNL     1      37.105 -25.777 -15.178  0.00  0.00    +0.186 HD
ATOM     26  H   UNL     1      41.137 -27.907 -14.368  0.00  0.00    +0.197 HD
ENDBRANCH  16  19
ENDBRANCH   4  16
TORSDOF 2
ENDMDL
MODEL 7
REMARK VINA RESULT:     -11.3      1.863      3.386
REMARK  Name = 6102777
REMARK  2 active torsions:
REMARK  status: ('A' for Active; 'I' for Inactive)
REMARK    1  A    between atoms: C_4  and  S_16
REMARK    2  A    between atoms: S_16  and  N_19
REMARK                            x       y       z     vdW  Elec       q    Type
REMARK                         _______ _______ _______ _____ _____    ______ ____
ROOT
ATOM      1  O   UNL     1      36.659 -21.129 -19.010  0.00  0.00    -0.453 OA
ATOM      2  O   UNL     1      32.797 -22.442 -18.682  0.00  0.00    -0.286 OA
ATOM      3  C   UNL     1      34.981 -22.427 -17.800  0.00  0.00    +0.075 A 
ATOM      4  C   UNL     1      35.666 -23.595 -15.803  0.00  0.00    +0.126 C 
ATOM      5  C   UNL     1      36.278 -21.944 -17.972  0.00  0.00    +0.148 A 
ATOM      6  C   UNL     1      34.669 -23.253 -16.717  0.00  0.00    +0.026 C 
ATOM      7  C   UNL     1      34.378 -21.175 -19.882  0.00  0.00    +0.074 A 
ATOM      8  C   UNL     1      33.950 -22.049 -18.779  0.00  0.00    +0.201 A 
ATOM      9  C   UNL     1      35.710 -20.765 -19.934  0.00  0.00    +0.148 A 
ATOM     10  C   UNL     1      36.965 -23.116 -15.971  0.00  0.00    +0.023 C 
ATOM     11  C   UNL     1      37.271 -22.291 -17.054  0.00  0.00    +0.039 C 
ATOM     12  C   UNL     1      33.470 -20.763 -20.860  0.00  0.00    +0.006 C 
ATOM     13  C   UNL     1      36.139 -19.936 -20.972  0.00  0.00    +0.038 C 
ATOM     14  C   UNL     1      33.904 -19.934 -21.896  0.00  0.00    +0.000 C 
ATOM     15  C   UNL     1      35.235 -19.521 -21.952  0.00  0.00    +0.003 C 
ENDROOT
BRANCH   4  16
ATOM     16  S   UNL     1      35.288 -24.627 -14.446  0.00  0.00    +0.081 S 
ATOM     17  O   UNL     1      35.771 -23.978 -13.233  0.00  0.00    -0.149 OA
ATOM     18  O   UNL     1      33.886 -25.010 -14.545  0.00  0.00    -0.149 OA
BRANCH  16  19
ATOM     19  N   UNL     1      36.264 -25.988 -14.778  0.00  0.00    -0.156 N 
ATOM     20  N   UNL     1      38.344 -27.198 -14.724  0.00  0.00    -0.094 NA
ATOM     21  N   UNL     1      38.314 -25.129 -13.802  0.00  0.00    -0.071 NA
ATOM     22  N   UNL     1      39.520 -26.811 -14.210  0.00  0.00    -0.139 N 
ATOM     23  N   UNL     1      39.549 -25.592 -13.655  0.00  0.00    -0.020 NA
ATOM     24  C   UNL     1      37.633 -26.113 -14.440  0.00  0.00    +0.145 C 
ATOM     25  H   UNL     1      35.840 -26.747 -15.241  0.00  0.00    +0.186 HD
ATOM     26  H   UNL     1      40.317 -27.390 -14.240  0.00  0.00    +0.197 HD
ENDBRANCH  16  19
ENDBRANCH   4  16
TORSDOF 2
ENDMDL
MODEL 8
REMARK VINA RESULT:     -11.2      1.874      2.528
REMARK  Name = 6102777
REMARK  2 active torsions:
REMARK  status: ('A' for Active; 'I' for Inactive)
REMARK    1  A    between atoms: C_4  and  S_16
REMARK    2  A    between atoms: S_16  and  N_19
REMARK                            x       y       z     vdW  Elec       q    Type
REMARK                         _______ _______ _______ _____ _____    ______ ____
ROOT
ATOM      1  O   UNL     1      32.809 -22.111 -18.725  0.00  0.00    -0.453 OA
ATOM      2  O   UNL     1      36.896 -21.901 -18.746  0.00  0.00    -0.286 OA
ATOM      3  C   UNL     1      34.948 -22.749 -17.732  0.00  0.00    +0.075 A 
ATOM      4  C   UNL     1      34.920 -24.190 -15.796  0.00  0.00    +0.126 C 
ATOM      5  C   UNL     1      33.554 -22.776 -17.783  0.00  0.00    +0.148 A 
ATOM      6  C   UNL     1      35.635 -23.453 -16.741  0.00  0.00    +0.026 C 
ATOM      7  C   UNL     1      34.861 -21.259 -19.742  0.00  0.00    +0.074 A 
ATOM      8  C   UNL     1      35.676 -21.964 -18.741  0.00  0.00    +0.201 A 
ATOM      9  C   UNL     1      33.472 -21.373 -19.676  0.00  0.00    +0.148 A 
ATOM     10  C   UNL     1      33.526 -24.220 -15.842  0.00  0.00    +0.023 C 
ATOM     11  C   UNL     1      32.843 -23.514 -16.834  0.00  0.00    +0.039 C 
ATOM     12  C   UNL     1      35.463 -20.490 -20.740  0.00  0.00    +0.006 C 
ATOM     13  C   UNL     1      32.679 -20.713 -20.616  0.00  0.00    +0.038 C 
ATOM     14  C   UNL     1      34.665 -19.831 -21.676  0.00  0.00    +0.000 C 
ATOM     15  C   UNL     1      33.276 -19.942 -21.615  0.00  0.00    +0.003 C 
ENDROOT
BRANCH   4  16
ATOM     16  S   UNL     1      35.769 -25.074 -14.553  0.00  0.00    +0.081 S 
ATOM     17  O   UNL     1      35.256 -24.645 -13.259  0.00  0.00    -0.149 OA
ATOM     18  O   UNL     1      35.741 -26.488 -14.904  0.00  0.00    -0.149 OA
BRANCH  16  19
ATOM     19  N   UNL     1      37.359 -24.481 -14.748  0.00  0.00    -0.156 N 
ATOM     20  N   UNL     1      39.744 -24.758 -14.913  0.00  0.00    -0.094 NA
ATOM     21  N   UNL     1      38.495 -26.622 -14.604  0.00  0.00    -0.071 NA
ATOM     22  N   UNL     1      40.459 -25.891 -14.847  0.00  0.00    -0.139 N 
ATOM     23  N   UNL     1      39.759 -27.019 -14.664  0.00  0.00    -0.020 NA
ATOM     24  C   UNL     1      38.531 -25.275 -14.756  0.00  0.00    +0.145 C 
ATOM     25  H   UNL     1      37.469 -23.509 -14.864  0.00  0.00    +0.186 HD
ATOM     26  H   UNL     1      41.440 -25.893 -14.928  0.00  0.00    +0.197 HD
ENDBRANCH  16  19
ENDBRANCH   4  16
TORSDOF 2
ENDMDL
MODEL 9
REMARK VINA RESULT:     -11.1      6.385      8.307
REMARK  Name = 6102777
REMARK  2 active torsions:
REMARK  status: ('A' for Active; 'I' for Inactive)
REMARK    1  A    between atoms: C_4  and  S_16
REMARK    2  A    between atoms: S_16  and  N_19
REMARK                            x       y       z     vdW  Elec       q    Type
REMARK                         _______ _______ _______ _____ _____    ______ ____
ROOT
ATOM      1  O   UNL     1      35.510 -23.905 -16.092  0.00  0.00    -0.453 OA
ATOM      2  O   UNL     1      34.116 -24.725 -12.333  0.00  0.00    -0.286 OA
ATOM      3  C   UNL     1      33.624 -24.118 -14.555  0.00  0.00    +0.075 A 
ATOM      4  C   UNL     1      31.406 -23.695 -15.407  0.00  0.00    +0.126 C 
ATOM      5  C   UNL     1      34.167 -23.850 -15.811  0.00  0.00    +0.148 A 
ATOM      6  C   UNL     1      32.245 -24.042 -14.347  0.00  0.00    +0.026 C 
ATOM      7  C   UNL     1      35.967 -24.535 -13.777  0.00  0.00    +0.074 A 
ATOM      8  C   UNL     1      34.532 -24.481 -13.456  0.00  0.00    +0.201 A 
ATOM      9  C   UNL     1      36.373 -24.243 -15.078  0.00  0.00    +0.148 A 
ATOM     10  C   UNL     1      31.945 -23.425 -16.665  0.00  0.00    +0.023 C 
ATOM     11  C   UNL     1      33.323 -23.502 -16.868  0.00  0.00    +0.039 C 
ATOM     12  C   UNL     1      36.905 -24.872 -12.798  0.00  0.00    +0.006 C 
ATOM     13  C   UNL     1      37.730 -24.288 -15.405  0.00  0.00    +0.038 C 
ATOM     14  C   UNL     1      38.260 -24.914 -13.131  0.00  0.00    +0.000 C 
ATOM     15  C   UNL     1      38.672 -24.623 -14.431  0.00  0.00    +0.003 C 
ENDROOT
BRANCH   4  16
ATOM     16  S   UNL     1      29.681 -23.596 -15.158  0.00  0.00    +0.081 S 
ATOM     17  O   UNL     1      29.216 -24.893 -14.682  0.00  0.00    -0.149 OA
ATOM     18  O   UNL     1      29.404 -22.401 -14.372  0.00  0.00    -0.149 OA
BRANCH  16  19
ATOM     19  N   UNL     1      29.126 -23.356 -16.755  0.00  0.00    -0.156 N 
ATOM     20  N   UNL     1      27.497 -22.631 -18.371  0.00  0.00    -0.094 NA
ATOM     21  N   UNL     1      26.977 -22.383 -16.180  0.00  0.00    -0.071 NA
ATOM     22  N   UNL     1      26.291 -22.085 -18.153  0.00  0.00    -0.139 N 
ATOM     23  N   UNL     1      25.942 -21.920 -16.869  0.00  0.00    -0.020 NA
ATOM     24  C   UNL     1      27.876 -22.795 -17.109  0.00  0.00    +0.145 C 
ATOM     25  H   UNL     1      29.723 -23.630 -17.488  0.00  0.00    +0.186 HD
ATOM     26  H   UNL     1      25.698 -21.820 -18.893  0.00  0.00    +0.197 HD
ENDBRANCH  16  19
ENDBRANCH   4  16
TORSDOF 2
ENDMDL
