MODEL 1
REMARK VINA RESULT:     -11.0      0.000      0.000
REMARK  Name = 9963057
REMARK  12 active torsions:
REMARK  status: ('A' for Active; 'I' for Inactive)
REMARK    1  A    between atoms: N_1  and  C_4
REMARK    2  A    between atoms: N_1  and  C_21
REMARK    3  A    between atoms: C_12  and  O_14
REMARK    4  A    between atoms: O_14  and  C_15
REMARK    5  A    between atoms: C_15  and  C_18
REMARK    6  A    between atoms: C_21  and  C_22
REMARK    7  A    between atoms: C_22  and  C_23
REMARK    8  A    between atoms: C_22  and  O_35
REMARK    9  A    between atoms: C_26  and  C_31
REMARK   10  A    between atoms: C_28  and  O_29
REMARK   11  A    between atoms: C_31  and  C_32
REMARK   12  A    between atoms: C_32  and  O_33
REMARK                            x       y       z     vdW  Elec       q    Type
REMARK                         _______ _______ _______ _____ _____    ______ ____
ROOT
ATOM      1  N   UNL     1      33.018 -22.840 -18.599  0.00  0.00    +0.387 N 
ATOM      2  H   UNL     1      32.812 -23.434 -19.402  0.00  0.00    -0.084 HD
ATOM      3  H   UNL     1      32.163 -22.403 -18.252  0.00  0.00    -0.084 HD
ENDROOT
BRANCH   1   4
ATOM      4  C   UNL     1      33.950 -21.789 -19.006  0.00  0.00    -0.057 C 
ATOM      5  C   UNL     1      35.358 -22.367 -19.162  0.00  0.00    -0.016 C 
ATOM      6  C   UNL     1      33.496 -21.152 -20.325  0.00  0.00    +0.005 C 
ATOM      7  C   UNL     1      36.357 -21.254 -19.476  0.00  0.00    +0.024 C 
ATOM      8  C   UNL     1      34.533 -20.237 -20.928  0.00  0.00    -0.025 C 
ATOM      9  C   UNL     1      35.888 -20.314 -20.557  0.00  0.00    -0.026 C 
ATOM     10  C   UNL     1      34.143 -19.328 -21.925  0.00  0.00    +0.032 C 
ATOM     11  C   UNL     1      36.819 -19.457 -21.164  0.00  0.00    -0.001 C 
ATOM     12  C   UNL     1      35.080 -18.489 -22.529  0.00  0.00    +0.139 C 
ATOM     13  C   UNL     1      36.417 -18.553 -22.146  0.00  0.00    +0.037 C 
BRANCH  12  14
ATOM     14  O   UNL     1      34.688 -17.611 -23.490  0.00  0.00    -0.466 OA
BRANCH  14  15
ATOM     15  C   UNL     1      35.368 -16.359 -23.544  0.00  0.00    +0.290 C 
BRANCH  15  18
ATOM     16  O   UNL     1      34.886 -15.259 -21.501  0.00  0.00    -0.271 OA
ATOM     17  N   UNL     1      33.687 -14.535 -23.354  0.00  0.00    -0.273 N 
ATOM     18  C   UNL     1      34.625 -15.339 -22.706  0.00  0.00    +0.270 C 
ATOM     19  C   UNL     1      32.953 -13.533 -22.591  0.00  0.00    +0.115 C 
ATOM     20  C   UNL     1      33.363 -14.591 -24.777  0.00  0.00    +0.115 C 
ENDBRANCH  15  18
ENDBRANCH  14  15
ENDBRANCH  12  14
ENDBRANCH   1   4
BRANCH   1  21
ATOM     21  C   UNL     1      33.590 -23.654 -17.538  0.00  0.00    -0.047 C 
BRANCH  21  22
ATOM     22  C   UNL     1      33.178 -23.122 -16.160  0.00  0.00    +0.112 C 
BRANCH  22  23
ATOM     23  C   UNL     1      31.952 -23.837 -15.634  0.00  0.00    +0.002 C 
ATOM     24  C   UNL     1      30.714 -23.636 -16.244  0.00  0.00    -0.003 C 
ATOM     25  C   UNL     1      32.060 -24.696 -14.541  0.00  0.00    +0.001 C 
ATOM     26  C   UNL     1      29.583 -24.295 -15.759  0.00  0.00    +0.014 C 
ATOM     27  C   UNL     1      30.930 -25.353 -14.055  0.00  0.00    +0.036 C 
ATOM     28  C   UNL     1      29.692 -25.153 -14.665  0.00  0.00    +0.130 C 
BRANCH  28  29
ATOM     29  O   UNL     1      28.598 -25.804 -14.179  0.00  0.00    -0.506 OA
ATOM     30  H   UNL     1      28.705 -26.545 -13.614  0.00  0.00    +0.292 HD
ENDBRANCH  28  29
BRANCH  26  31
ATOM     31  C   UNL     1      28.265 -24.069 -16.423  0.00  0.00    +0.061 C 
BRANCH  31  32
ATOM     32  C   UNL     1      27.594 -22.765 -15.986  0.00  0.00    +0.142 C 
BRANCH  32  33
ATOM     33  O   UNL     1      27.436 -21.910 -17.111  0.00  0.00    -0.382 OA
ATOM     34  H   UNL     1      26.747 -22.268 -17.695  0.00  0.00    +0.210 HD
ENDBRANCH  32  33
ENDBRANCH  31  32
ENDBRANCH  26  31
ENDBRANCH  22  23
BRANCH  22  35
ATOM     35  O   UNL     1      34.237 -23.303 -15.221  0.00  0.00    -0.382 OA
ATOM     36  H   UNL     1      34.285 -22.531 -14.636  0.00  0.00    +0.211 HD
ENDBRANCH  22  35
ENDBRANCH  21  22
ENDBRANCH   1  21
TORSDOF 12
ENDMDL
MODEL 2
REMARK VINA RESULT:     -10.8      3.714     10.760
REMARK  Name = 9963057
REMARK  12 active torsions:
REMARK  status: ('A' for Active; 'I' for Inactive)
REMARK    1  A    between atoms: N_1  and  C_4
REMARK    2  A    between atoms: N_1  and  C_21
REMARK    3  A    between atoms: C_12  and  O_14
REMARK    4  A    between atoms: O_14  and  C_15
REMARK    5  A    between atoms: C_15  and  C_18
REMARK    6  A    between atoms: C_21  and  C_22
REMARK    7  A    between atoms: C_22  and  C_23
REMARK    8  A    between atoms: C_22  and  O_35
REMARK    9  A    between atoms: C_26  and  C_31
REMARK   10  A    between atoms: C_28  and  O_29
REMARK   11  A    between atoms: C_31  and  C_32
REMARK   12  A    between atoms: C_32  and  O_33
REMARK                            x       y       z     vdW  Elec       q    Type
REMARK                         _______ _______ _______ _____ _____    ______ ____
ROOT
ATOM      1  N   UNL     1      35.985 -21.294 -20.224  0.00  0.00    +0.387 N 
ATOM      2  H   UNL     1      36.228 -22.132 -20.752  0.00  0.00    -0.084 HD
ATOM      3  H   UNL     1      36.829 -20.781 -19.965  0.00  0.00    -0.084 HD
ENDROOT
BRANCH   1   4
ATOM      4  C   UNL     1      35.279 -21.682 -19.004  0.00  0.00    -0.057 C 
ATOM      5  C   UNL     1      34.329 -22.845 -19.295  0.00  0.00    -0.016 C 
ATOM      6  C   UNL     1      36.278 -22.083 -17.911  0.00  0.00    +0.005 C 
ATOM      7  C   UNL     1      33.504 -23.182 -18.052  0.00  0.00    +0.024 C 
ATOM      8  C   UNL     1      35.620 -22.726 -16.715  0.00  0.00    -0.025 C 
ATOM      9  C   UNL     1      34.329 -23.280 -16.794  0.00  0.00    -0.026 C 
ATOM     10  C   UNL     1      36.338 -22.824 -15.513  0.00  0.00    +0.032 C 
ATOM     11  C   UNL     1      33.770 -23.889 -15.661  0.00  0.00    -0.001 C 
ATOM     12  C   UNL     1      35.775 -23.441 -14.396  0.00  0.00    +0.139 C 
ATOM     13  C   UNL     1      34.490 -23.971 -14.470  0.00  0.00    +0.037 C 
BRANCH  12  14
ATOM     14  O   UNL     1      36.482 -23.526 -13.237  0.00  0.00    -0.466 OA
BRANCH  14  15
ATOM     15  C   UNL     1      36.916 -24.823 -12.833  0.00  0.00    +0.290 C 
BRANCH  15  18
ATOM     16  O   UNL     1      39.228 -24.356 -12.602  0.00  0.00    -0.271 OA
ATOM     17  N   UNL     1      38.666 -25.931 -14.213  0.00  0.00    -0.273 N 
ATOM     18  C   UNL     1      38.373 -25.011 -13.205  0.00  0.00    +0.270 C 
ATOM     19  C   UNL     1      40.053 -26.152 -14.599  0.00  0.00    +0.115 C 
ATOM     20  C   UNL     1      37.684 -26.733 -14.938  0.00  0.00    +0.115 C 
ENDBRANCH  15  18
ENDBRANCH  14  15
ENDBRANCH  12  14
ENDBRANCH   1   4
BRANCH   1  21
ATOM     21  C   UNL     1      35.152 -20.434 -21.051  0.00  0.00    -0.047 C 
BRANCH  21  22
ATOM     22  C   UNL     1      35.967 -19.263 -21.614  0.00  0.00    +0.112 C 
BRANCH  22  23
ATOM     23  C   UNL     1      35.310 -18.670 -22.841  0.00  0.00    +0.002 C 
ATOM     24  C   UNL     1      35.237 -17.285 -22.991  0.00  0.00    -0.003 C 
ATOM     25  C   UNL     1      34.777 -19.507 -23.820  0.00  0.00    +0.001 C 
ATOM     26  C   UNL     1      34.631 -16.738 -24.123  0.00  0.00    +0.014 C 
ATOM     27  C   UNL     1      34.170 -18.961 -24.951  0.00  0.00    +0.036 C 
ATOM     28  C   UNL     1      34.097 -17.576 -25.102  0.00  0.00    +0.130 C 
BRANCH  28  29
ATOM     29  O   UNL     1      33.502 -17.058 -26.213  0.00  0.00    -0.506 OA
ATOM     30  H   UNL     1      32.991 -16.275 -26.149  0.00  0.00    +0.292 HD
ENDBRANCH  28  29
BRANCH  26  31
ATOM     31  C   UNL     1      34.562 -15.254 -24.269  0.00  0.00    +0.061 C 
BRANCH  31  32
ATOM     32  C   UNL     1      34.313 -14.536 -22.940  0.00  0.00    +0.142 C 
BRANCH  32  33
ATOM     33  O   UNL     1      34.327 -13.129 -23.149  0.00  0.00    -0.382 OA
ATOM     34  H   UNL     1      34.513 -12.943 -24.084  0.00  0.00    +0.210 HD
ENDBRANCH  32  33
ENDBRANCH  31  32
ENDBRANCH  26  31
ENDBRANCH  22  23
BRANCH  22  35
ATOM     35  O   UNL     1      36.096 -18.233 -20.634  0.00  0.00    -0.382 OA
ATOM     36  H   UNL     1      36.967 -18.297 -20.212  0.00  0.00    +0.211 HD
ENDBRANCH  22  35
ENDBRANCH  21  22
ENDBRANCH   1  21
TORSDOF 12
ENDMDL
MODEL 3
REMARK VINA RESULT:     -10.4      3.356     10.666
REMARK  Name = 9963057
REMARK  12 active torsions:
REMARK  status: ('A' for Active; 'I' for Inactive)
REMARK    1  A    between atoms: N_1  and  C_4
REMARK    2  A    between atoms: N_1  and  C_21
REMARK    3  A    between atoms: C_12  and  O_14
REMARK    4  A    between atoms: O_14  and  C_15
REMARK    5  A    between atoms: C_15  and  C_18
REMARK    6  A    between atoms: C_21  and  C_22
REMARK    7  A    between atoms: C_22  and  C_23
REMARK    8  A    between atoms: C_22  and  O_35
REMARK    9  A    between atoms: C_26  and  C_31
REMARK   10  A    between atoms: C_28  and  O_29
REMARK   11  A    between atoms: C_31  and  C_32
REMARK   12  A    between atoms: C_32  and  O_33
REMARK                            x       y       z     vdW  Elec       q    Type
REMARK                         _______ _______ _______ _____ _____    ______ ____
ROOT
ATOM      1  N   UNL     1      36.094 -19.661 -21.714  0.00  0.00    +0.387 N 
ATOM      2  H   UNL     1      36.503 -20.456 -22.206  0.00  0.00    -0.084 HD
ATOM      3  H   UNL     1      36.827 -19.083 -21.303  0.00  0.00    -0.084 HD
ENDROOT
BRANCH   1   4
ATOM      4  C   UNL     1      35.229 -20.154 -20.643  0.00  0.00    -0.057 C 
ATOM      5  C   UNL     1      33.947 -20.746 -21.232  0.00  0.00    -0.016 C 
ATOM      6  C   UNL     1      35.960 -21.214 -19.809  0.00  0.00    +0.005 C 
ATOM      7  C   UNL     1      32.990 -21.159 -20.115  0.00  0.00    +0.024 C 
ATOM      8  C   UNL     1      35.052 -21.940 -18.846  0.00  0.00    -0.025 C 
ATOM      9  C   UNL     1      33.655 -21.947 -19.015  0.00  0.00    -0.026 C 
ATOM     10  C   UNL     1      35.622 -22.672 -17.793  0.00  0.00    +0.032 C 
ATOM     11  C   UNL     1      32.855 -22.656 -18.107  0.00  0.00    -0.001 C 
ATOM     12  C   UNL     1      34.816 -23.382 -16.903  0.00  0.00    +0.139 C 
ATOM     13  C   UNL     1      33.433 -23.372 -17.059  0.00  0.00    +0.037 C 
BRANCH  12  14
ATOM     14  O   UNL     1      35.382 -24.084 -15.884  0.00  0.00    -0.466 OA
BRANCH  14  15
ATOM     15  C   UNL     1      36.123 -23.342 -14.917  0.00  0.00    +0.290 C 
BRANCH  15  18
ATOM     16  O   UNL     1      38.398 -23.600 -15.527  0.00  0.00    -0.271 OA
ATOM     17  N   UNL     1      37.678 -24.875 -13.725  0.00  0.00    -0.273 N 
ATOM     18  C   UNL     1      37.501 -23.951 -14.755  0.00  0.00    +0.270 C 
ATOM     19  C   UNL     1      38.988 -25.481 -13.524  0.00  0.00    +0.115 C 
ATOM     20  C   UNL     1      36.646 -25.304 -12.785  0.00  0.00    +0.115 C 
ENDBRANCH  15  18
ENDBRANCH  14  15
ENDBRANCH  12  14
ENDBRANCH   1   4
BRANCH   1  21
ATOM     21  C   UNL     1      35.336 -18.854 -22.658  0.00  0.00    -0.047 C 
BRANCH  21  22
ATOM     22  C   UNL     1      35.707 -17.372 -22.529  0.00  0.00    +0.112 C 
BRANCH  22  23
ATOM     23  C   UNL     1      34.883 -16.511 -23.462  0.00  0.00    +0.002 C 
ATOM     24  C   UNL     1      34.425 -15.265 -23.037  0.00  0.00    -0.003 C 
ATOM     25  C   UNL     1      34.582 -16.965 -24.746  0.00  0.00    +0.001 C 
ATOM     26  C   UNL     1      33.666 -14.471 -23.897  0.00  0.00    +0.014 C 
ATOM     27  C   UNL     1      33.822 -16.173 -25.605  0.00  0.00    +0.036 C 
ATOM     28  C   UNL     1      33.364 -14.926 -25.181  0.00  0.00    +0.130 C 
BRANCH  28  29
ATOM     29  O   UNL     1      32.624 -14.163 -26.033  0.00  0.00    -0.506 OA
ATOM     30  H   UNL     1      32.857 -14.111 -26.940  0.00  0.00    +0.292 HD
ENDBRANCH  28  29
BRANCH  26  31
ATOM     31  C   UNL     1      33.184 -13.139 -23.427  0.00  0.00    +0.061 C 
BRANCH  31  32
ATOM     32  C   UNL     1      32.628 -13.176 -22.000  0.00  0.00    +0.142 C 
BRANCH  32  33
ATOM     33  O   UNL     1      31.346 -12.563 -21.972  0.00  0.00    -0.382 OA
ATOM     34  H   UNL     1      31.285 -11.974 -21.203  0.00  0.00    +0.210 HD
ENDBRANCH  32  33
ENDBRANCH  31  32
ENDBRANCH  26  31
ENDBRANCH  22  23
BRANCH  22  35
ATOM     35  O   UNL     1      35.487 -16.920 -21.193  0.00  0.00    -0.382 OA
ATOM     36  H   UNL     1      35.833 -17.577 -20.569  0.00  0.00    +0.211 HD
ENDBRANCH  22  35
ENDBRANCH  21  22
ENDBRANCH   1  21
TORSDOF 12
ENDMDL
MODEL 4
REMARK VINA RESULT:     -10.4      2.849      6.011
REMARK  Name = 9963057
REMARK  12 active torsions:
REMARK  status: ('A' for Active; 'I' for Inactive)
REMARK    1  A    between atoms: N_1  and  C_4
REMARK    2  A    between atoms: N_1  and  C_21
REMARK    3  A    between atoms: C_12  and  O_14
REMARK    4  A    between atoms: O_14  and  C_15
REMARK    5  A    between atoms: C_15  and  C_18
REMARK    6  A    between atoms: C_21  and  C_22
REMARK    7  A    between atoms: C_22  and  C_23
REMARK    8  A    between atoms: C_22  and  O_35
REMARK    9  A    between atoms: C_26  and  C_31
REMARK   10  A    between atoms: C_28  and  O_29
REMARK   11  A    between atoms: C_31  and  C_32
REMARK   12  A    between atoms: C_32  and  O_33
REMARK                            x       y       z     vdW  Elec       q    Type
REMARK                         _______ _______ _______ _____ _____    ______ ____
ROOT
ATOM      1  N   UNL     1      36.086 -19.146 -22.347  0.00  0.00    +0.387 N 
ATOM      2  H   UNL     1      37.037 -18.952 -22.031  0.00  0.00    -0.084 HD
ATOM      3  H   UNL     1      36.046 -20.051 -22.816  0.00  0.00    -0.084 HD
ENDROOT
BRANCH   1   4
ATOM      4  C   UNL     1      35.675 -18.108 -23.292  0.00  0.00    -0.057 C 
ATOM      5  C   UNL     1      34.524 -18.618 -24.162  0.00  0.00    -0.016 C 
ATOM      6  C   UNL     1      35.243 -16.841 -22.542  0.00  0.00    +0.005 C 
ATOM      7  C   UNL     1      34.164 -17.582 -25.227  0.00  0.00    +0.024 C 
ATOM      8  C   UNL     1      34.577 -15.823 -23.436  0.00  0.00    -0.025 C 
ATOM      9  C   UNL     1      34.032 -16.182 -24.682  0.00  0.00    -0.026 C 
ATOM     10  C   UNL     1      34.447 -14.501 -22.983  0.00  0.00    +0.032 C 
ATOM     11  C   UNL     1      33.401 -15.204 -25.465  0.00  0.00    -0.001 C 
ATOM     12  C   UNL     1      33.808 -13.540 -23.766  0.00  0.00    +0.139 C 
ATOM     13  C   UNL     1      33.288 -13.892 -25.008  0.00  0.00    +0.037 C 
BRANCH  12  14
ATOM     14  O   UNL     1      33.693 -12.262 -23.317  0.00  0.00    -0.466 OA
BRANCH  14  15
ATOM     15  C   UNL     1      33.491 -11.244 -24.296  0.00  0.00    +0.290 C 
BRANCH  15  18
ATOM     16  O   UNL     1      35.382  -9.844 -24.018  0.00  0.00    -0.271 OA
ATOM     17  N   UNL     1      33.360  -8.981 -23.270  0.00  0.00    -0.273 N 
ATOM     18  C   UNL     1      34.165  -9.964 -23.847  0.00  0.00    +0.270 C 
ATOM     19  C   UNL     1      33.962  -7.729 -22.831  0.00  0.00    +0.115 C 
ATOM     20  C   UNL     1      31.917  -9.082 -23.065  0.00  0.00    +0.115 C 
ENDBRANCH  15  18
ENDBRANCH  14  15
ENDBRANCH  12  14
ENDBRANCH   1   4
BRANCH   1  21
ATOM     21  C   UNL     1      35.198 -19.176 -21.195  0.00  0.00    -0.047 C 
BRANCH  21  22
ATOM     22  C   UNL     1      34.492 -20.533 -21.087  0.00  0.00    +0.112 C 
BRANCH  22  23
ATOM     23  C   UNL     1      34.929 -21.286 -19.849  0.00  0.00    +0.002 C 
ATOM     24  C   UNL     1      34.004 -22.047 -19.134  0.00  0.00    -0.003 C 
ATOM     25  C   UNL     1      36.255 -21.220 -19.423  0.00  0.00    +0.001 C 
ATOM     26  C   UNL     1      34.406 -22.741 -17.993  0.00  0.00    +0.014 C 
ATOM     27  C   UNL     1      36.657 -21.913 -18.281  0.00  0.00    +0.036 C 
ATOM     28  C   UNL     1      35.732 -22.673 -17.566  0.00  0.00    +0.130 C 
BRANCH  28  29
ATOM     29  O   UNL     1      36.141 -23.346 -16.454  0.00  0.00    -0.506 OA
ATOM     30  H   UNL     1      35.645 -23.287 -15.661  0.00  0.00    +0.292 HD
ENDBRANCH  28  29
BRANCH  26  31
ATOM     31  C   UNL     1      33.403 -23.551 -17.239  0.00  0.00    +0.061 C 
BRANCH  31  32
ATOM     32  C   UNL     1      32.040 -22.863 -17.134  0.00  0.00    +0.142 C 
BRANCH  32  33
ATOM     33  O   UNL     1      31.240 -23.535 -16.169  0.00  0.00    -0.382 OA
ATOM     34  H   UNL     1      30.571 -22.923 -15.821  0.00  0.00    +0.210 HD
ENDBRANCH  32  33
ENDBRANCH  31  32
ENDBRANCH  26  31
ENDBRANCH  22  23
BRANCH  22  35
ATOM     35  O   UNL     1      33.078 -20.354 -21.025  0.00  0.00    -0.382 OA
ATOM     36  H   UNL     1      32.640 -21.085 -21.488  0.00  0.00    +0.211 HD
ENDBRANCH  22  35
ENDBRANCH  21  22
ENDBRANCH   1  21
TORSDOF 12
ENDMDL
MODEL 5
REMARK VINA RESULT:     -10.3      2.145     10.536
REMARK  Name = 9963057
REMARK  12 active torsions:
REMARK  status: ('A' for Active; 'I' for Inactive)
REMARK    1  A    between atoms: N_1  and  C_4
REMARK    2  A    between atoms: N_1  and  C_21
REMARK    3  A    between atoms: C_12  and  O_14
REMARK    4  A    between atoms: O_14  and  C_15
REMARK    5  A    between atoms: C_15  and  C_18
REMARK    6  A    between atoms: C_21  and  C_22
REMARK    7  A    between atoms: C_22  and  C_23
REMARK    8  A    between atoms: C_22  and  O_35
REMARK    9  A    between atoms: C_26  and  C_31
REMARK   10  A    between atoms: C_28  and  O_29
REMARK   11  A    between atoms: C_31  and  C_32
REMARK   12  A    between atoms: C_32  and  O_33
REMARK                            x       y       z     vdW  Elec       q    Type
REMARK                         _______ _______ _______ _____ _____    ______ ____
ROOT
ATOM      1  N   UNL     1      34.435 -19.305 -22.396  0.00  0.00    +0.387 N 
ATOM      2  H   UNL     1      33.968 -18.571 -21.864  0.00  0.00    -0.084 HD
ATOM      3  H   UNL     1      33.792 -19.715 -23.075  0.00  0.00    -0.084 HD
ENDROOT
BRANCH   1   4
ATOM      4  C   UNL     1      34.879 -20.353 -21.478  0.00  0.00    -0.057 C 
ATOM      5  C   UNL     1      36.090 -19.871 -20.677  0.00  0.00    -0.016 C 
ATOM      6  C   UNL     1      33.744 -20.747 -20.525  0.00  0.00    +0.005 C 
ATOM      7  C   UNL     1      36.629 -20.999 -19.798  0.00  0.00    +0.024 C 
ATOM      8  C   UNL     1      34.201 -21.641 -19.398  0.00  0.00    -0.025 C 
ATOM      9  C   UNL     1      35.556 -21.727 -19.030  0.00  0.00    -0.026 C 
ATOM     10  C   UNL     1      33.241 -22.356 -18.664  0.00  0.00    +0.032 C 
ATOM     11  C   UNL     1      35.927 -22.553 -17.959  0.00  0.00    -0.001 C 
ATOM     12  C   UNL     1      33.622 -23.166 -17.595  0.00  0.00    +0.139 C 
ATOM     13  C   UNL     1      34.966 -23.266 -17.244  0.00  0.00    +0.037 C 
BRANCH  12  14
ATOM     14  O   UNL     1      32.683 -23.857 -16.895  0.00  0.00    -0.466 OA
BRANCH  14  15
ATOM     15  C   UNL     1      31.872 -23.114 -15.987  0.00  0.00    +0.290 C 
BRANCH  15  18
ATOM     16  O   UNL     1      29.915 -22.559 -17.203  0.00  0.00    -0.271 OA
ATOM     17  N   UNL     1      29.705 -24.297 -15.677  0.00  0.00    -0.273 N 
ATOM     18  C   UNL     1      30.411 -23.294 -16.343  0.00  0.00    +0.270 C 
ATOM     19  C   UNL     1      28.299 -24.514 -15.992  0.00  0.00    +0.115 C 
ATOM     20  C   UNL     1      30.260 -25.193 -14.667  0.00  0.00    +0.115 C 
ENDBRANCH  15  18
ENDBRANCH  14  15
ENDBRANCH  12  14
ENDBRANCH   1   4
BRANCH   1  21
ATOM     21  C   UNL     1      35.565 -18.732 -23.111  0.00  0.00    -0.047 C 
BRANCH  21  22
ATOM     22  C   UNL     1      35.699 -17.235 -22.809  0.00  0.00    +0.112 C 
BRANCH  22  23
ATOM     23  C   UNL     1      34.822 -16.405 -23.722  0.00  0.00    +0.002 C 
ATOM     24  C   UNL     1      34.367 -15.155 -23.304  0.00  0.00    -0.003 C 
ATOM     25  C   UNL     1      34.468 -16.891 -24.980  0.00  0.00    +0.001 C 
ATOM     26  C   UNL     1      33.559 -14.390 -24.145  0.00  0.00    +0.014 C 
ATOM     27  C   UNL     1      33.658 -16.128 -25.821  0.00  0.00    +0.036 C 
ATOM     28  C   UNL     1      33.204 -14.877 -25.403  0.00  0.00    +0.130 C 
BRANCH  28  29
ATOM     29  O   UNL     1      32.416 -14.143 -26.237  0.00  0.00    -0.506 OA
ATOM     30  H   UNL     1      32.647 -13.258 -26.443  0.00  0.00    +0.292 HD
ENDBRANCH  28  29
BRANCH  26  31
ATOM     31  C   UNL     1      33.081 -13.053 -23.683  0.00  0.00    +0.061 C 
BRANCH  31  32
ATOM     32  C   UNL     1      34.017 -11.912 -24.092  0.00  0.00    +0.142 C 
BRANCH  32  33
ATOM     33  O   UNL     1      33.814 -11.599 -25.464  0.00  0.00    -0.382 OA
ATOM     34  H   UNL     1      34.622 -11.204 -25.828  0.00  0.00    +0.210 HD
ENDBRANCH  32  33
ENDBRANCH  31  32
ENDBRANCH  26  31
ENDBRANCH  22  23
BRANCH  22  35
ATOM     35  O   UNL     1      35.320 -16.965 -21.460  0.00  0.00    -0.382 OA
ATOM     36  H   UNL     1      35.299 -16.006 -21.316  0.00  0.00    +0.211 HD
ENDBRANCH  22  35
ENDBRANCH  21  22
ENDBRANCH   1  21
TORSDOF 12
ENDMDL
MODEL 6
REMARK VINA RESULT:     -10.3      4.437     12.543
REMARK  Name = 9963057
REMARK  12 active torsions:
REMARK  status: ('A' for Active; 'I' for Inactive)
REMARK    1  A    between atoms: N_1  and  C_4
REMARK    2  A    between atoms: N_1  and  C_21
REMARK    3  A    between atoms: C_12  and  O_14
REMARK    4  A    between atoms: O_14  and  C_15
REMARK    5  A    between atoms: C_15  and  C_18
REMARK    6  A    between atoms: C_21  and  C_22
REMARK    7  A    between atoms: C_22  and  C_23
REMARK    8  A    between atoms: C_22  and  O_35
REMARK    9  A    between atoms: C_26  and  C_31
REMARK   10  A    between atoms: C_28  and  O_29
REMARK   11  A    between atoms: C_31  and  C_32
REMARK   12  A    between atoms: C_32  and  O_33
REMARK                            x       y       z     vdW  Elec       q    Type
REMARK                         _______ _______ _______ _____ _____    ______ ____
ROOT
ATOM      1  N   UNL     1      34.022 -12.132 -23.352  0.00  0.00    +0.387 N 
ATOM      2  H   UNL     1      35.030 -12.015 -23.451  0.00  0.00    -0.084 HD
ATOM      3  H   UNL     1      33.746 -12.016 -22.376  0.00  0.00    -0.084 HD
ENDROOT
BRANCH   1   4
ATOM      4  C   UNL     1      33.650 -13.478 -23.787  0.00  0.00    -0.057 C 
ATOM      5  C   UNL     1      33.671 -13.560 -25.314  0.00  0.00    -0.016 C 
ATOM      6  C   UNL     1      34.610 -14.517 -23.193  0.00  0.00    +0.005 C 
ATOM      7  C   UNL     1      33.174 -14.929 -25.779  0.00  0.00    +0.024 C 
ATOM      8  C   UNL     1      34.439 -15.891 -23.793  0.00  0.00    -0.025 C 
ATOM      9  C   UNL     1      33.798 -16.080 -25.031  0.00  0.00    -0.026 C 
ATOM     10  C   UNL     1      34.984 -16.999 -23.124  0.00  0.00    +0.032 C 
ATOM     11  C   UNL     1      33.685 -17.375 -25.558  0.00  0.00    -0.001 C 
ATOM     12  C   UNL     1      34.874 -18.280 -23.664  0.00  0.00    +0.139 C 
ATOM     13  C   UNL     1      34.222 -18.468 -24.879  0.00  0.00    +0.037 C 
BRANCH  12  14
ATOM     14  O   UNL     1      35.404 -19.345 -23.003  0.00  0.00    -0.466 OA
BRANCH  14  15
ATOM     15  C   UNL     1      35.526 -19.235 -21.587  0.00  0.00    +0.290 C 
BRANCH  15  18
ATOM     16  O   UNL     1      33.370 -20.112 -21.144  0.00  0.00    -0.271 OA
ATOM     17  N   UNL     1      35.138 -21.175 -20.078  0.00  0.00    -0.273 N 
ATOM     18  C   UNL     1      34.580 -20.209 -20.916  0.00  0.00    +0.270 C 
ATOM     19  C   UNL     1      34.268 -22.140 -19.417  0.00  0.00    +0.115 C 
ATOM     20  C   UNL     1      36.563 -21.330 -19.796  0.00  0.00    +0.115 C 
ENDBRANCH  15  18
ENDBRANCH  14  15
ENDBRANCH  12  14
ENDBRANCH   1   4
BRANCH   1  21
ATOM     21  C   UNL     1      33.343 -11.125 -24.153  0.00  0.00    -0.047 C 
BRANCH  21  22
ATOM     22  C   UNL     1      34.238  -9.897 -24.358  0.00  0.00    +0.112 C 
BRANCH  22  23
ATOM     23  C   UNL     1      33.743  -8.711 -23.559  0.00  0.00    +0.002 C 
ATOM     24  C   UNL     1      33.132  -8.911 -22.321  0.00  0.00    -0.003 C 
ATOM     25  C   UNL     1      33.896  -7.419 -24.060  0.00  0.00    +0.001 C 
ATOM     26  C   UNL     1      32.675  -7.818 -21.584  0.00  0.00    +0.014 C 
ATOM     27  C   UNL     1      33.438  -6.326 -23.325  0.00  0.00    +0.036 C 
ATOM     28  C   UNL     1      32.828  -6.526 -22.087  0.00  0.00    +0.130 C 
BRANCH  28  29
ATOM     29  O   UNL     1      32.388  -5.447 -21.380  0.00  0.00    -0.506 OA
ATOM     30  H   UNL     1      31.566  -5.484 -20.931  0.00  0.00    +0.292 HD
ENDBRANCH  28  29
BRANCH  26  31
ATOM     31  C   UNL     1      32.024  -8.049 -20.261  0.00  0.00    +0.061 C 
BRANCH  31  32
ATOM     32  C   UNL     1      31.777  -9.532 -19.970  0.00  0.00    +0.142 C 
BRANCH  32  33
ATOM     33  O   UNL     1      32.425  -9.893 -18.757  0.00  0.00    -0.382 OA
ATOM     34  H   UNL     1      32.247 -10.828 -18.561  0.00  0.00    +0.210 HD
ENDBRANCH  32  33
ENDBRANCH  31  32
ENDBRANCH  26  31
ENDBRANCH  22  23
BRANCH  22  35
ATOM     35  O   UNL     1      35.575 -10.183 -23.949  0.00  0.00    -0.382 OA
ATOM     36  H   UNL     1      35.797 -11.096 -24.189  0.00  0.00    +0.211 HD
ENDBRANCH  22  35
ENDBRANCH  21  22
ENDBRANCH   1  21
TORSDOF 12
ENDMDL
MODEL 7
REMARK VINA RESULT:     -10.2      2.268      4.324
REMARK  Name = 9963057
REMARK  12 active torsions:
REMARK  status: ('A' for Active; 'I' for Inactive)
REMARK    1  A    between atoms: N_1  and  C_4
REMARK    2  A    between atoms: N_1  and  C_21
REMARK    3  A    between atoms: C_12  and  O_14
REMARK    4  A    between atoms: O_14  and  C_15
REMARK    5  A    between atoms: C_15  and  C_18
REMARK    6  A    between atoms: C_21  and  C_22
REMARK    7  A    between atoms: C_22  and  C_23
REMARK    8  A    between atoms: C_22  and  O_35
REMARK    9  A    between atoms: C_26  and  C_31
REMARK   10  A    between atoms: C_28  and  O_29
REMARK   11  A    between atoms: C_31  and  C_32
REMARK   12  A    between atoms: C_32  and  O_33
REMARK                            x       y       z     vdW  Elec       q    Type
REMARK                         _______ _______ _______ _____ _____    ______ ____
ROOT
ATOM      1  N   UNL     1      32.904 -22.578 -18.781  0.00  0.00    +0.387 N 
ATOM      2  H   UNL     1      32.485 -22.951 -19.633  0.00  0.00    -0.084 HD
ATOM      3  H   UNL     1      32.196 -22.114 -18.211  0.00  0.00    -0.084 HD
ENDROOT
BRANCH   1   4
ATOM      4  C   UNL     1      33.932 -21.601 -19.139  0.00  0.00    -0.057 C 
ATOM      5  C   UNL     1      35.316 -22.248 -19.076  0.00  0.00    -0.016 C 
ATOM      6  C   UNL     1      33.676 -21.047 -20.547  0.00  0.00    +0.005 C 
ATOM      7  C   UNL     1      36.403 -21.205 -19.338  0.00  0.00    +0.024 C 
ATOM      8  C   UNL     1      34.825 -20.224 -21.076  0.00  0.00    -0.025 C 
ATOM      9  C   UNL     1      36.119 -20.330 -20.533  0.00  0.00    -0.026 C 
ATOM     10  C   UNL     1      34.607 -19.378 -22.175  0.00  0.00    +0.032 C 
ATOM     11  C   UNL     1      37.159 -19.562 -21.076  0.00  0.00    -0.001 C 
ATOM     12  C   UNL     1      35.653 -18.627 -22.713  0.00  0.00    +0.139 C 
ATOM     13  C   UNL     1      36.927 -18.718 -22.161  0.00  0.00    +0.037 C 
BRANCH  12  14
ATOM     14  O   UNL     1      35.427 -17.809 -23.775  0.00  0.00    -0.466 OA
BRANCH  14  15
ATOM     15  C   UNL     1      34.870 -16.525 -23.499  0.00  0.00    +0.290 C 
BRANCH  15  18
ATOM     16  O   UNL     1      34.362 -16.590 -25.813  0.00  0.00    -0.271 OA
ATOM     17  N   UNL     1      33.577 -14.739 -24.652  0.00  0.00    -0.273 N 
ATOM     18  C   UNL     1      34.251 -15.956 -24.759  0.00  0.00    +0.270 C 
ATOM     19  C   UNL     1      32.958 -14.156 -25.835  0.00  0.00    +0.115 C 
ATOM     20  C   UNL     1      33.413 -13.967 -23.422  0.00  0.00    +0.115 C 
ENDBRANCH  15  18
ENDBRANCH  14  15
ENDBRANCH  12  14
ENDBRANCH   1   4
BRANCH   1  21
ATOM     21  C   UNL     1      33.479 -23.672 -18.013  0.00  0.00    -0.047 C 
BRANCH  21  22
ATOM     22  C   UNL     1      32.706 -23.885 -16.706  0.00  0.00    +0.112 C 
BRANCH  22  23
ATOM     23  C   UNL     1      33.634 -23.903 -15.510  0.00  0.00    +0.002 C 
ATOM     24  C   UNL     1      34.983 -23.590 -15.671  0.00  0.00    -0.003 C 
ATOM     25  C   UNL     1      33.139 -24.232 -14.248  0.00  0.00    +0.001 C 
ATOM     26  C   UNL     1      35.839 -23.606 -14.569  0.00  0.00    +0.014 C 
ATOM     27  C   UNL     1      33.994 -24.250 -13.147  0.00  0.00    +0.036 C 
ATOM     28  C   UNL     1      35.344 -23.937 -13.307  0.00  0.00    +0.130 C 
BRANCH  28  29
ATOM     29  O   UNL     1      36.166 -23.957 -12.221  0.00  0.00    -0.506 OA
ATOM     30  H   UNL     1      37.085 -24.108 -12.330  0.00  0.00    +0.292 HD
ENDBRANCH  28  29
BRANCH  26  31
ATOM     31  C   UNL     1      37.281 -23.268 -14.758  0.00  0.00    +0.061 C 
BRANCH  31  32
ATOM     32  C   UNL     1      38.180 -24.506 -14.812  0.00  0.00    +0.142 C 
BRANCH  32  33
ATOM     33  O   UNL     1      38.898 -24.626 -13.590  0.00  0.00    -0.382 OA
ATOM     34  H   UNL     1      39.820 -24.353 -13.729  0.00  0.00    +0.210 HD
ENDBRANCH  32  33
ENDBRANCH  31  32
ENDBRANCH  26  31
ENDBRANCH  22  23
BRANCH  22  35
ATOM     35  O   UNL     1      31.754 -22.839 -16.516  0.00  0.00    -0.382 OA
ATOM     36  H   UNL     1      31.786 -22.233 -17.272  0.00  0.00    +0.211 HD
ENDBRANCH  22  35
ENDBRANCH  21  22
ENDBRANCH   1  21
TORSDOF 12
ENDMDL
MODEL 8
REMARK VINA RESULT:     -10.1      2.531      4.464
REMARK  Name = 9963057
REMARK  12 active torsions:
REMARK  status: ('A' for Active; 'I' for Inactive)
REMARK    1  A    between atoms: N_1  and  C_4
REMARK    2  A    between atoms: N_1  and  C_21
REMARK    3  A    between atoms: C_12  and  O_14
REMARK    4  A    between atoms: O_14  and  C_15
REMARK    5  A    between atoms: C_15  and  C_18
REMARK    6  A    between atoms: C_21  and  C_22
REMARK    7  A    between atoms: C_22  and  C_23
REMARK    8  A    between atoms: C_22  and  O_35
REMARK    9  A    between atoms: C_26  and  C_31
REMARK   10  A    between atoms: C_28  and  O_29
REMARK   11  A    between atoms: C_31  and  C_32
REMARK   12  A    between atoms: C_32  and  O_33
REMARK                            x       y       z     vdW  Elec       q    Type
REMARK                         _______ _______ _______ _____ _____    ______ ____
ROOT
ATOM      1  N   UNL     1      33.005 -22.729 -18.614  0.00  0.00    +0.387 N 
ATOM      2  H   UNL     1      32.493 -23.086 -19.421  0.00  0.00    -0.084 HD
ATOM      3  H   UNL     1      32.359 -22.321 -17.937  0.00  0.00    -0.084 HD
ENDROOT
BRANCH   1   4
ATOM      4  C   UNL     1      33.936 -21.692 -19.057  0.00  0.00    -0.057 C 
ATOM      5  C   UNL     1      35.337 -22.282 -19.228  0.00  0.00    -0.016 C 
ATOM      6  C   UNL     1      33.462 -21.075 -20.380  0.00  0.00    +0.005 C 
ATOM      7  C   UNL     1      36.338 -21.182 -19.581  0.00  0.00    +0.024 C 
ATOM      8  C   UNL     1      34.494 -20.178 -21.018  0.00  0.00    -0.025 C 
ATOM      9  C   UNL     1      35.855 -20.258 -20.670  0.00  0.00    -0.026 C 
ATOM     10  C   UNL     1      34.092 -19.285 -22.023  0.00  0.00    +0.032 C 
ATOM     11  C   UNL     1      36.780 -19.419 -21.309  0.00  0.00    -0.001 C 
ATOM     12  C   UNL     1      35.023 -18.464 -22.659  0.00  0.00    +0.139 C 
ATOM     13  C   UNL     1      36.366 -18.529 -22.300  0.00  0.00    +0.037 C 
BRANCH  12  14
ATOM     14  O   UNL     1      34.619 -17.600 -23.629  0.00  0.00    -0.466 OA
BRANCH  14  15
ATOM     15  C   UNL     1      35.242 -16.317 -23.658  0.00  0.00    +0.290 C 
BRANCH  15  18
ATOM     16  O   UNL     1      33.549 -15.006 -24.671  0.00  0.00    -0.271 OA
ATOM     17  N   UNL     1      33.978 -14.559 -22.433  0.00  0.00    -0.273 N 
ATOM     18  C   UNL     1      34.183 -15.235 -23.637  0.00  0.00    +0.270 C 
ATOM     19  C   UNL     1      32.964 -13.515 -22.361  0.00  0.00    +0.115 C 
ATOM     20  C   UNL     1      34.699 -14.812 -21.188  0.00  0.00    +0.115 C 
ENDBRANCH  15  18
ENDBRANCH  14  15
ENDBRANCH  12  14
ENDBRANCH   1   4
BRANCH   1  21
ATOM     21  C   UNL     1      33.718 -23.825 -17.978  0.00  0.00    -0.047 C 
BRANCH  21  22
ATOM     22  C   UNL     1      33.371 -23.909 -16.487  0.00  0.00    +0.112 C 
BRANCH  22  23
ATOM     23  C   UNL     1      34.602 -23.756 -15.622  0.00  0.00    +0.002 C 
ATOM     24  C   UNL     1      34.657 -24.373 -14.372  0.00  0.00    -0.003 C 
ATOM     25  C   UNL     1      35.683 -22.998 -16.073  0.00  0.00    +0.001 C 
ATOM     26  C   UNL     1      35.793 -24.231 -13.574  0.00  0.00    +0.014 C 
ATOM     27  C   UNL     1      36.818 -22.856 -15.275  0.00  0.00    +0.036 C 
ATOM     28  C   UNL     1      36.872 -23.472 -14.025  0.00  0.00    +0.130 C 
BRANCH  28  29
ATOM     29  O   UNL     1      37.989 -23.325 -13.258  0.00  0.00    -0.506 OA
ATOM     30  H   UNL     1      38.811 -23.124 -13.661  0.00  0.00    +0.292 HD
ENDBRANCH  28  29
BRANCH  26  31
ATOM     31  C   UNL     1      35.835 -24.898 -12.239  0.00  0.00    +0.061 C 
BRANCH  31  32
ATOM     32  C   UNL     1      35.790 -23.904 -11.075  0.00  0.00    +0.142 C 
BRANCH  32  33
ATOM     33  O   UNL     1      36.100 -24.578  -9.861  0.00  0.00    -0.382 OA
ATOM     34  H   UNL     1      36.870 -24.156  -9.445  0.00  0.00    +0.210 HD
ENDBRANCH  32  33
ENDBRANCH  31  32
ENDBRANCH  26  31
ENDBRANCH  22  23
BRANCH  22  35
ATOM     35  O   UNL     1      32.447 -22.881 -16.134  0.00  0.00    -0.382 OA
ATOM     36  H   UNL     1      31.545 -23.174 -16.337  0.00  0.00    +0.211 HD
ENDBRANCH  22  35
ENDBRANCH  21  22
ENDBRANCH   1  21
TORSDOF 12
ENDMDL
MODEL 9
REMARK VINA RESULT:     -10.1      3.208      5.616
REMARK  Name = 9963057
REMARK  12 active torsions:
REMARK  status: ('A' for Active; 'I' for Inactive)
REMARK    1  A    between atoms: N_1  and  C_4
REMARK    2  A    between atoms: N_1  and  C_21
REMARK    3  A    between atoms: C_12  and  O_14
REMARK    4  A    between atoms: O_14  and  C_15
REMARK    5  A    between atoms: C_15  and  C_18
REMARK    6  A    between atoms: C_21  and  C_22
REMARK    7  A    between atoms: C_22  and  C_23
REMARK    8  A    between atoms: C_22  and  O_35
REMARK    9  A    between atoms: C_26  and  C_31
REMARK   10  A    between atoms: C_28  and  O_29
REMARK   11  A    between atoms: C_31  and  C_32
REMARK   12  A    between atoms: C_32  and  O_33
REMARK                            x       y       z     vdW  Elec       q    Type
REMARK                         _______ _______ _______ _____ _____    ______ ____
ROOT
ATOM      1  N   UNL     1      36.347 -19.056 -20.981  0.00  0.00    +0.387 N 
ATOM      2  H   UNL     1      36.137 -18.376 -20.251  0.00  0.00    -0.084 HD
ATOM      3  H   UNL     1      37.345 -19.267 -20.993  0.00  0.00    -0.084 HD
ENDROOT
BRANCH   1   4
ATOM      4  C   UNL     1      35.970 -18.499 -22.279  0.00  0.00    -0.057 C 
ATOM      5  C   UNL     1      34.987 -19.433 -22.987  0.00  0.00    -0.016 C 
ATOM      6  C   UNL     1      35.339 -17.111 -22.103  0.00  0.00    +0.005 C 
ATOM      7  C   UNL     1      34.676 -18.914 -24.391  0.00  0.00    +0.024 C 
ATOM      8  C   UNL     1      34.705 -16.585 -23.368  0.00  0.00    -0.025 C 
ATOM      9  C   UNL     1      34.356 -17.441 -24.428  0.00  0.00    -0.026 C 
ATOM     10  C   UNL     1      34.405 -15.217 -23.461  0.00  0.00    +0.032 C 
ATOM     11  C   UNL     1      33.747 -16.907 -25.573  0.00  0.00    -0.001 C 
ATOM     12  C   UNL     1      33.789 -14.699 -24.600  0.00  0.00    +0.139 C 
ATOM     13  C   UNL     1      33.463 -15.545 -25.657  0.00  0.00    +0.037 C 
BRANCH  12  14
ATOM     14  O   UNL     1      33.508 -13.371 -24.679  0.00  0.00    -0.466 OA
BRANCH  14  15
ATOM     15  C   UNL     1      33.758 -12.584 -23.515  0.00  0.00    +0.290 C 
BRANCH  15  18
ATOM     16  O   UNL     1      34.383 -10.673 -24.768  0.00  0.00    -0.271 OA
ATOM     17  N   UNL     1      32.758 -10.336 -23.144  0.00  0.00    -0.273 N 
ATOM     18  C   UNL     1      33.665 -11.113 -23.865  0.00  0.00    +0.270 C 
ATOM     19  C   UNL     1      32.627  -8.918 -23.450  0.00  0.00    +0.115 C 
ATOM     20  C   UNL     1      31.884 -10.824 -22.080  0.00  0.00    +0.115 C 
ENDBRANCH  15  18
ENDBRANCH  14  15
ENDBRANCH  12  14
ENDBRANCH   1   4
BRANCH   1  21
ATOM     21  C   UNL     1      35.613 -20.284 -20.715  0.00  0.00    -0.047 C 
BRANCH  21  22
ATOM     22  C   UNL     1      36.350 -21.147 -19.683  0.00  0.00    +0.112 C 
BRANCH  22  23
ATOM     23  C   UNL     1      35.382 -21.889 -18.788  0.00  0.00    +0.002 C 
ATOM     24  C   UNL     1      35.823 -22.428 -17.580  0.00  0.00    -0.003 C 
ATOM     25  C   UNL     1      34.048 -22.033 -19.171  0.00  0.00    +0.001 C 
ATOM     26  C   UNL     1      34.929 -23.112 -16.755  0.00  0.00    +0.014 C 
ATOM     27  C   UNL     1      33.155 -22.717 -18.347  0.00  0.00    +0.036 C 
ATOM     28  C   UNL     1      33.597 -23.257 -17.139  0.00  0.00    +0.130 C 
BRANCH  28  29
ATOM     29  O   UNL     1      32.711 -23.922 -16.344  0.00  0.00    -0.506 OA
ATOM     30  H   UNL     1      33.004 -24.320 -15.548  0.00  0.00    +0.292 HD
ENDBRANCH  28  29
BRANCH  26  31
ATOM     31  C   UNL     1      35.418 -23.684 -15.465  0.00  0.00    +0.061 C 
BRANCH  31  32
ATOM     32  C   UNL     1      36.939 -23.857 -15.428  0.00  0.00    +0.142 C 
BRANCH  32  33
ATOM     33  O   UNL     1      37.262 -25.240 -15.495  0.00  0.00    -0.382 OA
ATOM     34  H   UNL     1      37.672 -25.436 -16.353  0.00  0.00    +0.210 HD
ENDBRANCH  32  33
ENDBRANCH  31  32
ENDBRANCH  26  31
ENDBRANCH  22  23
BRANCH  22  35
ATOM     35  O   UNL     1      37.177 -22.107 -20.339  0.00  0.00    -0.382 OA
ATOM     36  H   UNL     1      36.680 -22.521 -21.062  0.00  0.00    +0.211 HD
ENDBRANCH  22  35
ENDBRANCH  21  22
ENDBRANCH   1  21
TORSDOF 12
ENDMDL
