MODEL 1
REMARK VINA RESULT:     -11.6      0.000      0.000
REMARK  Name = 24995524
REMARK  4 active torsions:
REMARK  status: ('A' for Active; 'I' for Inactive)
REMARK    1  A    between atoms: N_5  and  C_13
REMARK    2  A    between atoms: C_6  and  C_19
REMARK    3  A    between atoms: C_19  and  C_20
REMARK    4  A    between atoms: C_20  and  N_22
REMARK                            x       y       z     vdW  Elec       q    Type
REMARK                         _______ _______ _______ _____ _____    ______ ____
ROOT
ATOM      1  S   UNL     1      36.583 -20.665 -19.993  0.00  0.00    -0.056 S 
ATOM      2  O   UNL     1      35.420 -23.476 -16.451  0.00  0.00    -0.252 OA
ATOM      3  N   UNL     1      34.627 -21.974 -18.925  0.00  0.00    -0.223 NA
ATOM      4  N   UNL     1      36.765 -22.128 -17.826  0.00  0.00    -0.248 N 
ATOM      5  N   UNL     1      37.685 -23.174 -15.951  0.00  0.00    -0.268 N 
ATOM      6  C   UNL     1      35.048 -20.575 -20.752  0.00  0.00    +0.031 C 
ATOM      7  C   UNL     1      34.137 -21.331 -20.045  0.00  0.00    +0.103 C 
ATOM      8  C   UNL     1      35.906 -21.696 -18.800  0.00  0.00    +0.166 C 
ATOM      9  C   UNL     1      36.514 -22.984 -16.705  0.00  0.00    +0.310 C 
ATOM     10  H   UNL     1      37.692 -21.805 -17.909  0.00  0.00    +0.158 HD
ATOM     11  H   UNL     1      38.489 -22.712 -16.281  0.00  0.00    +0.156 HD
ENDROOT
BRANCH   5  13
ATOM     12 CL   UNL     1      36.575 -23.868 -10.986  0.00  0.00    -0.082 Cl
ATOM     13  C   UNL     1      37.848 -23.946 -14.778  0.00  0.00    +0.052 C 
ATOM     14  C   UNL     1      37.205 -23.570 -13.599  0.00  0.00    +0.026 C 
ATOM     15  C   UNL     1      38.654 -25.086 -14.800  0.00  0.00    +0.015 C 
ATOM     16  C   UNL     1      37.368 -24.333 -12.442  0.00  0.00    +0.059 C 
ATOM     17  C   UNL     1      38.817 -25.847 -13.644  0.00  0.00    +0.002 C 
ATOM     18  C   UNL     1      38.174 -25.471 -12.465  0.00  0.00    +0.011 C 
ENDBRANCH   5  13
BRANCH   6  19
ATOM     19  C   UNL     1      34.857 -19.753 -22.004  0.00  0.00    +0.056 C 
BRANCH  19  20
ATOM     20  C   UNL     1      35.975 -18.737 -22.229  0.00  0.00    +0.093 C 
BRANCH  20  22
ATOM     21  S   UNL     1      34.313 -14.470 -22.982  0.00  0.00    -0.101 S 
ATOM     22  N   UNL     1      35.439 -17.442 -22.523  0.00  0.00    -0.320 N 
ATOM     23  N   UNL     1      34.613 -18.107 -24.652  0.00  0.00    -0.233 NA
ATOM     24  N   UNL     1      33.440 -16.583 -26.122  0.00  0.00    -0.247 NA
ATOM     25  C   UNL     1      34.768 -17.143 -23.723  0.00  0.00    +0.118 C 
ATOM     26  C   UNL     1      34.262 -15.873 -23.969  0.00  0.00    +0.145 C 
ATOM     27  C   UNL     1      33.605 -15.622 -25.174  0.00  0.00    +0.073 C 
ATOM     28  C   UNL     1      33.151 -14.272 -25.263  0.00  0.00    +0.022 C 
ATOM     29  C   UNL     1      33.470 -13.540 -24.141  0.00  0.00    +0.033 C 
ATOM     30  C   UNL     1      33.966 -17.772 -25.784  0.00  0.00    +0.251 C 
ATOM     31  H   UNL     1      35.545 -16.727 -21.854  0.00  0.00    +0.148 HD
ENDBRANCH  20  22
ENDBRANCH  19  20
ENDBRANCH   6  19
TORSDOF 4
ENDMDL
MODEL 2
REMARK VINA RESULT:     -11.3      4.710     11.669
REMARK  Name = 24995524
REMARK  4 active torsions:
REMARK  status: ('A' for Active; 'I' for Inactive)
REMARK    1  A    between atoms: N_5  and  C_13
REMARK    2  A    between atoms: C_6  and  C_19
REMARK    3  A    between atoms: C_19  and  C_20
REMARK    4  A    between atoms: C_20  and  N_22
REMARK                            x       y       z     vdW  Elec       q    Type
REMARK                         _______ _______ _______ _____ _____    ______ ____
ROOT
ATOM      1  S   UNL     1      33.811 -23.511 -16.881  0.00  0.00    -0.056 S 
ATOM      2  O   UNL     1      32.472 -20.554 -20.237  0.00  0.00    -0.252 OA
ATOM      3  N   UNL     1      31.756 -22.382 -17.968  0.00  0.00    -0.223 NA
ATOM      4  N   UNL     1      33.912 -21.834 -18.892  0.00  0.00    -0.248 N 
ATOM      5  N   UNL     1      34.783 -20.496 -20.597  0.00  0.00    -0.268 N 
ATOM      6  C   UNL     1      32.262 -23.882 -16.245  0.00  0.00    +0.031 C 
ATOM      7  C   UNL     1      31.297 -23.191 -16.947  0.00  0.00    +0.103 C 
ATOM      8  C   UNL     1      33.066 -22.472 -18.025  0.00  0.00    +0.166 C 
ATOM      9  C   UNL     1      33.609 -20.915 -19.949  0.00  0.00    +0.310 C 
ATOM     10  H   UNL     1      34.868 -22.035 -18.771  0.00  0.00    +0.158 HD
ATOM     11  H   UNL     1      35.624 -20.874 -20.252  0.00  0.00    +0.156 HD
ENDROOT
BRANCH   5  13
ATOM     12 CL   UNL     1      33.967 -19.519 -25.572  0.00  0.00    -0.082 Cl
ATOM     13  C   UNL     1      34.904 -19.599 -21.683  0.00  0.00    +0.052 C 
ATOM     14  C   UNL     1      34.430 -19.960 -22.944  0.00  0.00    +0.026 C 
ATOM     15  C   UNL     1      35.499 -18.351 -21.493  0.00  0.00    +0.015 C 
ATOM     16  C   UNL     1      34.552 -19.073 -24.015  0.00  0.00    +0.059 C 
ATOM     17  C   UNL     1      35.620 -17.465 -22.563  0.00  0.00    +0.002 C 
ATOM     18  C   UNL     1      35.146 -17.827 -23.824  0.00  0.00    +0.011 C 
ENDBRANCH   5  13
BRANCH   6  19
ATOM     19  C   UNL     1      32.116 -24.840 -15.088  0.00  0.00    +0.056 C 
BRANCH  19  20
ATOM     20  C   UNL     1      33.002 -24.479 -13.896  0.00  0.00    +0.093 C 
BRANCH  20  22
ATOM     21  S   UNL     1      37.304 -25.979 -14.777  0.00  0.00    -0.101 S 
ATOM     22  N   UNL     1      34.347 -24.924 -14.104  0.00  0.00    -0.320 N 
ATOM     23  N   UNL     1      35.040 -24.317 -11.910  0.00  0.00    -0.233 NA
ATOM     24  N   UNL     1      37.305 -24.653 -11.126  0.00  0.00    -0.247 NA
ATOM     25  C   UNL     1      35.345 -24.838 -13.114  0.00  0.00    +0.118 C 
ATOM     26  C   UNL     1      36.639 -25.282 -13.357  0.00  0.00    +0.145 C 
ATOM     27  C   UNL     1      37.596 -25.176 -12.347  0.00  0.00    +0.073 C 
ATOM     28  C   UNL     1      38.866 -25.675 -12.762  0.00  0.00    +0.022 C 
ATOM     29  C   UNL     1      38.846 -26.141 -14.058  0.00  0.00    +0.033 C 
ATOM     30  C   UNL     1      36.028 -24.257 -10.998  0.00  0.00    +0.251 C 
ATOM     31  H   UNL     1      34.585 -25.306 -14.979  0.00  0.00    +0.148 HD
ENDBRANCH  20  22
ENDBRANCH  19  20
ENDBRANCH   6  19
TORSDOF 4
ENDMDL
MODEL 3
REMARK VINA RESULT:     -10.8      6.199     12.916
REMARK  Name = 24995524
REMARK  4 active torsions:
REMARK  status: ('A' for Active; 'I' for Inactive)
REMARK    1  A    between atoms: N_5  and  C_13
REMARK    2  A    between atoms: C_6  and  C_19
REMARK    3  A    between atoms: C_19  and  C_20
REMARK    4  A    between atoms: C_20  and  N_22
REMARK                            x       y       z     vdW  Elec       q    Type
REMARK                         _______ _______ _______ _____ _____    ______ ____
ROOT
ATOM      1  S   UNL     1      34.527 -15.082 -23.255  0.00  0.00    -0.056 S 
ATOM      2  O   UNL     1      33.083 -11.113 -25.245  0.00  0.00    -0.252 OA
ATOM      3  N   UNL     1      33.421 -14.092 -25.371  0.00  0.00    -0.223 NA
ATOM      4  N   UNL     1      34.017 -12.538 -23.628  0.00  0.00    -0.248 N 
ATOM      5  N   UNL     1      33.895 -10.240 -23.233  0.00  0.00    -0.268 N 
ATOM      6  C   UNL     1      34.091 -16.163 -24.513  0.00  0.00    +0.031 C 
ATOM      7  C   UNL     1      33.519 -15.458 -25.551  0.00  0.00    +0.103 C 
ATOM      8  C   UNL     1      33.920 -13.781 -24.195  0.00  0.00    +0.166 C 
ATOM      9  C   UNL     1      33.609 -11.267 -24.148  0.00  0.00    +0.310 C 
ATOM     10  H   UNL     1      34.425 -12.515 -22.733  0.00  0.00    +0.158 HD
ATOM     11  H   UNL     1      34.320 -10.520 -22.390  0.00  0.00    +0.156 HD
ENDROOT
BRANCH   5  13
ATOM     12 CL   UNL     1      30.649  -6.302 -22.663  0.00  0.00    -0.082 Cl
ATOM     13  C   UNL     1      33.647  -8.855 -23.374  0.00  0.00    +0.052 C 
ATOM     14  C   UNL     1      32.414  -8.324 -22.992  0.00  0.00    +0.026 C 
ATOM     15  C   UNL     1      34.635  -8.019 -23.895  0.00  0.00    +0.015 C 
ATOM     16  C   UNL     1      32.171  -6.957 -23.133  0.00  0.00    +0.059 C 
ATOM     17  C   UNL     1      34.391  -6.653 -24.035  0.00  0.00    +0.002 C 
ATOM     18  C   UNL     1      33.159  -6.123 -23.654  0.00  0.00    +0.011 C 
ENDBRANCH   5  13
BRANCH   6  19
ATOM     19  C   UNL     1      34.351 -17.643 -24.378  0.00  0.00    +0.056 C 
BRANCH  19  20
ATOM     20  C   UNL     1      35.250 -17.988 -23.191  0.00  0.00    +0.093 C 
BRANCH  20  22
ATOM     21  S   UNL     1      32.972 -20.961 -20.450  0.00  0.00    -0.101 S 
ATOM     22  N   UNL     1      34.607 -18.921 -22.316  0.00  0.00    -0.320 N 
ATOM     23  N   UNL     1      36.641 -19.541 -21.249  0.00  0.00    -0.233 NA
ATOM     24  N   UNL     1      36.726 -21.183 -19.472  0.00  0.00    -0.247 NA
ATOM     25  C   UNL     1      35.306 -19.683 -21.360  0.00  0.00    +0.118 C 
ATOM     26  C   UNL     1      34.644 -20.579 -20.529  0.00  0.00    +0.145 C 
ATOM     27  C   UNL     1      35.377 -21.313 -19.598  0.00  0.00    +0.073 C 
ATOM     28  C   UNL     1      34.545 -22.182 -18.830  0.00  0.00    +0.022 C 
ATOM     29  C   UNL     1      33.220 -22.088 -19.191  0.00  0.00    +0.033 C 
ATOM     30  C   UNL     1      37.263 -20.292 -20.321  0.00  0.00    +0.251 C 
ATOM     31  H   UNL     1      33.632 -19.036 -22.386  0.00  0.00    +0.148 HD
ENDBRANCH  20  22
ENDBRANCH  19  20
ENDBRANCH   6  19
TORSDOF 4
ENDMDL
MODEL 4
REMARK VINA RESULT:     -10.7      3.572      4.110
REMARK  Name = 24995524
REMARK  4 active torsions:
REMARK  status: ('A' for Active; 'I' for Inactive)
REMARK    1  A    between atoms: N_5  and  C_13
REMARK    2  A    between atoms: C_6  and  C_19
REMARK    3  A    between atoms: C_19  and  C_20
REMARK    4  A    between atoms: C_20  and  N_22
REMARK                            x       y       z     vdW  Elec       q    Type
REMARK                         _______ _______ _______ _____ _____    ______ ____
ROOT
ATOM      1  S   UNL     1      33.015 -20.479 -21.062  0.00  0.00    -0.056 S 
ATOM      2  O   UNL     1      34.068 -23.009 -17.282  0.00  0.00    -0.252 OA
ATOM      3  N   UNL     1      34.972 -21.458 -19.686  0.00  0.00    -0.223 NA
ATOM      4  N   UNL     1      32.746 -21.906 -18.880  0.00  0.00    -0.248 N 
ATOM      5  N   UNL     1      31.736 -23.039 -17.105  0.00  0.00    -0.268 N 
ATOM      6  C   UNL     1      34.611 -20.177 -21.611  0.00  0.00    +0.031 C 
ATOM      7  C   UNL     1      35.515 -20.774 -20.757  0.00  0.00    +0.103 C 
ATOM      8  C   UNL     1      33.661 -21.369 -19.745  0.00  0.00    +0.166 C 
ATOM      9  C   UNL     1      32.960 -22.691 -17.700  0.00  0.00    +0.310 C 
ATOM     10  H   UNL     1      31.804 -21.725 -19.099  0.00  0.00    +0.158 HD
ATOM     11  H   UNL     1      30.927 -22.709 -17.559  0.00  0.00    +0.156 HD
ENDROOT
BRANCH   5  13
ATOM     12 CL   UNL     1      28.666 -26.154 -14.416  0.00  0.00    -0.082 Cl
ATOM     13  C   UNL     1      31.524 -23.803 -15.934  0.00  0.00    +0.052 C 
ATOM     14  C   UNL     1      30.338 -24.518 -15.772  0.00  0.00    +0.026 C 
ATOM     15  C   UNL     1      32.503 -23.841 -14.940  0.00  0.00    +0.015 C 
ATOM     16  C   UNL     1      30.131 -25.271 -14.616  0.00  0.00    +0.059 C 
ATOM     17  C   UNL     1      32.295 -24.593 -13.784  0.00  0.00    +0.002 C 
ATOM     18  C   UNL     1      31.109 -25.308 -13.623  0.00  0.00    +0.011 C 
ENDBRANCH   5  13
BRANCH   6  19
ATOM     19  C   UNL     1      34.853 -19.365 -22.860  0.00  0.00    +0.056 C 
BRANCH  19  20
ATOM     20  C   UNL     1      35.975 -18.340 -22.700  0.00  0.00    +0.093 C 
BRANCH  20  22
ATOM     21  S   UNL     1      34.361 -14.001 -22.371  0.00  0.00    -0.101 S 
ATOM     22  N   UNL     1      35.450 -17.008 -22.662  0.00  0.00    -0.320 N 
ATOM     23  N   UNL     1      34.505 -17.163 -24.840  0.00  0.00    -0.233 NA
ATOM     24  N   UNL     1      33.290 -15.335 -25.859  0.00  0.00    -0.247 NA
ATOM     25  C   UNL     1      34.726 -16.439 -23.725  0.00  0.00    +0.118 C 
ATOM     26  C   UNL     1      34.233 -15.141 -23.648  0.00  0.00    +0.145 C 
ATOM     27  C   UNL     1      33.522 -14.617 -24.727  0.00  0.00    +0.073 C 
ATOM     28  C   UNL     1      33.091 -13.279 -24.482  0.00  0.00    +0.022 C 
ATOM     29  C   UNL     1      33.480 -12.825 -23.241  0.00  0.00    +0.033 C 
ATOM     30  C   UNL     1      33.808 -16.574 -25.828  0.00  0.00    +0.251 C 
ATOM     31  H   UNL     1      35.605 -16.466 -21.854  0.00  0.00    +0.148 HD
ENDBRANCH  20  22
ENDBRANCH  19  20
ENDBRANCH   6  19
TORSDOF 4
ENDMDL
MODEL 5
REMARK VINA RESULT:     -10.4      1.625      2.240
REMARK  Name = 24995524
REMARK  4 active torsions:
REMARK  status: ('A' for Active; 'I' for Inactive)
REMARK    1  A    between atoms: N_5  and  C_13
REMARK    2  A    between atoms: C_6  and  C_19
REMARK    3  A    between atoms: C_19  and  C_20
REMARK    4  A    between atoms: C_20  and  N_22
REMARK                            x       y       z     vdW  Elec       q    Type
REMARK                         _______ _______ _______ _____ _____    ______ ____
ROOT
ATOM      1  S   UNL     1      36.421 -20.605 -20.503  0.00  0.00    -0.056 S 
ATOM      2  O   UNL     1      35.347 -23.086 -16.697  0.00  0.00    -0.252 OA
ATOM      3  N   UNL     1      34.472 -21.714 -19.218  0.00  0.00    -0.223 NA
ATOM      4  N   UNL     1      36.669 -21.922 -18.251  0.00  0.00    -0.248 N 
ATOM      5  N   UNL     1      37.654 -22.890 -16.368  0.00  0.00    -0.268 N 
ATOM      6  C   UNL     1      34.845 -20.474 -21.167  0.00  0.00    +0.031 C 
ATOM      7  C   UNL     1      33.943 -21.121 -20.348  0.00  0.00    +0.103 C 
ATOM      8  C   UNL     1      35.770 -21.506 -19.196  0.00  0.00    +0.166 C 
ATOM      9  C   UNL     1      36.447 -22.681 -17.056  0.00  0.00    +0.310 C 
ATOM     10  H   UNL     1      37.604 -21.663 -18.418  0.00  0.00    +0.158 HD
ATOM     11  H   UNL     1      38.459 -22.502 -16.782  0.00  0.00    +0.156 HD
ENDROOT
BRANCH   5  13
ATOM     12 CL   UNL     1      40.228 -26.497 -13.774  0.00  0.00    -0.082 Cl
ATOM     13  C   UNL     1      37.854 -23.588 -15.154  0.00  0.00    +0.052 C 
ATOM     14  C   UNL     1      38.830 -24.581 -15.073  0.00  0.00    +0.026 C 
ATOM     15  C   UNL     1      37.075 -23.282 -14.038  0.00  0.00    +0.015 C 
ATOM     16  C   UNL     1      39.025 -25.269 -13.875  0.00  0.00    +0.059 C 
ATOM     17  C   UNL     1      37.270 -23.970 -12.841  0.00  0.00    +0.002 C 
ATOM     18  C   UNL     1      38.246 -24.963 -12.760  0.00  0.00    +0.011 C 
ENDBRANCH   5  13
BRANCH   6  19
ATOM     19  C   UNL     1      34.616 -19.730 -22.460  0.00  0.00    +0.056 C 
BRANCH  19  20
ATOM     20  C   UNL     1      35.499 -18.492 -22.604  0.00  0.00    +0.093 C 
BRANCH  20  22
ATOM     21  S   UNL     1      33.669 -15.655 -25.789  0.00  0.00    -0.101 S 
ATOM     22  N   UNL     1      34.935 -17.566 -23.540  0.00  0.00    -0.320 N 
ATOM     23  N   UNL     1      34.914 -15.774 -21.975  0.00  0.00    -0.233 NA
ATOM     24  N   UNL     1      34.096 -13.567 -22.541  0.00  0.00    -0.247 NA
ATOM     25  C   UNL     1      34.651 -16.226 -23.217  0.00  0.00    +0.118 C 
ATOM     26  C   UNL     1      34.103 -15.359 -24.155  0.00  0.00    +0.145 C 
ATOM     27  C   UNL     1      33.837 -14.040 -23.790  0.00  0.00    +0.073 C 
ATOM     28  C   UNL     1      33.278 -13.291 -24.868  0.00  0.00    +0.022 C 
ATOM     29  C   UNL     1      33.135 -14.047 -26.009  0.00  0.00    +0.033 C 
ATOM     30  C   UNL     1      34.624 -14.486 -21.715  0.00  0.00    +0.251 C 
ATOM     31  H   UNL     1      34.736 -17.882 -24.451  0.00  0.00    +0.148 HD
ENDBRANCH  20  22
ENDBRANCH  19  20
ENDBRANCH   6  19
TORSDOF 4
ENDMDL
MODEL 6
REMARK VINA RESULT:     -10.0      4.602      7.897
REMARK  Name = 24995524
REMARK  4 active torsions:
REMARK  status: ('A' for Active; 'I' for Inactive)
REMARK    1  A    between atoms: N_5  and  C_13
REMARK    2  A    between atoms: C_6  and  C_19
REMARK    3  A    between atoms: C_19  and  C_20
REMARK    4  A    between atoms: C_20  and  N_22
REMARK                            x       y       z     vdW  Elec       q    Type
REMARK                         _______ _______ _______ _____ _____    ______ ____
ROOT
ATOM      1  S   UNL     1      33.935 -15.512 -24.939  0.00  0.00    -0.056 S 
ATOM      2  O   UNL     1      35.236 -17.155 -20.767  0.00  0.00    -0.252 OA
ATOM      3  N   UNL     1      34.570 -14.821 -22.531  0.00  0.00    -0.223 NA
ATOM      4  N   UNL     1      34.595 -17.178 -23.027  0.00  0.00    -0.248 N 
ATOM      5  N   UNL     1      35.053 -19.182 -21.919  0.00  0.00    -0.268 N 
ATOM      6  C   UNL     1      33.926 -13.841 -24.556  0.00  0.00    +0.031 C 
ATOM      7  C   UNL     1      34.289 -13.666 -23.236  0.00  0.00    +0.103 C 
ATOM      8  C   UNL     1      34.416 -15.855 -23.328  0.00  0.00    +0.166 C 
ATOM      9  C   UNL     1      34.990 -17.785 -21.790  0.00  0.00    +0.310 C 
ATOM     10  H   UNL     1      34.428 -17.804 -23.768  0.00  0.00    +0.158 HD
ATOM     11  H   UNL     1      34.826 -19.544 -22.806  0.00  0.00    +0.156 HD
ENDROOT
BRANCH   5  13
ATOM     12 CL   UNL     1      33.531 -22.789 -18.596  0.00  0.00    -0.082 Cl
ATOM     13  C   UNL     1      35.401 -20.132 -20.930  0.00  0.00    +0.052 C 
ATOM     14  C   UNL     1      34.410 -20.903 -20.323  0.00  0.00    +0.026 C 
ATOM     15  C   UNL     1      36.737 -20.298 -20.563  0.00  0.00    +0.015 C 
ATOM     16  C   UNL     1      34.755 -21.839 -19.347  0.00  0.00    +0.059 C 
ATOM     17  C   UNL     1      37.081 -21.234 -19.588  0.00  0.00    +0.002 C 
ATOM     18  C   UNL     1      36.090 -22.004 -18.981  0.00  0.00    +0.011 C 
ENDBRANCH   5  13
BRANCH   6  19
ATOM     19  C   UNL     1      33.559 -12.815 -25.600  0.00  0.00    +0.056 C 
BRANCH  19  20
ATOM     20  C   UNL     1      33.996 -11.399 -25.229  0.00  0.00    +0.093 C 
BRANCH  20  22
ATOM     21  S   UNL     1      31.796 -10.177 -21.329  0.00  0.00    -0.101 S 
ATOM     22  N   UNL     1      33.349 -10.961 -24.028  0.00  0.00    -0.320 N 
ATOM     23  N   UNL     1      34.424  -8.838 -24.052  0.00  0.00    -0.233 NA
ATOM     24  N   UNL     1      34.030  -7.166 -22.346  0.00  0.00    -0.247 NA
ATOM     25  C   UNL     1      33.569  -9.694 -23.457  0.00  0.00    +0.118 C 
ATOM     26  C   UNL     1      32.921  -9.307 -22.290  0.00  0.00    +0.145 C 
ATOM     27  C   UNL     1      33.170  -8.042 -21.759  0.00  0.00    +0.073 C 
ATOM     28  C   UNL     1      32.426  -7.809 -20.564  0.00  0.00    +0.022 C 
ATOM     29  C   UNL     1      31.641  -8.887 -20.221  0.00  0.00    +0.033 C 
ATOM     30  C   UNL     1      34.601  -7.639 -23.466  0.00  0.00    +0.251 C 
ATOM     31  H   UNL     1      32.722 -11.575 -23.582  0.00  0.00    +0.148 HD
ENDBRANCH  20  22
ENDBRANCH  19  20
ENDBRANCH   6  19
TORSDOF 4
ENDMDL
MODEL 7
REMARK VINA RESULT:      -9.9      4.787     11.803
REMARK  Name = 24995524
REMARK  4 active torsions:
REMARK  status: ('A' for Active; 'I' for Inactive)
REMARK    1  A    between atoms: N_5  and  C_13
REMARK    2  A    between atoms: C_6  and  C_19
REMARK    3  A    between atoms: C_19  and  C_20
REMARK    4  A    between atoms: C_20  and  N_22
REMARK                            x       y       z     vdW  Elec       q    Type
REMARK                         _______ _______ _______ _____ _____    ______ ____
ROOT
ATOM      1  S   UNL     1      34.523 -19.913 -21.259  0.00  0.00    -0.056 S 
ATOM      2  O   UNL     1      35.977 -15.952 -23.257  0.00  0.00    -0.252 OA
ATOM      3  N   UNL     1      36.593 -18.419 -21.664  0.00  0.00    -0.223 NA
ATOM      4  N   UNL     1      34.504 -17.657 -22.592  0.00  0.00    -0.248 N 
ATOM      5  N   UNL     1      33.714 -15.847 -23.838  0.00  0.00    -0.268 N 
ATOM      6  C   UNL     1      36.025 -20.429 -20.610  0.00  0.00    +0.031 C 
ATOM      7  C   UNL     1      37.005 -19.512 -20.925  0.00  0.00    +0.103 C 
ATOM      8  C   UNL     1      35.304 -18.525 -21.898  0.00  0.00    +0.166 C 
ATOM      9  C   UNL     1      34.846 -16.425 -23.239  0.00  0.00    +0.310 C 
ATOM     10  H   UNL     1      33.557 -17.918 -22.657  0.00  0.00    +0.158 HD
ATOM     11  H   UNL     1      32.871 -16.346 -23.738  0.00  0.00    +0.156 HD
ENDROOT
BRANCH   5  13
ATOM     12 CL   UNL     1      34.067 -10.725 -23.854  0.00  0.00    -0.082 Cl
ATOM     13  C   UNL     1      33.638 -14.638 -24.567  0.00  0.00    +0.052 C 
ATOM     14  C   UNL     1      33.865 -13.420 -23.925  0.00  0.00    +0.026 C 
ATOM     15  C   UNL     1      33.335 -14.663 -25.929  0.00  0.00    +0.015 C 
ATOM     16  C   UNL     1      33.788 -12.228 -24.646  0.00  0.00    +0.059 C 
ATOM     17  C   UNL     1      33.258 -13.471 -26.649  0.00  0.00    +0.002 C 
ATOM     18  C   UNL     1      33.485 -12.254 -26.007  0.00  0.00    +0.011 C 
ENDBRANCH   5  13
BRANCH   6  19
ATOM     19  C   UNL     1      36.121 -21.716 -19.828  0.00  0.00    +0.056 C 
BRANCH  19  20
ATOM     20  C   UNL     1      34.761 -22.252 -19.385  0.00  0.00    +0.093 C 
BRANCH  20  22
ATOM     21  S   UNL     1      35.176 -23.888 -15.061  0.00  0.00    -0.101 S 
ATOM     22  N   UNL     1      34.820 -22.757 -18.046  0.00  0.00    -0.320 N 
ATOM     23  N   UNL     1      32.454 -22.795 -17.801  0.00  0.00    -0.233 NA
ATOM     24  N   UNL     1      31.372 -23.534 -15.766  0.00  0.00    -0.247 NA
ATOM     25  C   UNL     1      33.673 -23.021 -17.274  0.00  0.00    +0.118 C 
ATOM     26  C   UNL     1      33.775 -23.512 -15.978  0.00  0.00    +0.145 C 
ATOM     27  C   UNL     1      32.611 -23.758 -15.250  0.00  0.00    +0.073 C 
ATOM     28  C   UNL     1      32.895 -24.255 -13.943  0.00  0.00    +0.022 C 
ATOM     29  C   UNL     1      34.247 -24.374 -13.712  0.00  0.00    +0.033 C 
ATOM     30  C   UNL     1      31.389 -23.062 -17.024  0.00  0.00    +0.251 C 
ATOM     31  H   UNL     1      35.705 -22.927 -17.647  0.00  0.00    +0.148 HD
ENDBRANCH  20  22
ENDBRANCH  19  20
ENDBRANCH   6  19
TORSDOF 4
ENDMDL
MODEL 8
REMARK VINA RESULT:      -9.9      8.713     15.367
REMARK  Name = 24995524
REMARK  4 active torsions:
REMARK  status: ('A' for Active; 'I' for Inactive)
REMARK    1  A    between atoms: N_5  and  C_13
REMARK    2  A    between atoms: C_6  and  C_19
REMARK    3  A    between atoms: C_19  and  C_20
REMARK    4  A    between atoms: C_20  and  N_22
REMARK                            x       y       z     vdW  Elec       q    Type
REMARK                         _______ _______ _______ _____ _____    ______ ____
ROOT
ATOM      1  S   UNL     1      33.344 -10.613 -23.632  0.00  0.00    -0.056 S 
ATOM      2  O   UNL     1      31.063  -6.650 -22.692  0.00  0.00    -0.252 OA
ATOM      3  N   UNL     1      31.473  -9.578 -22.180  0.00  0.00    -0.223 NA
ATOM      4  N   UNL     1      32.608  -8.099 -23.707  0.00  0.00    -0.248 N 
ATOM      5  N   UNL     1      32.531  -5.849 -24.326  0.00  0.00    -0.268 N 
ATOM      6  C   UNL     1      32.518 -11.641 -22.536  0.00  0.00    +0.031 C 
ATOM      7  C   UNL     1      31.562 -10.918 -21.854  0.00  0.00    +0.103 C 
ATOM      8  C   UNL     1      32.365  -9.306 -23.107  0.00  0.00    +0.166 C 
ATOM      9  C   UNL     1      31.972  -6.833 -23.494  0.00  0.00    +0.310 C 
ATOM     10  H   UNL     1      33.324  -8.102 -24.382  0.00  0.00    +0.158 HD
ATOM     11  H   UNL     1      33.257  -6.148 -24.921  0.00  0.00    +0.156 HD
ENDROOT
BRANCH   5  13
ATOM     12 CL   UNL     1      30.096  -1.821 -22.274  0.00  0.00    -0.082 Cl
ATOM     13  C   UNL     1      32.180  -4.482 -24.415  0.00  0.00    +0.052 C 
ATOM     14  C   UNL     1      31.403  -3.895 -23.416  0.00  0.00    +0.026 C 
ATOM     15  C   UNL     1      32.612  -3.720 -25.501  0.00  0.00    +0.015 C 
ATOM     16  C   UNL     1      31.057  -2.546 -23.505  0.00  0.00    +0.059 C 
ATOM     17  C   UNL     1      32.265  -2.372 -25.590  0.00  0.00    +0.002 C 
ATOM     18  C   UNL     1      31.488  -1.786 -24.591  0.00  0.00    +0.011 C 
ENDBRANCH   5  13
BRANCH   6  19
ATOM     19  C   UNL     1      32.880 -13.103 -22.432  0.00  0.00    +0.056 C 
BRANCH  19  20
ATOM     20  C   UNL     1      34.150 -13.462 -23.201  0.00  0.00    +0.093 C 
BRANCH  20  22
ATOM     21  S   UNL     1      35.542 -17.750 -22.102  0.00  0.00    -0.101 S 
ATOM     22  N   UNL     1      34.555 -14.807 -22.923  0.00  0.00    -0.320 N 
ATOM     23  N   UNL     1      33.730 -15.638 -24.994  0.00  0.00    -0.233 NA
ATOM     24  N   UNL     1      33.901 -17.971 -25.616  0.00  0.00    -0.247 NA
ATOM     25  C   UNL     1      34.342 -15.873 -23.817  0.00  0.00    +0.118 C 
ATOM     26  C   UNL     1      34.751 -17.165 -23.508  0.00  0.00    +0.145 C 
ATOM     27  C   UNL     1      34.517 -18.190 -24.423  0.00  0.00    +0.073 C 
ATOM     28  C   UNL     1      34.998 -19.448 -23.949  0.00  0.00    +0.022 C 
ATOM     29  C   UNL     1      35.576 -19.349 -22.704  0.00  0.00    +0.033 C 
ATOM     30  C   UNL     1      33.548 -16.690 -25.813  0.00  0.00    +0.251 C 
ATOM     31  H   UNL     1      35.003 -14.994 -22.066  0.00  0.00    +0.148 HD
ENDBRANCH  20  22
ENDBRANCH  19  20
ENDBRANCH   6  19
TORSDOF 4
ENDMDL
MODEL 9
REMARK VINA RESULT:      -9.8      9.262     15.082
REMARK  Name = 24995524
REMARK  4 active torsions:
REMARK  status: ('A' for Active; 'I' for Inactive)
REMARK    1  A    between atoms: N_5  and  C_13
REMARK    2  A    between atoms: C_6  and  C_19
REMARK    3  A    between atoms: C_19  and  C_20
REMARK    4  A    between atoms: C_20  and  N_22
REMARK                            x       y       z     vdW  Elec       q    Type
REMARK                         _______ _______ _______ _____ _____    ______ ____
ROOT
ATOM      1  S   UNL     1      33.469 -11.224 -23.390  0.00  0.00    -0.056 S 
ATOM      2  O   UNL     1      31.212  -7.215 -22.594  0.00  0.00    -0.252 OA
ATOM      3  N   UNL     1      31.600 -10.127 -21.982  0.00  0.00    -0.223 NA
ATOM      4  N   UNL     1      32.751  -8.709 -23.553  0.00  0.00    -0.248 N 
ATOM      5  N   UNL     1      32.692  -6.481 -24.249  0.00  0.00    -0.268 N 
ATOM      6  C   UNL     1      32.631 -12.208 -22.262  0.00  0.00    +0.031 C 
ATOM      7  C   UNL     1      31.678 -11.455 -21.610  0.00  0.00    +0.103 C 
ATOM      8  C   UNL     1      32.497  -9.892 -22.913  0.00  0.00    +0.166 C 
ATOM      9  C   UNL     1      32.123  -7.432 -23.386  0.00  0.00    +0.310 C 
ATOM     10  H   UNL     1      33.469  -8.740 -24.225  0.00  0.00    +0.158 HD
ATOM     11  H   UNL     1      33.418  -6.805 -24.830  0.00  0.00    +0.156 HD
ENDROOT
BRANCH   5  13
ATOM     12 CL   UNL     1      32.626  -2.264 -27.179  0.00  0.00    -0.082 Cl
ATOM     13  C   UNL     1      32.351  -5.115 -24.385  0.00  0.00    +0.052 C 
ATOM     14  C   UNL     1      32.624  -4.443 -25.577  0.00  0.00    +0.026 C 
ATOM     15  C   UNL     1      31.740  -4.440 -23.327  0.00  0.00    +0.015 C 
ATOM     16  C   UNL     1      32.288  -3.095 -25.709  0.00  0.00    +0.059 C 
ATOM     17  C   UNL     1      31.405  -3.093 -23.460  0.00  0.00    +0.002 C 
ATOM     18  C   UNL     1      31.678  -2.421 -24.651  0.00  0.00    +0.011 C 
ENDBRANCH   5  13
BRANCH   6  19
ATOM     19  C   UNL     1      32.983 -13.668 -22.107  0.00  0.00    +0.056 C 
BRANCH  19  20
ATOM     20  C   UNL     1      34.450 -13.967 -22.412  0.00  0.00    +0.093 C 
BRANCH  20  22
ATOM     21  S   UNL     1      35.169 -18.500 -23.095  0.00  0.00    -0.101 S 
ATOM     22  N   UNL     1      34.643 -15.359 -22.685  0.00  0.00    -0.320 N 
ATOM     23  N   UNL     1      33.655 -15.220 -24.845  0.00  0.00    -0.233 NA
ATOM     24  N   UNL     1      33.443 -17.143 -26.300  0.00  0.00    -0.247 NA
ATOM     25  C   UNL     1      34.246 -15.966 -23.891  0.00  0.00    +0.118 C 
ATOM     26  C   UNL     1      34.452 -17.322 -24.117  0.00  0.00    +0.145 C 
ATOM     27  C   UNL     1      34.041 -17.881 -25.326  0.00  0.00    +0.073 C 
ATOM     28  C   UNL     1      34.327 -19.278 -25.392  0.00  0.00    +0.022 C 
ATOM     29  C   UNL     1      34.938 -19.740 -24.248  0.00  0.00    +0.033 C 
ATOM     30  C   UNL     1      33.293 -15.847 -25.979  0.00  0.00    +0.251 C 
ATOM     31  H   UNL     1      35.073 -15.918 -21.997  0.00  0.00    +0.148 HD
ENDBRANCH  20  22
ENDBRANCH  19  20
ENDBRANCH   6  19
TORSDOF 4
ENDMDL
