MODEL 1
REMARK VINA RESULT:     -11.3      0.000      0.000
REMARK  Name = 444581
REMARK  5 active torsions:
REMARK  status: ('A' for Active; 'I' for Inactive)
REMARK    1  A    between atoms: N_2  and  C_7
REMARK    2  A    between atoms: N_3  and  C_20
REMARK    3  A    between atoms: C_8  and  O_13
REMARK    4  A    between atoms: O_13  and  C_14
REMARK    5  A    between atoms: C_21  and  C_28
REMARK                            x       y       z     vdW  Elec       q    Type
REMARK                         _______ _______ _______ _____ _____    ______ ____
ROOT
ATOM      1  O   UNL     1      33.805 -14.151 -21.473  0.00  0.00    -0.252 OA
ATOM      2  N   UNL     1      34.588 -15.280 -23.366  0.00  0.00    -0.268 N 
ATOM      3  N   UNL     1      33.817 -13.112 -23.572  0.00  0.00    -0.268 N 
ATOM      4  C   UNL     1      34.046 -14.183 -22.675  0.00  0.00    +0.308 C 
ATOM      5  H   UNL     1      34.725 -15.155 -24.333  0.00  0.00    +0.156 HD
ATOM      6  H   UNL     1      34.058 -13.281 -24.511  0.00  0.00    +0.156 HD
ENDROOT
BRANCH   2   7
ATOM      7  C   UNL     1      34.960 -16.540 -22.843  0.00  0.00    +0.052 C 
ATOM      8  C   UNL     1      35.686 -19.009 -21.818  0.00  0.00    +0.145 C 
ATOM      9  C   UNL     1      34.972 -17.644 -23.679  0.00  0.00    +0.018 C 
ATOM     10  C   UNL     1      35.303 -16.645 -21.506  0.00  0.00    +0.018 C 
ATOM     11  C   UNL     1      35.337 -18.888 -23.164  0.00  0.00    +0.039 C 
ATOM     12  C   UNL     1      35.669 -17.888 -20.989  0.00  0.00    +0.039 C 
BRANCH   8  13
ATOM     13  O   UNL     1      36.044 -20.223 -21.316  0.00  0.00    -0.453 OA
BRANCH  13  14
ATOM     14  C   UNL     1      35.134 -20.876 -20.501  0.00  0.00    +0.145 C 
ATOM     15  C   UNL     1      33.784 -20.634 -20.670  0.00  0.00    +0.037 C 
ATOM     16  C   UNL     1      35.602 -21.753 -19.539  0.00  0.00    +0.037 C 
ATOM     17  C   UNL     1      32.868 -21.292 -19.849  0.00  0.00    +0.003 C 
ATOM     18  C   UNL     1      34.686 -22.411 -18.718  0.00  0.00    +0.003 C 
ATOM     19  C   UNL     1      33.318 -22.180 -18.873  0.00  0.00    +0.000 C 
ENDBRANCH  13  14
ENDBRANCH   8  13
ENDBRANCH   2   7
BRANCH   3  20
ATOM     20  C   UNL     1      33.292 -11.847 -23.302  0.00  0.00    +0.052 C 
ATOM     21  C   UNL     1      32.243  -9.319 -22.766  0.00  0.00    +0.031 C 
ATOM     22  C   UNL     1      33.831 -10.722 -23.925  0.00  0.00    +0.015 C 
ATOM     23  C   UNL     1      32.228 -11.709 -22.412  0.00  0.00    +0.015 C 
ATOM     24  C   UNL     1      33.308  -9.457 -23.656  0.00  0.00    +0.004 C 
ATOM     25  C   UNL     1      31.703 -10.445 -22.143  0.00  0.00    +0.004 C 
BRANCH  21  28
ATOM     26  N   UNL     1      31.963  -7.345 -21.285  0.00  0.00    -0.343 N 
ATOM     27  N   UNL     1      30.924  -7.405 -23.377  0.00  0.00    -0.285 NA
ATOM     28  C   UNL     1      31.695  -8.001 -22.485  0.00  0.00    +0.117 C 
ATOM     29  H   UNL     1      31.583  -6.453 -21.116  0.00  0.00    +0.144 HD
ATOM     30  H   UNL     1      32.533  -7.774 -20.607  0.00  0.00    +0.144 HD
ATOM     31  H   UNL     1      30.552  -6.514 -23.190  0.00  0.00    +0.188 HD
ENDBRANCH  21  28
ENDBRANCH   3  20
TORSDOF 5
ENDMDL
MODEL 2
REMARK VINA RESULT:     -11.2      2.257      3.764
REMARK  Name = 444581
REMARK  5 active torsions:
REMARK  status: ('A' for Active; 'I' for Inactive)
REMARK    1  A    between atoms: N_2  and  C_7
REMARK    2  A    between atoms: N_3  and  C_20
REMARK    3  A    between atoms: C_8  and  O_13
REMARK    4  A    between atoms: O_13  and  C_14
REMARK    5  A    between atoms: C_21  and  C_28
REMARK                            x       y       z     vdW  Elec       q    Type
REMARK                         _______ _______ _______ _____ _____    ______ ____
ROOT
ATOM      1  O   UNL     1      33.650 -10.719 -23.641  0.00  0.00    -0.252 OA
ATOM      2  N   UNL     1      32.522 -12.393 -22.460  0.00  0.00    -0.268 N 
ATOM      3  N   UNL     1      31.799 -10.205 -22.301  0.00  0.00    -0.268 N 
ATOM      4  C   UNL     1      32.754 -11.074 -22.881  0.00  0.00    +0.308 C 
ATOM      5  H   UNL     1      31.762 -12.522 -21.848  0.00  0.00    +0.156 HD
ATOM      6  H   UNL     1      31.137 -10.631 -21.710  0.00  0.00    +0.156 HD
ENDROOT
BRANCH   2   7
ATOM      7  C   UNL     1      33.245 -13.558 -22.807  0.00  0.00    +0.052 C 
ATOM      8  C   UNL     1      34.659 -15.841 -23.486  0.00  0.00    +0.145 C 
ATOM      9  C   UNL     1      33.120 -14.078 -24.085  0.00  0.00    +0.018 C 
ATOM     10  C   UNL     1      34.062 -14.155 -21.863  0.00  0.00    +0.018 C 
ATOM     11  C   UNL     1      33.832 -15.228 -24.427  0.00  0.00    +0.039 C 
ATOM     12  C   UNL     1      34.775 -15.305 -22.204  0.00  0.00    +0.039 C 
BRANCH   8  13
ATOM     13  O   UNL     1      35.356 -16.962 -23.821  0.00  0.00    -0.453 OA
BRANCH  13  14
ATOM     14  C   UNL     1      35.409 -17.987 -22.892  0.00  0.00    +0.145 C 
ATOM     15  C   UNL     1      36.505 -18.081 -22.054  0.00  0.00    +0.037 C 
ATOM     16  C   UNL     1      34.364 -18.891 -22.827  0.00  0.00    +0.037 C 
ATOM     17  C   UNL     1      36.559 -19.115 -21.119  0.00  0.00    +0.003 C 
ATOM     18  C   UNL     1      34.419 -19.925 -21.892  0.00  0.00    +0.003 C 
ATOM     19  C   UNL     1      35.516 -20.037 -21.037  0.00  0.00    +0.000 C 
ENDBRANCH  13  14
ENDBRANCH   8  13
ENDBRANCH   2   7
BRANCH   3  20
ATOM     20  C   UNL     1      31.671  -8.824 -22.454  0.00  0.00    +0.052 C 
ATOM     21  C   UNL     1      31.413  -6.063 -22.761  0.00  0.00    +0.031 C 
ATOM     22  C   UNL     1      31.149  -8.299 -23.636  0.00  0.00    +0.015 C 
ATOM     23  C   UNL     1      32.064  -7.968 -21.425  0.00  0.00    +0.015 C 
ATOM     24  C   UNL     1      31.020  -6.919 -23.790  0.00  0.00    +0.004 C 
ATOM     25  C   UNL     1      31.935  -6.588 -21.578  0.00  0.00    +0.004 C 
BRANCH  21  28
ATOM     26  N   UNL     1      30.431  -3.880 -22.100  0.00  0.00    -0.343 N 
ATOM     27  N   UNL     1      31.962  -3.998 -23.860  0.00  0.00    -0.285 NA
ATOM     28  C   UNL     1      31.278  -4.623 -22.920  0.00  0.00    +0.117 C 
ATOM     29  H   UNL     1      30.356  -2.907 -22.224  0.00  0.00    +0.144 HD
ATOM     30  H   UNL     1      29.911  -4.329 -21.395  0.00  0.00    +0.144 HD
ATOM     31  H   UNL     1      31.873  -3.024 -23.970  0.00  0.00    +0.188 HD
ENDBRANCH  21  28
ENDBRANCH   3  20
TORSDOF 5
ENDMDL
MODEL 3
REMARK VINA RESULT:     -10.9      4.510      7.590
REMARK  Name = 444581
REMARK  5 active torsions:
REMARK  status: ('A' for Active; 'I' for Inactive)
REMARK    1  A    between atoms: N_2  and  C_7
REMARK    2  A    between atoms: N_3  and  C_20
REMARK    3  A    between atoms: C_8  and  O_13
REMARK    4  A    between atoms: O_13  and  C_14
REMARK    5  A    between atoms: C_21  and  C_28
REMARK                            x       y       z     vdW  Elec       q    Type
REMARK                         _______ _______ _______ _____ _____    ______ ____
ROOT
ATOM      1  O   UNL     1      33.880 -20.124 -20.253  0.00  0.00    -0.252 OA
ATOM      2  N   UNL     1      35.909 -21.206 -19.824  0.00  0.00    -0.268 N 
ATOM      3  N   UNL     1      35.747 -19.764 -21.621  0.00  0.00    -0.268 N 
ATOM      4  C   UNL     1      35.054 -20.345 -20.532  0.00  0.00    +0.308 C 
ATOM      5  H   UNL     1      36.828 -21.281 -20.170  0.00  0.00    +0.156 HD
ATOM      6  H   UNL     1      36.687 -20.034 -21.723  0.00  0.00    +0.156 HD
ENDROOT
BRANCH   2   7
ATOM      7  C   UNL     1      35.612 -21.978 -18.676  0.00  0.00    +0.052 C 
ATOM      8  C   UNL     1      35.030 -23.488 -16.428  0.00  0.00    +0.145 C 
ATOM      9  C   UNL     1      34.396 -22.636 -18.598  0.00  0.00    +0.018 C 
ATOM     10  C   UNL     1      36.543 -22.059 -17.654  0.00  0.00    +0.018 C 
ATOM     11  C   UNL     1      34.103 -23.397 -17.467  0.00  0.00    +0.039 C 
ATOM     12  C   UNL     1      36.251 -22.819 -16.522  0.00  0.00    +0.039 C 
BRANCH   8  13
ATOM     13  O   UNL     1      34.744 -24.231 -15.324  0.00  0.00    -0.453 OA
BRANCH  13  14
ATOM     14  C   UNL     1      35.766 -24.988 -14.776  0.00  0.00    +0.145 C 
ATOM     15  C   UNL     1      36.170 -26.143 -15.420  0.00  0.00    +0.037 C 
ATOM     16  C   UNL     1      36.355 -24.569 -13.597  0.00  0.00    +0.037 C 
ATOM     17  C   UNL     1      37.199 -26.905 -14.867  0.00  0.00    +0.003 C 
ATOM     18  C   UNL     1      37.384 -25.331 -13.044  0.00  0.00    +0.003 C 
ATOM     19  C   UNL     1      37.806 -26.500 -13.679  0.00  0.00    +0.000 C 
ENDBRANCH  13  14
ENDBRANCH   8  13
ENDBRANCH   2   7
BRANCH   3  20
ATOM     20  C   UNL     1      35.273 -18.858 -22.571  0.00  0.00    +0.052 C 
ATOM     21  C   UNL     1      34.322 -17.049 -24.470  0.00  0.00    +0.031 C 
ATOM     22  C   UNL     1      34.621 -19.323 -23.713  0.00  0.00    +0.015 C 
ATOM     23  C   UNL     1      35.449 -17.488 -22.378  0.00  0.00    +0.015 C 
ATOM     24  C   UNL     1      34.146 -18.418 -24.663  0.00  0.00    +0.004 C 
ATOM     25  C   UNL     1      34.974 -16.583 -23.327  0.00  0.00    +0.004 C 
BRANCH  21  28
ATOM     26  N   UNL     1      33.664 -14.754 -25.153  0.00  0.00    -0.343 N 
ATOM     27  N   UNL     1      33.515 -16.524 -26.672  0.00  0.00    -0.285 NA
ATOM     28  C   UNL     1      33.826 -16.104 -25.459  0.00  0.00    +0.117 C 
ATOM     29  H   UNL     1      33.328 -14.132 -25.838  0.00  0.00    +0.144 HD
ATOM     30  H   UNL     1      33.888 -14.423 -24.254  0.00  0.00    +0.144 HD
ATOM     31  H   UNL     1      33.180 -15.887 -27.343  0.00  0.00    +0.188 HD
ENDBRANCH  21  28
ENDBRANCH   3  20
TORSDOF 5
ENDMDL
MODEL 4
REMARK VINA RESULT:     -10.8      5.450     11.219
REMARK  Name = 444581
REMARK  5 active torsions:
REMARK  status: ('A' for Active; 'I' for Inactive)
REMARK    1  A    between atoms: N_2  and  C_7
REMARK    2  A    between atoms: N_3  and  C_20
REMARK    3  A    between atoms: C_8  and  O_13
REMARK    4  A    between atoms: O_13  and  C_14
REMARK    5  A    between atoms: C_21  and  C_28
REMARK                            x       y       z     vdW  Elec       q    Type
REMARK                         _______ _______ _______ _____ _____    ______ ____
ROOT
ATOM      1  O   UNL     1      32.783 -21.387 -19.153  0.00  0.00    -0.252 OA
ATOM      2  N   UNL     1      35.095 -21.346 -19.502  0.00  0.00    -0.268 N 
ATOM      3  N   UNL     1      34.227 -22.619 -17.781  0.00  0.00    -0.268 N 
ATOM      4  C   UNL     1      33.916 -21.743 -18.848  0.00  0.00    +0.308 C 
ATOM      5  H   UNL     1      35.933 -21.716 -19.140  0.00  0.00    +0.156 HD
ATOM      6  H   UNL     1      35.182 -22.816 -17.653  0.00  0.00    +0.156 HD
ENDROOT
BRANCH   2   7
ATOM      7  C   UNL     1      35.225 -20.480 -20.612  0.00  0.00    +0.052 C 
ATOM      8  C   UNL     1      35.482 -18.787 -22.790  0.00  0.00    +0.145 C 
ATOM      9  C   UNL     1      34.148 -20.304 -21.465  0.00  0.00    +0.018 C 
ATOM     10  C   UNL     1      36.428 -19.828 -20.826  0.00  0.00    +0.018 C 
ATOM     11  C   UNL     1      34.277 -19.451 -22.561  0.00  0.00    +0.039 C 
ATOM     12  C   UNL     1      36.558 -18.975 -21.922  0.00  0.00    +0.039 C 
BRANCH   8  13
ATOM     13  O   UNL     1      35.607 -17.953 -23.859  0.00  0.00    -0.453 OA
BRANCH  13  14
ATOM     14  C   UNL     1      34.935 -16.744 -23.814  0.00  0.00    +0.145 C 
ATOM     15  C   UNL     1      35.078 -15.934 -22.704  0.00  0.00    +0.037 C 
ATOM     16  C   UNL     1      34.136 -16.379 -24.883  0.00  0.00    +0.037 C 
ATOM     17  C   UNL     1      34.400 -14.715 -22.658  0.00  0.00    +0.003 C 
ATOM     18  C   UNL     1      33.457 -15.161 -24.838  0.00  0.00    +0.003 C 
ATOM     19  C   UNL     1      33.589 -14.329 -23.725  0.00  0.00    +0.000 C 
ENDBRANCH  13  14
ENDBRANCH   8  13
ENDBRANCH   2   7
BRANCH   3  20
ATOM     20  C   UNL     1      33.357 -23.240 -16.883  0.00  0.00    +0.052 C 
ATOM     21  C   UNL     1      31.619 -24.481 -15.088  0.00  0.00    +0.031 C 
ATOM     22  C   UNL     1      33.861 -23.869 -15.746  0.00  0.00    +0.015 C 
ATOM     23  C   UNL     1      31.983 -23.231 -17.123  0.00  0.00    +0.015 C 
ATOM     24  C   UNL     1      32.993 -24.490 -14.848  0.00  0.00    +0.004 C 
ATOM     25  C   UNL     1      31.114 -23.851 -16.226  0.00  0.00    +0.004 C 
BRANCH  21  28
ATOM     26  N   UNL     1      29.610 -25.856 -14.597  0.00  0.00    -0.343 N 
ATOM     27  N   UNL     1      30.924 -25.024 -12.852  0.00  0.00    -0.285 NA
ATOM     28  C   UNL     1      30.712 -25.127 -14.152  0.00  0.00    +0.117 C 
ATOM     29  H   UNL     1      29.010 -26.286 -13.946  0.00  0.00    +0.144 HD
ATOM     30  H   UNL     1      29.434 -25.941 -15.561  0.00  0.00    +0.144 HD
ATOM     31  H   UNL     1      30.312 -25.460 -12.217  0.00  0.00    +0.188 HD
ENDBRANCH  21  28
ENDBRANCH   3  20
TORSDOF 5
ENDMDL
MODEL 5
REMARK VINA RESULT:     -10.8      5.445     11.204
REMARK  Name = 444581
REMARK  5 active torsions:
REMARK  status: ('A' for Active; 'I' for Inactive)
REMARK    1  A    between atoms: N_2  and  C_7
REMARK    2  A    between atoms: N_3  and  C_20
REMARK    3  A    between atoms: C_8  and  O_13
REMARK    4  A    between atoms: O_13  and  C_14
REMARK    5  A    between atoms: C_21  and  C_28
REMARK                            x       y       z     vdW  Elec       q    Type
REMARK                         _______ _______ _______ _____ _____    ______ ____
ROOT
ATOM      1  O   UNL     1      32.791 -21.361 -19.157  0.00  0.00    -0.252 OA
ATOM      2  N   UNL     1      35.100 -21.343 -19.528  0.00  0.00    -0.268 N 
ATOM      3  N   UNL     1      34.235 -22.614 -17.803  0.00  0.00    -0.268 N 
ATOM      4  C   UNL     1      33.924 -21.730 -18.864  0.00  0.00    +0.308 C 
ATOM      5  H   UNL     1      35.938 -21.723 -19.176  0.00  0.00    +0.156 HD
ATOM      6  H   UNL     1      35.190 -22.822 -17.686  0.00  0.00    +0.156 HD
ENDROOT
BRANCH   2   7
ATOM      7  C   UNL     1      35.229 -20.474 -20.636  0.00  0.00    +0.052 C 
ATOM      8  C   UNL     1      35.480 -18.771 -22.806  0.00  0.00    +0.145 C 
ATOM      9  C   UNL     1      36.423 -19.801 -20.835  0.00  0.00    +0.018 C 
ATOM     10  C   UNL     1      34.159 -20.314 -21.500  0.00  0.00    +0.018 C 
ATOM     11  C   UNL     1      36.550 -18.943 -21.927  0.00  0.00    +0.039 C 
ATOM     12  C   UNL     1      34.285 -19.457 -22.593  0.00  0.00    +0.039 C 
BRANCH   8  13
ATOM     13  O   UNL     1      35.605 -17.936 -23.874  0.00  0.00    -0.453 OA
BRANCH  13  14
ATOM     14  C   UNL     1      34.927 -16.729 -23.829  0.00  0.00    +0.145 C 
ATOM     15  C   UNL     1      34.118 -16.371 -24.891  0.00  0.00    +0.037 C 
ATOM     16  C   UNL     1      35.078 -15.914 -22.721  0.00  0.00    +0.037 C 
ATOM     17  C   UNL     1      33.436 -15.155 -24.846  0.00  0.00    +0.003 C 
ATOM     18  C   UNL     1      34.395 -14.698 -22.676  0.00  0.00    +0.003 C 
ATOM     19  C   UNL     1      33.574 -14.318 -23.739  0.00  0.00    +0.000 C 
ENDBRANCH  13  14
ENDBRANCH   8  13
ENDBRANCH   2   7
BRANCH   3  20
ATOM     20  C   UNL     1      33.368 -23.230 -16.900  0.00  0.00    +0.052 C 
ATOM     21  C   UNL     1      31.633 -24.463 -15.097  0.00  0.00    +0.031 C 
ATOM     22  C   UNL     1      31.995 -23.235 -17.145  0.00  0.00    +0.015 C 
ATOM     23  C   UNL     1      33.874 -23.843 -15.754  0.00  0.00    +0.015 C 
ATOM     24  C   UNL     1      31.127 -23.851 -16.243  0.00  0.00    +0.004 C 
ATOM     25  C   UNL     1      33.007 -24.459 -14.852  0.00  0.00    +0.004 C 
BRANCH  21  28
ATOM     26  N   UNL     1      29.646 -25.867 -14.597  0.00  0.00    -0.343 N 
ATOM     27  N   UNL     1      30.925 -24.972 -12.858  0.00  0.00    -0.285 NA
ATOM     28  C   UNL     1      30.729 -25.107 -14.157  0.00  0.00    +0.117 C 
ATOM     29  H   UNL     1      29.048 -26.295 -13.943  0.00  0.00    +0.144 HD
ATOM     30  H   UNL     1      29.482 -25.977 -15.561  0.00  0.00    +0.144 HD
ATOM     31  H   UNL     1      30.315 -25.406 -12.219  0.00  0.00    +0.188 HD
ENDBRANCH  21  28
ENDBRANCH   3  20
TORSDOF 5
ENDMDL
MODEL 6
REMARK VINA RESULT:     -10.8      4.630     10.580
REMARK  Name = 444581
REMARK  5 active torsions:
REMARK  status: ('A' for Active; 'I' for Inactive)
REMARK    1  A    between atoms: N_2  and  C_7
REMARK    2  A    between atoms: N_3  and  C_20
REMARK    3  A    between atoms: C_8  and  O_13
REMARK    4  A    between atoms: O_13  and  C_14
REMARK    5  A    between atoms: C_21  and  C_28
REMARK                            x       y       z     vdW  Elec       q    Type
REMARK                         _______ _______ _______ _____ _____    ______ ____
ROOT
ATOM      1  O   UNL     1      33.783 -19.805 -20.874  0.00  0.00    -0.252 OA
ATOM      2  N   UNL     1      35.471 -19.762 -22.492  0.00  0.00    -0.268 N 
ATOM      3  N   UNL     1      35.731 -21.078 -20.611  0.00  0.00    -0.268 N 
ATOM      4  C   UNL     1      34.878 -20.172 -21.286  0.00  0.00    +0.308 C 
ATOM      5  H   UNL     1      36.356 -20.145 -22.688  0.00  0.00    +0.156 HD
ATOM      6  H   UNL     1      36.581 -21.282 -21.062  0.00  0.00    +0.156 HD
ENDROOT
BRANCH   2   7
ATOM      7  C   UNL     1      34.953 -18.868 -23.457  0.00  0.00    +0.052 C 
ATOM      8  C   UNL     1      33.940 -17.116 -25.349  0.00  0.00    +0.145 C 
ATOM      9  C   UNL     1      34.068 -19.339 -24.413  0.00  0.00    +0.018 C 
ATOM     10  C   UNL     1      35.341 -17.539 -23.427  0.00  0.00    +0.018 C 
ATOM     11  C   UNL     1      33.558 -18.458 -25.366  0.00  0.00    +0.039 C 
ATOM     12  C   UNL     1      34.831 -16.656 -24.379  0.00  0.00    +0.039 C 
BRANCH   8  13
ATOM     13  O   UNL     1      33.440 -16.255 -26.278  0.00  0.00    -0.453 OA
BRANCH  13  14
ATOM     14  C   UNL     1      33.453 -14.904 -25.975  0.00  0.00    +0.145 C 
ATOM     15  C   UNL     1      33.621 -13.986 -26.995  0.00  0.00    +0.037 C 
ATOM     16  C   UNL     1      33.297 -14.508 -24.659  0.00  0.00    +0.037 C 
ATOM     17  C   UNL     1      33.635 -12.625 -26.691  0.00  0.00    +0.003 C 
ATOM     18  C   UNL     1      33.310 -13.147 -24.354  0.00  0.00    +0.003 C 
ATOM     19  C   UNL     1      33.479 -12.205 -25.370  0.00  0.00    +0.000 C 
ENDBRANCH  13  14
ENDBRANCH   8  13
ENDBRANCH   2   7
BRANCH   3  20
ATOM     20  C   UNL     1      35.526 -21.720 -19.389  0.00  0.00    +0.052 C 
ATOM     21  C   UNL     1      35.118 -23.001 -16.945  0.00  0.00    +0.031 C 
ATOM     22  C   UNL     1      36.551 -21.764 -18.445  0.00  0.00    +0.015 C 
ATOM     23  C   UNL     1      34.297 -22.317 -19.111  0.00  0.00    +0.015 C 
ATOM     24  C   UNL     1      36.348 -22.405 -17.222  0.00  0.00    +0.004 C 
ATOM     25  C   UNL     1      34.092 -22.957 -17.890  0.00  0.00    +0.004 C 
BRANCH  21  28
ATOM     26  N   UNL     1      34.121 -23.092 -14.672  0.00  0.00    -0.343 N 
ATOM     27  N   UNL     1      35.462 -24.844 -15.441  0.00  0.00    -0.285 NA
ATOM     28  C   UNL     1      34.904 -23.669 -15.670  0.00  0.00    +0.117 C 
ATOM     29  H   UNL     1      33.989 -23.561 -13.818  0.00  0.00    +0.144 HD
ATOM     30  H   UNL     1      33.700 -22.215 -14.823  0.00  0.00    +0.144 HD
ATOM     31  H   UNL     1      35.319 -25.298 -14.580  0.00  0.00    +0.188 HD
ENDBRANCH  21  28
ENDBRANCH   3  20
TORSDOF 5
ENDMDL
MODEL 7
REMARK VINA RESULT:     -10.7      6.080     12.147
REMARK  Name = 444581
REMARK  5 active torsions:
REMARK  status: ('A' for Active; 'I' for Inactive)
REMARK    1  A    between atoms: N_2  and  C_7
REMARK    2  A    between atoms: N_3  and  C_20
REMARK    3  A    between atoms: C_8  and  O_13
REMARK    4  A    between atoms: O_13  and  C_14
REMARK    5  A    between atoms: C_21  and  C_28
REMARK                            x       y       z     vdW  Elec       q    Type
REMARK                         _______ _______ _______ _____ _____    ______ ____
ROOT
ATOM      1  O   UNL     1      36.372 -21.616 -17.108  0.00  0.00    -0.252 OA
ATOM      2  N   UNL     1      34.883 -22.230 -18.804  0.00  0.00    -0.268 N 
ATOM      3  N   UNL     1      34.972 -23.478 -16.862  0.00  0.00    -0.268 N 
ATOM      4  C   UNL     1      35.502 -22.359 -17.549  0.00  0.00    +0.308 C 
ATOM      5  H   UNL     1      34.200 -22.905 -19.019  0.00  0.00    +0.156 HD
ATOM      6  H   UNL     1      34.277 -23.984 -17.340  0.00  0.00    +0.156 HD
ENDROOT
BRANCH   2   7
ATOM      7  C   UNL     1      35.121 -21.250 -19.795  0.00  0.00    +0.052 C 
ATOM      8  C   UNL     1      35.587 -19.329 -21.736  0.00  0.00    +0.145 C 
ATOM      9  C   UNL     1      36.418 -20.821 -20.027  0.00  0.00    +0.018 C 
ATOM     10  C   UNL     1      34.053 -20.738 -20.513  0.00  0.00    +0.018 C 
ATOM     11  C   UNL     1      36.653 -19.854 -21.004  0.00  0.00    +0.039 C 
ATOM     12  C   UNL     1      34.287 -19.771 -21.491  0.00  0.00    +0.039 C 
BRANCH   8  13
ATOM     13  O   UNL     1      35.817 -18.386 -22.690  0.00  0.00    -0.453 OA
BRANCH  13  14
ATOM     14  C   UNL     1      35.341 -17.106 -22.459  0.00  0.00    +0.145 C 
ATOM     15  C   UNL     1      35.001 -16.309 -23.535  0.00  0.00    +0.037 C 
ATOM     16  C   UNL     1      35.221 -16.660 -21.155  0.00  0.00    +0.037 C 
ATOM     17  C   UNL     1      34.522 -15.019 -23.301  0.00  0.00    +0.003 C 
ATOM     18  C   UNL     1      34.742 -15.370 -20.921  0.00  0.00    +0.003 C 
ATOM     19  C   UNL     1      34.392 -14.550 -21.995  0.00  0.00    +0.000 C 
ENDBRANCH  13  14
ENDBRANCH   8  13
ENDBRANCH   2   7
BRANCH   3  20
ATOM     20  C   UNL     1      35.306 -23.959 -15.595  0.00  0.00    +0.052 C 
ATOM     21  C   UNL     1      35.976 -24.920 -13.063  0.00  0.00    +0.031 C 
ATOM     22  C   UNL     1      36.527 -24.602 -15.394  0.00  0.00    +0.015 C 
ATOM     23  C   UNL     1      34.420 -23.796 -14.531  0.00  0.00    +0.015 C 
ATOM     24  C   UNL     1      36.862 -25.084 -14.128  0.00  0.00    +0.004 C 
ATOM     25  C   UNL     1      34.754 -24.276 -13.265  0.00  0.00    +0.004 C 
BRANCH  21  28
ATOM     26  N   UNL     1      35.853 -24.801 -10.586  0.00  0.00    -0.343 N 
ATOM     27  N   UNL     1      37.105 -26.478 -11.624  0.00  0.00    -0.285 NA
ATOM     28  C   UNL     1      36.324 -25.420 -11.742  0.00  0.00    +0.117 C 
ATOM     29  H   UNL     1      36.101 -25.157  -9.703  0.00  0.00    +0.144 HD
ATOM     30  H   UNL     1      35.273 -24.010 -10.653  0.00  0.00    +0.144 HD
ATOM     31  H   UNL     1      37.343 -26.819 -10.732  0.00  0.00    +0.188 HD
ENDBRANCH  21  28
ENDBRANCH   3  20
TORSDOF 5
ENDMDL
MODEL 8
REMARK VINA RESULT:     -10.6      4.512      7.371
REMARK  Name = 444581
REMARK  5 active torsions:
REMARK  status: ('A' for Active; 'I' for Inactive)
REMARK    1  A    between atoms: N_2  and  C_7
REMARK    2  A    between atoms: N_3  and  C_20
REMARK    3  A    between atoms: C_8  and  O_13
REMARK    4  A    between atoms: O_13  and  C_14
REMARK    5  A    between atoms: C_21  and  C_28
REMARK                            x       y       z     vdW  Elec       q    Type
REMARK                         _______ _______ _______ _____ _____    ______ ____
ROOT
ATOM      1  O   UNL     1      33.700 -20.213 -20.348  0.00  0.00    -0.252 OA
ATOM      2  N   UNL     1      35.729 -21.250 -19.822  0.00  0.00    -0.268 N 
ATOM      3  N   UNL     1      35.631 -19.776 -21.599  0.00  0.00    -0.268 N 
ATOM      4  C   UNL     1      34.893 -20.397 -20.563  0.00  0.00    +0.308 C 
ATOM      5  H   UNL     1      36.668 -21.293 -20.116  0.00  0.00    +0.156 HD
ATOM      6  H   UNL     1      36.583 -20.019 -21.651  0.00  0.00    +0.156 HD
ENDROOT
BRANCH   2   7
ATOM      7  C   UNL     1      35.388 -22.052 -18.709  0.00  0.00    +0.052 C 
ATOM      8  C   UNL     1      34.721 -23.626 -16.529  0.00  0.00    +0.145 C 
ATOM      9  C   UNL     1      36.245 -22.103 -17.622  0.00  0.00    +0.018 C 
ATOM     10  C   UNL     1      34.205 -22.771 -18.729  0.00  0.00    +0.018 C 
ATOM     11  C   UNL     1      35.909 -22.895 -16.524  0.00  0.00    +0.039 C 
ATOM     12  C   UNL     1      33.868 -23.564 -17.632  0.00  0.00    +0.039 C 
BRANCH   8  13
ATOM     13  O   UNL     1      34.392 -24.398 -15.457  0.00  0.00    -0.453 OA
BRANCH  13  14
ATOM     14  C   UNL     1      33.124 -24.249 -14.921  0.00  0.00    +0.145 C 
ATOM     15  C   UNL     1      32.360 -23.157 -15.291  0.00  0.00    +0.037 C 
ATOM     16  C   UNL     1      32.655 -25.197 -14.030  0.00  0.00    +0.037 C 
ATOM     17  C   UNL     1      31.083 -23.007 -14.750  0.00  0.00    +0.003 C 
ATOM     18  C   UNL     1      31.378 -25.047 -13.490  0.00  0.00    +0.003 C 
ATOM     19  C   UNL     1      30.591 -23.951 -13.850  0.00  0.00    +0.000 C 
ENDBRANCH  13  14
ENDBRANCH   8  13
ENDBRANCH   2   7
BRANCH   3  20
ATOM     20  C   UNL     1      35.188 -18.864 -22.557  0.00  0.00    +0.052 C 
ATOM     21  C   UNL     1      34.304 -17.039 -24.474  0.00  0.00    +0.031 C 
ATOM     22  C   UNL     1      35.363 -17.496 -22.351  0.00  0.00    +0.015 C 
ATOM     23  C   UNL     1      34.572 -19.320 -23.722  0.00  0.00    +0.015 C 
ATOM     24  C   UNL     1      34.920 -16.583 -23.309  0.00  0.00    +0.004 C 
ATOM     25  C   UNL     1      34.129 -18.408 -24.681  0.00  0.00    +0.004 C 
BRANCH  21  28
ATOM     26  N   UNL     1      33.743 -14.728 -25.188  0.00  0.00    -0.343 N 
ATOM     27  N   UNL     1      33.506 -16.512 -26.679  0.00  0.00    -0.285 NA
ATOM     28  C   UNL     1      33.843 -16.089 -25.474  0.00  0.00    +0.117 C 
ATOM     29  H   UNL     1      33.430 -14.102 -25.880  0.00  0.00    +0.144 HD
ATOM     30  H   UNL     1      33.987 -14.394 -24.296  0.00  0.00    +0.144 HD
ATOM     31  H   UNL     1      33.194 -15.871 -27.357  0.00  0.00    +0.188 HD
ENDBRANCH  21  28
ENDBRANCH   3  20
TORSDOF 5
ENDMDL
MODEL 9
REMARK VINA RESULT:     -10.5      3.069      4.863
REMARK  Name = 444581
REMARK  5 active torsions:
REMARK  status: ('A' for Active; 'I' for Inactive)
REMARK    1  A    between atoms: N_2  and  C_7
REMARK    2  A    between atoms: N_3  and  C_20
REMARK    3  A    between atoms: C_8  and  O_13
REMARK    4  A    between atoms: O_13  and  C_14
REMARK    5  A    between atoms: C_21  and  C_28
REMARK                            x       y       z     vdW  Elec       q    Type
REMARK                         _______ _______ _______ _____ _____    ______ ____
ROOT
ATOM      1  O   UNL     1      33.684  -9.833 -23.234  0.00  0.00    -0.252 OA
ATOM      2  N   UNL     1      32.266 -11.523 -22.460  0.00  0.00    -0.268 N 
ATOM      3  N   UNL     1      31.520  -9.337 -22.488  0.00  0.00    -0.268 N 
ATOM      4  C   UNL     1      32.607 -10.198 -22.776  0.00  0.00    +0.308 C 
ATOM      5  H   UNL     1      31.360 -11.660 -22.098  0.00  0.00    +0.156 HD
ATOM      6  H   UNL     1      30.716  -9.771 -22.123  0.00  0.00    +0.156 HD
ENDROOT
BRANCH   2   7
ATOM      7  C   UNL     1      33.063 -12.683 -22.596  0.00  0.00    +0.052 C 
ATOM      8  C   UNL     1      34.622 -14.957 -22.863  0.00  0.00    +0.145 C 
ATOM      9  C   UNL     1      33.464 -13.086 -23.859  0.00  0.00    +0.018 C 
ATOM     10  C   UNL     1      33.425 -13.394 -21.464  0.00  0.00    +0.018 C 
ATOM     11  C   UNL     1      34.249 -14.230 -23.994  0.00  0.00    +0.039 C 
ATOM     12  C   UNL     1      34.211 -14.539 -21.598  0.00  0.00    +0.039 C 
BRANCH   8  13
ATOM     13  O   UNL     1      35.390 -16.073 -22.995  0.00  0.00    -0.453 OA
BRANCH  13  14
ATOM     14  C   UNL     1      34.892 -17.110 -23.766  0.00  0.00    +0.145 C 
ATOM     15  C   UNL     1      34.241 -16.817 -24.950  0.00  0.00    +0.037 C 
ATOM     16  C   UNL     1      35.058 -18.412 -23.330  0.00  0.00    +0.037 C 
ATOM     17  C   UNL     1      33.739 -17.861 -25.726  0.00  0.00    +0.003 C 
ATOM     18  C   UNL     1      34.556 -19.457 -24.107  0.00  0.00    +0.003 C 
ATOM     19  C   UNL     1      33.896 -19.181 -25.305  0.00  0.00    +0.000 C 
ENDBRANCH  13  14
ENDBRANCH   8  13
ENDBRANCH   2   7
BRANCH   3  20
ATOM     20  C   UNL     1      31.438  -7.953 -22.653  0.00  0.00    +0.052 C 
ATOM     21  C   UNL     1      31.270  -5.188 -22.983  0.00  0.00    +0.031 C 
ATOM     22  C   UNL     1      31.155  -7.417 -23.909  0.00  0.00    +0.015 C 
ATOM     23  C   UNL     1      31.636  -7.108 -21.562  0.00  0.00    +0.015 C 
ATOM     24  C   UNL     1      31.072  -6.034 -24.074  0.00  0.00    +0.004 C 
ATOM     25  C   UNL     1      31.553  -5.725 -21.726  0.00  0.00    +0.004 C 
BRANCH  21  28
ATOM     26  N   UNL     1      31.866  -3.096 -24.181  0.00  0.00    -0.343 N 
ATOM     27  N   UNL     1      30.448  -3.028 -22.325  0.00  0.00    -0.285 NA
ATOM     28  C   UNL     1      31.183  -3.747 -23.154  0.00  0.00    +0.117 C 
ATOM     29  H   UNL     1      31.792  -2.120 -24.279  0.00  0.00    +0.144 HD
ATOM     30  H   UNL     1      32.420  -3.614 -24.807  0.00  0.00    +0.144 HD
ATOM     31  H   UNL     1      30.387  -2.053 -22.438  0.00  0.00    +0.188 HD
ENDBRANCH  21  28
ENDBRANCH   3  20
TORSDOF 5
ENDMDL
