MODEL 1
REMARK VINA RESULT:     -12.2      0.000      0.000
REMARK  Name = 24748573
REMARK  3 active torsions:
REMARK  status: ('A' for Active; 'I' for Inactive)
REMARK    1  A    between atoms: N_2  and  C_18
REMARK    2  A    between atoms: C_13  and  C_25
REMARK    3  A    between atoms: C_25  and  O_26
REMARK                            x       y       z     vdW  Elec       q    Type
REMARK                         _______ _______ _______ _____ _____    ______ ____
ROOT
ATOM      1  N   UNL     1      34.589 -23.338 -16.889  0.00  0.00    -0.391 NA
ATOM      2  N   UNL     1      32.867 -22.707 -18.357  0.00  0.00    -0.288 N 
ATOM      3  N   UNL     1      30.371 -24.084 -14.190  0.00  0.00    -0.243 NA
ATOM      4  C   UNL     1      34.130 -24.126 -14.651  0.00  0.00    +0.098 C 
ATOM      5  C   UNL     1      32.726 -23.962 -14.886  0.00  0.00    +0.011 C 
ATOM      6  C   UNL     1      32.292 -23.484 -16.135  0.00  0.00    +0.044 C 
ATOM      7  C   UNL     1      35.016 -23.793 -15.702  0.00  0.00    +0.119 C 
ATOM      8  C   UNL     1      33.261 -23.193 -17.084  0.00  0.00    +0.183 C 
ATOM      9  C   UNL     1      34.682 -24.599 -13.435  0.00  0.00    -0.015 C 
ATOM     10  C   UNL     1      36.387 -23.942 -15.507  0.00  0.00    +0.035 C 
ATOM     11  C   UNL     1      30.927 -23.310 -16.402  0.00  0.00    +0.024 C 
ATOM     12  C   UNL     1      31.698 -24.240 -13.964  0.00  0.00    +0.095 C 
ATOM     13  C   UNL     1      36.912 -24.409 -14.303  0.00  0.00    +0.077 C 
ATOM     14  C   UNL     1      36.058 -24.738 -13.264  0.00  0.00    +0.003 C 
ATOM     15  C   UNL     1      30.020 -23.623 -15.406  0.00  0.00    +0.099 C 
ATOM     16  H   UNL     1      31.984 -23.031 -18.649  0.00  0.00    +0.155 HD
ENDROOT
BRANCH   2  18
ATOM     17 CL   UNL     1      37.223 -20.868 -20.331  0.00  0.00    -0.082 Cl
ATOM     18  C   UNL     1      33.492 -21.855 -19.280  0.00  0.00    +0.051 C 
ATOM     19  C   UNL     1      34.885 -21.791 -19.338  0.00  0.00    +0.026 C 
ATOM     20  C   UNL     1      32.721 -21.075 -20.142  0.00  0.00    +0.015 C 
ATOM     21  C   UNL     1      35.506 -20.947 -20.259  0.00  0.00    +0.059 C 
ATOM     22  C   UNL     1      33.343 -20.231 -21.062  0.00  0.00    +0.002 C 
ATOM     23  C   UNL     1      34.735 -20.168 -21.121  0.00  0.00    +0.011 C 
ENDBRANCH   2  18
BRANCH  13  25
ATOM     24  O   UNL     1      38.933 -24.753 -13.070  0.00  0.00    -0.245 OA
ATOM     25  C   UNL     1      38.350 -24.547 -14.140  0.00  0.00    +0.338 C 
BRANCH  25  26
ATOM     26  O   UNL     1      39.022 -24.427 -15.318  0.00  0.00    -0.477 OA
ATOM     27  H   UNL     1      38.577 -24.576 -16.128  0.00  0.00    +0.295 HD
ENDBRANCH  25  26
ENDBRANCH  13  25
TORSDOF 3
ENDMDL
MODEL 2
REMARK VINA RESULT:     -11.8      1.216      1.758
REMARK  Name = 24748573
REMARK  3 active torsions:
REMARK  status: ('A' for Active; 'I' for Inactive)
REMARK    1  A    between atoms: N_2  and  C_18
REMARK    2  A    between atoms: C_13  and  C_25
REMARK    3  A    between atoms: C_25  and  O_26
REMARK                            x       y       z     vdW  Elec       q    Type
REMARK                         _______ _______ _______ _____ _____    ______ ____
ROOT
ATOM      1  N   UNL     1      35.238 -23.417 -16.181  0.00  0.00    -0.391 NA
ATOM      2  N   UNL     1      33.837 -22.966 -18.012  0.00  0.00    -0.288 N 
ATOM      3  N   UNL     1      30.575 -24.097 -14.329  0.00  0.00    -0.243 NA
ATOM      4  C   UNL     1      34.350 -24.041 -14.022  0.00  0.00    +0.098 C 
ATOM      5  C   UNL     1      33.020 -23.947 -14.546  0.00  0.00    +0.011 C 
ATOM      6  C   UNL     1      32.839 -23.584 -15.893  0.00  0.00    +0.044 C 
ATOM      7  C   UNL     1      35.424 -23.761 -14.898  0.00  0.00    +0.119 C 
ATOM      8  C   UNL     1      33.975 -23.335 -16.650  0.00  0.00    +0.183 C 
ATOM      9  C   UNL     1      34.653 -24.396 -12.684  0.00  0.00    -0.015 C 
ATOM     10  C   UNL     1      36.729 -23.845 -14.420  0.00  0.00    +0.035 C 
ATOM     11  C   UNL     1      31.553 -23.481 -16.441  0.00  0.00    +0.024 C 
ATOM     12  C   UNL     1      31.832 -24.187 -13.829  0.00  0.00    +0.095 C 
ATOM     13  C   UNL     1      37.009 -24.196 -13.101  0.00  0.00    +0.077 C 
ATOM     14  C   UNL     1      35.968 -24.473 -12.230  0.00  0.00    +0.003 C 
ATOM     15  C   UNL     1      30.469 -23.746 -15.625  0.00  0.00    +0.099 C 
ATOM     16  H   UNL     1      33.039 -23.343 -18.447  0.00  0.00    +0.155 HD
ENDROOT
BRANCH   2  18
ATOM     17 CL   UNL     1      34.040 -19.666 -21.926  0.00  0.00    -0.082 Cl
ATOM     18  C   UNL     1      34.620 -22.168 -18.860  0.00  0.00    +0.051 C 
ATOM     19  C   UNL     1      34.012 -21.405 -19.857  0.00  0.00    +0.026 C 
ATOM     20  C   UNL     1      36.006 -22.136 -18.704  0.00  0.00    +0.015 C 
ATOM     21  C   UNL     1      34.790 -20.608 -20.697  0.00  0.00    +0.059 C 
ATOM     22  C   UNL     1      36.784 -21.339 -19.545  0.00  0.00    +0.002 C 
ATOM     23  C   UNL     1      36.175 -20.576 -20.541  0.00  0.00    +0.011 C 
ENDBRANCH   2  18
BRANCH  13  25
ATOM     24  O   UNL     1      39.277 -24.954 -13.157  0.00  0.00    -0.245 OA
ATOM     25  C   UNL     1      38.386 -24.270 -12.641  0.00  0.00    +0.338 C 
BRANCH  25  26
ATOM     26  O   UNL     1      38.614 -23.487 -11.552  0.00  0.00    -0.477 OA
ATOM     27  H   UNL     1      37.956 -23.401 -10.890  0.00  0.00    +0.295 HD
ENDBRANCH  25  26
ENDBRANCH  13  25
TORSDOF 3
ENDMDL
MODEL 3
REMARK VINA RESULT:     -10.7      2.740      6.107
REMARK  Name = 24748573
REMARK  3 active torsions:
REMARK  status: ('A' for Active; 'I' for Inactive)
REMARK    1  A    between atoms: N_2  and  C_18
REMARK    2  A    between atoms: C_13  and  C_25
REMARK    3  A    between atoms: C_25  and  O_26
REMARK                            x       y       z     vdW  Elec       q    Type
REMARK                         _______ _______ _______ _____ _____    ______ ____
ROOT
ATOM      1  N   UNL     1      35.262 -23.401 -15.853  0.00  0.00    -0.391 NA
ATOM      2  N   UNL     1      35.124 -24.420 -13.741  0.00  0.00    -0.288 N 
ATOM      3  N   UNL     1      30.309 -24.269 -15.251  0.00  0.00    -0.243 NA
ATOM      4  C   UNL     1      33.297 -22.993 -17.200  0.00  0.00    +0.098 C 
ATOM      5  C   UNL     1      32.479 -23.575 -16.177  0.00  0.00    +0.011 C 
ATOM      6  C   UNL     1      33.089 -24.059 -15.006  0.00  0.00    +0.044 C 
ATOM      7  C   UNL     1      34.691 -22.936 -16.975  0.00  0.00    +0.119 C 
ATOM      8  C   UNL     1      34.469 -23.944 -14.905  0.00  0.00    +0.183 C 
ATOM      9  C   UNL     1      32.794 -22.474 -18.419  0.00  0.00    -0.015 C 
ATOM     10  C   UNL     1      35.514 -22.376 -17.949  0.00  0.00    +0.035 C 
ATOM     11  C   UNL     1      32.323 -24.634 -13.983  0.00  0.00    +0.024 C 
ATOM     12  C   UNL     1      31.079 -23.718 -16.222  0.00  0.00    +0.095 C 
ATOM     13  C   UNL     1      35.002 -21.869 -19.142  0.00  0.00    +0.077 C 
ATOM     14  C   UNL     1      33.638 -21.919 -19.378  0.00  0.00    +0.003 C 
ATOM     15  C   UNL     1      30.954 -24.713 -14.155  0.00  0.00    +0.099 C 
ATOM     16  H   UNL     1      34.573 -24.370 -12.927  0.00  0.00    +0.155 HD
ENDROOT
BRANCH   2  18
ATOM     17 CL   UNL     1      39.888 -25.138 -15.486  0.00  0.00    -0.082 Cl
ATOM     18  C   UNL     1      36.407 -24.947 -13.526  0.00  0.00    +0.051 C 
ATOM     19  C   UNL     1      37.394 -24.800 -14.501  0.00  0.00    +0.026 C 
ATOM     20  C   UNL     1      36.696 -25.615 -12.336  0.00  0.00    +0.015 C 
ATOM     21  C   UNL     1      38.670 -25.320 -14.285  0.00  0.00    +0.059 C 
ATOM     22  C   UNL     1      37.972 -26.135 -12.120  0.00  0.00    +0.002 C 
ATOM     23  C   UNL     1      38.959 -25.987 -13.095  0.00  0.00    +0.011 C 
ENDBRANCH   2  18
BRANCH  13  25
ATOM     24  O   UNL     1      37.111 -21.504 -20.211  0.00  0.00    -0.245 OA
ATOM     25  C   UNL     1      35.895 -21.295 -20.134  0.00  0.00    +0.338 C 
BRANCH  25  26
ATOM     26  O   UNL     1      35.247 -20.474 -21.007  0.00  0.00    -0.477 OA
ATOM     27  H   UNL     1      35.288 -20.644 -21.927  0.00  0.00    +0.295 HD
ENDBRANCH  25  26
ENDBRANCH  13  25
TORSDOF 3
ENDMDL
MODEL 4
REMARK VINA RESULT:     -10.2      3.546      6.823
REMARK  Name = 24748573
REMARK  3 active torsions:
REMARK  status: ('A' for Active; 'I' for Inactive)
REMARK    1  A    between atoms: N_2  and  C_18
REMARK    2  A    between atoms: C_13  and  C_25
REMARK    3  A    between atoms: C_25  and  O_26
REMARK                            x       y       z     vdW  Elec       q    Type
REMARK                         _______ _______ _______ _____ _____    ______ ____
ROOT
ATOM      1  N   UNL     1      34.376 -24.233 -15.398  0.00  0.00    -0.391 NA
ATOM      2  N   UNL     1      36.646 -23.942 -15.922  0.00  0.00    -0.288 N 
ATOM      3  N   UNL     1      34.290 -21.456 -19.631  0.00  0.00    -0.243 NA
ATOM      4  C   UNL     1      32.621 -23.292 -16.769  0.00  0.00    +0.098 C 
ATOM      5  C   UNL     1      33.610 -22.740 -17.647  0.00  0.00    +0.011 C 
ATOM      6  C   UNL     1      34.971 -22.955 -17.368  0.00  0.00    +0.044 C 
ATOM      7  C   UNL     1      33.074 -24.034 -15.654  0.00  0.00    +0.119 C 
ATOM      8  C   UNL     1      35.286 -23.702 -16.242  0.00  0.00    +0.183 C 
ATOM      9  C   UNL     1      31.224 -23.141 -16.950  0.00  0.00    -0.015 C 
ATOM     10  C   UNL     1      32.139 -24.586 -14.781  0.00  0.00    +0.035 C 
ATOM     11  C   UNL     1      35.967 -22.431 -18.203  0.00  0.00    +0.024 C 
ATOM     12  C   UNL     1      33.352 -21.977 -18.802  0.00  0.00    +0.095 C 
ATOM     13  C   UNL     1      30.768 -24.427 -14.975  0.00  0.00    +0.077 C 
ATOM     14  C   UNL     1      30.309 -23.702 -16.062  0.00  0.00    +0.003 C 
ATOM     15  C   UNL     1      35.576 -21.698 -19.308  0.00  0.00    +0.099 C 
ATOM     16  H   UNL     1      37.238 -23.978 -16.709  0.00  0.00    +0.155 HD
ENDROOT
BRANCH   2  18
ATOM     17 CL   UNL     1      37.036 -22.810 -10.940  0.00  0.00    -0.082 Cl
ATOM     18  C   UNL     1      37.312 -24.139 -14.703  0.00  0.00    +0.051 C 
ATOM     19  C   UNL     1      36.894 -23.454 -13.562  0.00  0.00    +0.026 C 
ATOM     20  C   UNL     1      38.391 -25.021 -14.632  0.00  0.00    +0.015 C 
ATOM     21  C   UNL     1      37.553 -23.653 -12.349  0.00  0.00    +0.059 C 
ATOM     22  C   UNL     1      39.050 -25.219 -13.418  0.00  0.00    +0.002 C 
ATOM     23  C   UNL     1      38.631 -24.535 -12.277  0.00  0.00    +0.011 C 
ENDBRANCH   2  18
BRANCH  13  25
ATOM     24  O   UNL     1      28.682 -25.395 -14.317  0.00  0.00    -0.245 OA
ATOM     25  C   UNL     1      29.825 -25.017 -14.039  0.00  0.00    +0.338 C 
BRANCH  25  26
ATOM     26  O   UNL     1      30.336 -25.122 -12.781  0.00  0.00    -0.477 OA
ATOM     27  H   UNL     1      30.935 -24.476 -12.464  0.00  0.00    +0.295 HD
ENDBRANCH  25  26
ENDBRANCH  13  25
TORSDOF 3
ENDMDL
MODEL 5
REMARK VINA RESULT:     -10.2      3.236      6.058
REMARK  Name = 24748573
REMARK  3 active torsions:
REMARK  status: ('A' for Active; 'I' for Inactive)
REMARK    1  A    between atoms: N_2  and  C_18
REMARK    2  A    between atoms: C_13  and  C_25
REMARK    3  A    between atoms: C_25  and  O_26
REMARK                            x       y       z     vdW  Elec       q    Type
REMARK                         _______ _______ _______ _____ _____    ______ ____
ROOT
ATOM      1  N   UNL     1      33.990 -23.838 -15.828  0.00  0.00    -0.391 NA
ATOM      2  N   UNL     1      32.809 -24.965 -14.139  0.00  0.00    -0.288 N 
ATOM      3  N   UNL     1      37.131 -23.699 -11.858  0.00  0.00    -0.243 NA
ATOM      4  C   UNL     1      36.196 -22.925 -15.446  0.00  0.00    +0.098 C 
ATOM      5  C   UNL     1      36.155 -23.402 -14.095  0.00  0.00    +0.011 C 
ATOM      6  C   UNL     1      35.014 -24.092 -13.647  0.00  0.00    +0.044 C 
ATOM      7  C   UNL     1      35.073 -23.178 -16.267  0.00  0.00    +0.119 C 
ATOM      8  C   UNL     1      33.978 -24.276 -14.551  0.00  0.00    +0.183 C 
ATOM      9  C   UNL     1      37.289 -22.220 -16.007  0.00  0.00    -0.015 C 
ATOM     10  C   UNL     1      35.081 -22.730 -17.585  0.00  0.00    +0.035 C 
ATOM     11  C   UNL     1      34.938 -24.572 -12.333  0.00  0.00    +0.024 C 
ATOM     12  C   UNL     1      37.173 -23.246 -13.135  0.00  0.00    +0.095 C 
ATOM     13  C   UNL     1      36.166 -22.037 -18.120  0.00  0.00    +0.077 C 
ATOM     14  C   UNL     1      37.273 -21.781 -17.329  0.00  0.00    +0.003 C 
ATOM     15  C   UNL     1      36.011 -24.352 -11.490  0.00  0.00    +0.099 C 
ATOM     16  H   UNL     1      32.972 -25.643 -13.444  0.00  0.00    +0.155 HD
ENDROOT
BRANCH   2  18
ATOM     17 CL   UNL     1      29.247 -22.552 -16.922  0.00  0.00    -0.082 Cl
ATOM     18  C   UNL     1      31.466 -24.868 -14.532  0.00  0.00    +0.051 C 
ATOM     19  C   UNL     1      31.070 -23.872 -15.425  0.00  0.00    +0.026 C 
ATOM     20  C   UNL     1      30.526 -25.770 -14.031  0.00  0.00    +0.015 C 
ATOM     21  C   UNL     1      29.735 -23.779 -15.819  0.00  0.00    +0.059 C 
ATOM     22  C   UNL     1      29.191 -25.675 -14.425  0.00  0.00    +0.002 C 
ATOM     23  C   UNL     1      28.796 -24.680 -15.319  0.00  0.00    +0.011 C 
ENDBRANCH   2  18
BRANCH  13  25
ATOM     24  O   UNL     1      35.537 -22.147 -20.426  0.00  0.00    -0.245 OA
ATOM     25  C   UNL     1      36.133 -21.584 -19.501  0.00  0.00    +0.338 C 
BRANCH  25  26
ATOM     26  O   UNL     1      36.845 -20.439 -19.691  0.00  0.00    -0.477 OA
ATOM     27  H   UNL     1      37.040 -19.883 -18.963  0.00  0.00    +0.295 HD
ENDBRANCH  25  26
ENDBRANCH  13  25
TORSDOF 3
ENDMDL
MODEL 6
REMARK VINA RESULT:     -10.1      3.594      6.789
REMARK  Name = 24748573
REMARK  3 active torsions:
REMARK  status: ('A' for Active; 'I' for Inactive)
REMARK    1  A    between atoms: N_2  and  C_18
REMARK    2  A    between atoms: C_13  and  C_25
REMARK    3  A    between atoms: C_25  and  O_26
REMARK                            x       y       z     vdW  Elec       q    Type
REMARK                         _______ _______ _______ _____ _____    ______ ____
ROOT
ATOM      1  N   UNL     1      33.752 -23.275 -17.156  0.00  0.00    -0.391 NA
ATOM      2  N   UNL     1      33.371 -24.623 -15.271  0.00  0.00    -0.288 N 
ATOM      3  N   UNL     1      38.298 -23.572 -14.946  0.00  0.00    -0.243 NA
ATOM      4  C   UNL     1      35.939 -22.377 -17.659  0.00  0.00    +0.098 C 
ATOM      5  C   UNL     1      36.466 -23.018 -16.490  0.00  0.00    +0.011 C 
ATOM      6  C   UNL     1      35.604 -23.778 -15.679  0.00  0.00    +0.044 C 
ATOM      7  C   UNL     1      34.563 -22.547 -17.938  0.00  0.00    +0.119 C 
ATOM      8  C   UNL     1      34.274 -23.867 -16.061  0.00  0.00    +0.183 C 
ATOM      9  C   UNL     1      36.710 -21.589 -18.548  0.00  0.00    -0.015 C 
ATOM     10  C   UNL     1      34.020 -21.939 -19.067  0.00  0.00    +0.035 C 
ATOM     11  C   UNL     1      36.083 -24.419 -14.528  0.00  0.00    +0.024 C 
ATOM     12  C   UNL     1      37.803 -22.965 -16.052  0.00  0.00    +0.095 C 
ATOM     13  C   UNL     1      34.794 -21.166 -19.931  0.00  0.00    +0.077 C 
ATOM     14  C   UNL     1      36.143 -20.990 -19.671  0.00  0.00    +0.003 C 
ATOM     15  C   UNL     1      37.422 -24.285 -14.212  0.00  0.00    +0.099 C 
ATOM     16  H   UNL     1      33.791 -25.379 -14.801  0.00  0.00    +0.155 HD
ENDROOT
BRANCH   2  18
ATOM     17 CL   UNL     1      28.834 -22.768 -16.765  0.00  0.00    -0.082 Cl
ATOM     18  C   UNL     1      31.994 -24.502 -15.030  0.00  0.00    +0.051 C 
ATOM     19  C   UNL     1      31.192 -23.777 -15.913  0.00  0.00    +0.026 C 
ATOM     20  C   UNL     1      31.425 -25.110 -13.910  0.00  0.00    +0.015 C 
ATOM     21  C   UNL     1      29.823 -23.661 -15.676  0.00  0.00    +0.059 C 
ATOM     22  C   UNL     1      30.056 -24.993 -13.674  0.00  0.00    +0.002 C 
ATOM     23  C   UNL     1      29.255 -24.269 -14.557  0.00  0.00    +0.011 C 
ENDBRANCH   2  18
BRANCH  13  25
ATOM     24  O   UNL     1      34.803 -20.077 -22.061  0.00  0.00    -0.245 OA
ATOM     25  C   UNL     1      34.187 -20.547 -21.098  0.00  0.00    +0.338 C 
BRANCH  25  26
ATOM     26  O   UNL     1      32.827 -20.532 -21.032  0.00  0.00    -0.477 OA
ATOM     27  H   UNL     1      32.382 -21.078 -20.414  0.00  0.00    +0.295 HD
ENDBRANCH  25  26
ENDBRANCH  13  25
TORSDOF 3
ENDMDL
MODEL 7
REMARK VINA RESULT:      -9.3      3.311      5.115
REMARK  Name = 24748573
REMARK  3 active torsions:
REMARK  status: ('A' for Active; 'I' for Inactive)
REMARK    1  A    between atoms: N_2  and  C_18
REMARK    2  A    between atoms: C_13  and  C_25
REMARK    3  A    between atoms: C_25  and  O_26
REMARK                            x       y       z     vdW  Elec       q    Type
REMARK                         _______ _______ _______ _____ _____    ______ ____
ROOT
ATOM      1  N   UNL     1      34.044 -23.051 -16.277  0.00  0.00    -0.391 NA
ATOM      2  N   UNL     1      36.132 -22.334 -17.078  0.00  0.00    -0.288 N 
ATOM      3  N   UNL     1      37.368 -25.576 -13.411  0.00  0.00    -0.243 NA
ATOM      4  C   UNL     1      33.852 -24.650 -14.475  0.00  0.00    +0.098 C 
ATOM      5  C   UNL     1      35.281 -24.719 -14.390  0.00  0.00    +0.011 C 
ATOM      6  C   UNL     1      36.058 -23.940 -15.265  0.00  0.00    +0.044 C 
ATOM      7  C   UNL     1      33.292 -23.791 -15.447  0.00  0.00    +0.119 C 
ATOM      8  C   UNL     1      35.387 -23.135 -16.176  0.00  0.00    +0.183 C 
ATOM      9  C   UNL     1      32.971 -25.388 -13.646  0.00  0.00    -0.015 C 
ATOM     10  C   UNL     1      31.907 -23.699 -15.555  0.00  0.00    +0.035 C 
ATOM     11  C   UNL     1      37.457 -23.981 -15.212  0.00  0.00    +0.024 C 
ATOM     12  C   UNL     1      36.016 -25.514 -13.489  0.00  0.00    +0.095 C 
ATOM     13  C   UNL     1      31.054 -24.433 -14.732  0.00  0.00    +0.077 C 
ATOM     14  C   UNL     1      31.588 -25.280 -13.775  0.00  0.00    +0.003 C 
ATOM     15  C   UNL     1      38.054 -24.805 -14.277  0.00  0.00    +0.099 C 
ATOM     16  H   UNL     1      37.003 -22.043 -16.724  0.00  0.00    +0.155 HD
ENDROOT
BRANCH   2  18
ATOM     17 CL   UNL     1      32.659 -21.012 -20.606  0.00  0.00    -0.082 Cl
ATOM     18  C   UNL     1      35.866 -21.875 -18.377  0.00  0.00    +0.051 C 
ATOM     19  C   UNL     1      34.548 -21.695 -18.797  0.00  0.00    +0.026 C 
ATOM     20  C   UNL     1      36.921 -21.594 -19.247  0.00  0.00    +0.015 C 
ATOM     21  C   UNL     1      34.285 -21.234 -20.087  0.00  0.00    +0.059 C 
ATOM     22  C   UNL     1      36.656 -21.134 -20.537  0.00  0.00    +0.002 C 
ATOM     23  C   UNL     1      35.339 -20.954 -20.956  0.00  0.00    +0.011 C 
ENDBRANCH   2  18
BRANCH  13  25
ATOM     24  O   UNL     1      29.021 -23.328 -15.337  0.00  0.00    -0.245 OA
ATOM     25  C   UNL     1      29.613 -24.310 -14.879  0.00  0.00    +0.338 C 
BRANCH  25  26
ATOM     26  O   UNL     1      28.950 -25.420 -14.451  0.00  0.00    -0.477 OA
ATOM     27  H   UNL     1      29.299 -25.932 -13.748  0.00  0.00    +0.295 HD
ENDBRANCH  25  26
ENDBRANCH  13  25
TORSDOF 3
ENDMDL
