MODEL 1
REMARK VINA RESULT:     -11.8      0.000      0.000
REMARK  Name = 447546
REMARK  10 active torsions:
REMARK  status: ('A' for Active; 'I' for Inactive)
REMARK    1  A    between atoms: N_1  and  C_23
REMARK    2  A    between atoms: C_8  and  N_11
REMARK    3  A    between atoms: N_12  and  C_16
REMARK    4  A    between atoms: C_16  and  C_17
REMARK    5  A    between atoms: C_23  and  C_24
REMARK    6  A    between atoms: C_24  and  C_25
REMARK    7  A    between atoms: C_25  and  N_26
REMARK    8  A    between atoms: C_25  and  C_36
REMARK    9  A    between atoms: C_30  and  C_33
REMARK   10  A    between atoms: C_36  and  O_37
REMARK                            x       y       z     vdW  Elec       q    Type
REMARK                         _______ _______ _______ _____ _____    ______ ____
ROOT
ATOM      1  N   UNL     1      32.799 -24.805 -14.314  0.00  0.00    -0.286 N 
ATOM      2  C   UNL     1      32.222 -24.116 -15.357  0.00  0.00    +0.053 C 
ATOM      3  C   UNL     1      30.838 -24.196 -15.185  0.00  0.00    +0.015 C 
ATOM      4  C   UNL     1      31.831 -25.314 -13.490  0.00  0.00    +0.065 C 
ATOM      5  C   UNL     1      30.607 -24.953 -14.003  0.00  0.00    +0.017 C 
ATOM      6  C   UNL     1      32.813 -23.437 -16.429  0.00  0.00    +0.030 C 
ATOM      7  C   UNL     1      30.001 -23.567 -16.128  0.00  0.00    +0.003 C 
ATOM      8  C   UNL     1      31.961 -22.821 -17.351  0.00  0.00    +0.053 C 
ATOM      9  C   UNL     1      30.577 -22.882 -17.204  0.00  0.00    +0.015 C 
ENDROOT
BRANCH   8  11
ATOM     10  O   UNL     1      34.800 -22.648 -18.310  0.00  0.00    -0.252 OA
ATOM     11  N   UNL     1      32.509 -22.131 -18.433  0.00  0.00    -0.268 N 
ATOM     12  N   UNL     1      33.994 -21.273 -19.985  0.00  0.00    -0.285 N 
ATOM     13  C   UNL     1      33.855 -22.078 -18.849  0.00  0.00    +0.305 C 
ATOM     14  H   UNL     1      31.872 -21.614 -18.978  0.00  0.00    +0.156 HD
ATOM     15  H   UNL     1      33.190 -20.849 -20.360  0.00  0.00    +0.151 HD
BRANCH  12  16
ATOM     16  C   UNL     1      35.264 -21.037 -20.632  0.00  0.00    +0.118 C 
BRANCH  16  17
ATOM     17  C   UNL     1      35.235 -19.809 -21.495  0.00  0.00    -0.003 C 
ATOM     18  C   UNL     1      34.717 -19.876 -22.787  0.00  0.00    -0.003 C 
ATOM     19  C   UNL     1      35.726 -18.599 -21.003  0.00  0.00    -0.003 C 
ATOM     20  C   UNL     1      34.691 -18.735 -23.589  0.00  0.00    -0.000 C 
ATOM     21  C   UNL     1      35.699 -17.457 -21.804  0.00  0.00    -0.000 C 
ATOM     22  C   UNL     1      35.181 -17.526 -23.097  0.00  0.00    -0.000 C 
ENDBRANCH  16  17
ENDBRANCH  12  16
ENDBRANCH   8  11
BRANCH   1  23
ATOM     23  C   UNL     1      34.221 -24.977 -14.104  0.00  0.00    +0.097 C 
BRANCH  23  24
ATOM     24  C   UNL     1      34.759 -24.298 -12.836  0.00  0.00    +0.040 C 
BRANCH  24  25
ATOM     25  C   UNL     1      36.048 -24.920 -12.256  0.00  0.00    +0.091 C 
BRANCH  25  26
ATOM     26  N   UNL     1      37.192 -24.876 -13.183  0.00  0.00    -0.246 NA
ATOM     27  N   UNL     1      38.656 -24.245 -14.727  0.00  0.00    -0.251 NA
ATOM     28  C   UNL     1      38.159 -25.838 -13.337  0.00  0.00    +0.125 C 
ATOM     29  C   UNL     1      37.521 -23.930 -14.034  0.00  0.00    +0.201 C 
ATOM     30  C   UNL     1      39.079 -25.468 -14.290  0.00  0.00    +0.124 C 
BRANCH  30  33
ATOM     31  O   UNL     1      40.625 -26.139 -15.948  0.00  0.00    -0.269 OA
ATOM     32  N   UNL     1      40.979 -26.897 -13.828  0.00  0.00    -0.324 N 
ATOM     33  C   UNL     1      40.232 -26.163 -14.757  0.00  0.00    +0.257 C 
ATOM     34  H   UNL     1      41.781 -27.388 -14.119  0.00  0.00    +0.145 HD
ATOM     35  H   UNL     1      40.703 -26.921 -12.883  0.00  0.00    +0.145 HD
ENDBRANCH  30  33
ENDBRANCH  25  26
BRANCH  25  36
ATOM     36  C   UNL     1      36.415 -24.255 -10.918  0.00  0.00    +0.153 C 
BRANCH  36  37
ATOM     37  O   UNL     1      35.623 -24.810  -9.874  0.00  0.00    -0.381 OA
ATOM     38  H   UNL     1      35.585 -24.187  -9.132  0.00  0.00    +0.210 HD
ENDBRANCH  36  37
ENDBRANCH  25  36
ENDBRANCH  24  25
ENDBRANCH  23  24
ENDBRANCH   1  23
TORSDOF 10
ENDMDL
MODEL 2
REMARK VINA RESULT:     -11.7      6.977     11.741
REMARK  Name = 447546
REMARK  10 active torsions:
REMARK  status: ('A' for Active; 'I' for Inactive)
REMARK    1  A    between atoms: N_1  and  C_23
REMARK    2  A    between atoms: C_8  and  N_11
REMARK    3  A    between atoms: N_12  and  C_16
REMARK    4  A    between atoms: C_16  and  C_17
REMARK    5  A    between atoms: C_23  and  C_24
REMARK    6  A    between atoms: C_24  and  C_25
REMARK    7  A    between atoms: C_25  and  N_26
REMARK    8  A    between atoms: C_25  and  C_36
REMARK    9  A    between atoms: C_30  and  C_33
REMARK   10  A    between atoms: C_36  and  O_37
REMARK                            x       y       z     vdW  Elec       q    Type
REMARK                         _______ _______ _______ _____ _____    ______ ____
ROOT
ATOM      1  N   UNL     1      34.758 -16.643 -23.499  0.00  0.00    -0.286 N 
ATOM      2  C   UNL     1      34.257 -15.488 -24.056  0.00  0.00    +0.053 C 
ATOM      3  C   UNL     1      33.759 -15.823 -25.318  0.00  0.00    +0.015 C 
ATOM      4  C   UNL     1      34.594 -17.694 -24.362  0.00  0.00    +0.065 C 
ATOM      5  C   UNL     1      33.979 -17.217 -25.496  0.00  0.00    +0.017 C 
ATOM      6  C   UNL     1      34.206 -14.186 -23.545  0.00  0.00    +0.030 C 
ATOM      7  C   UNL     1      33.183 -14.810 -26.110  0.00  0.00    +0.003 C 
ATOM      8  C   UNL     1      33.630 -13.199 -24.350  0.00  0.00    +0.053 C 
ATOM      9  C   UNL     1      33.125 -13.504 -25.612  0.00  0.00    +0.015 C 
ENDROOT
BRANCH   8  11
ATOM     10  O   UNL     1      35.175 -10.755 -25.154  0.00  0.00    -0.252 OA
ATOM     11  N   UNL     1      33.557 -11.887 -23.877  0.00  0.00    -0.268 N 
ATOM     12  N   UNL     1      33.931  -9.627 -23.564  0.00  0.00    -0.285 N 
ATOM     13  C   UNL     1      34.306 -10.765 -24.286  0.00  0.00    +0.305 C 
ATOM     14  H   UNL     1      32.896 -11.725 -23.166  0.00  0.00    +0.156 HD
ATOM     15  H   UNL     1      33.226  -9.714 -22.884  0.00  0.00    +0.151 HD
BRANCH  12  16
ATOM     16  C   UNL     1      34.532  -8.329 -23.771  0.00  0.00    +0.118 C 
BRANCH  16  17
ATOM     17  C   UNL     1      33.615  -7.213 -23.363  0.00  0.00    -0.003 C 
ATOM     18  C   UNL     1      33.362  -6.161 -24.241  0.00  0.00    -0.003 C 
ATOM     19  C   UNL     1      33.015  -7.230 -22.103  0.00  0.00    -0.003 C 
ATOM     20  C   UNL     1      32.510  -5.124 -23.860  0.00  0.00    -0.000 C 
ATOM     21  C   UNL     1      32.163  -6.194 -21.723  0.00  0.00    -0.000 C 
ATOM     22  C   UNL     1      31.910  -5.141 -22.602  0.00  0.00    -0.000 C 
ENDBRANCH  16  17
ENDBRANCH  12  16
ENDBRANCH   8  11
BRANCH   1  23
ATOM     23  C   UNL     1      35.373 -16.749 -22.193  0.00  0.00    +0.097 C 
BRANCH  23  24
ATOM     24  C   UNL     1      35.101 -18.078 -21.474  0.00  0.00    +0.040 C 
BRANCH  24  25
ATOM     25  C   UNL     1      36.363 -18.862 -21.047  0.00  0.00    +0.091 C 
BRANCH  25  26
ATOM     26  N   UNL     1      36.063 -20.151 -20.399  0.00  0.00    -0.246 NA
ATOM     27  N   UNL     1      36.242 -22.077 -19.310  0.00  0.00    -0.251 NA
ATOM     28  C   UNL     1      34.833 -20.751 -20.298  0.00  0.00    +0.125 C 
ATOM     29  C   UNL     1      36.889 -20.975 -19.793  0.00  0.00    +0.201 C 
ATOM     30  C   UNL     1      34.919 -21.948 -19.626  0.00  0.00    +0.124 C 
BRANCH  30  33
ATOM     31  O   UNL     1      33.970 -24.112 -19.545  0.00  0.00    -0.269 OA
ATOM     32  N   UNL     1      32.746 -22.406 -18.659  0.00  0.00    -0.324 N 
ATOM     33  C   UNL     1      33.894 -22.883 -19.303  0.00  0.00    +0.257 C 
ATOM     34  H   UNL     1      32.020 -23.026 -18.423  0.00  0.00    +0.145 HD
ATOM     35  H   UNL     1      32.665 -21.448 -18.442  0.00  0.00    +0.145 HD
ENDBRANCH  30  33
ENDBRANCH  25  26
BRANCH  25  36
ATOM     36  C   UNL     1      37.302 -19.071 -22.247  0.00  0.00    +0.153 C 
BRANCH  36  37
ATOM     37  O   UNL     1      38.616 -18.645 -21.906  0.00  0.00    -0.381 OA
ATOM     38  H   UNL     1      38.569 -18.006 -21.178  0.00  0.00    +0.210 HD
ENDBRANCH  36  37
ENDBRANCH  25  36
ENDBRANCH  24  25
ENDBRANCH  23  24
ENDBRANCH   1  23
TORSDOF 10
ENDMDL
MODEL 3
REMARK VINA RESULT:     -11.6      2.282      4.328
REMARK  Name = 447546
REMARK  10 active torsions:
REMARK  status: ('A' for Active; 'I' for Inactive)
REMARK    1  A    between atoms: N_1  and  C_23
REMARK    2  A    between atoms: C_8  and  N_11
REMARK    3  A    between atoms: N_12  and  C_16
REMARK    4  A    between atoms: C_16  and  C_17
REMARK    5  A    between atoms: C_23  and  C_24
REMARK    6  A    between atoms: C_24  and  C_25
REMARK    7  A    between atoms: C_25  and  N_26
REMARK    8  A    between atoms: C_25  and  C_36
REMARK    9  A    between atoms: C_30  and  C_33
REMARK   10  A    between atoms: C_36  and  O_37
REMARK                            x       y       z     vdW  Elec       q    Type
REMARK                         _______ _______ _______ _____ _____    ______ ____
ROOT
ATOM      1  N   UNL     1      36.297 -23.402 -15.891  0.00  0.00    -0.286 N 
ATOM      2  C   UNL     1      35.734 -22.860 -17.024  0.00  0.00    +0.053 C 
ATOM      3  C   UNL     1      34.413 -23.312 -17.082  0.00  0.00    +0.015 C 
ATOM      4  C   UNL     1      35.381 -24.176 -15.231  0.00  0.00    +0.065 C 
ATOM      5  C   UNL     1      34.205 -24.140 -15.944  0.00  0.00    +0.017 C 
ATOM      6  C   UNL     1      36.286 -22.015 -17.993  0.00  0.00    +0.030 C 
ATOM      7  C   UNL     1      33.602 -22.900 -18.158  0.00  0.00    +0.003 C 
ATOM      8  C   UNL     1      35.462 -21.620 -19.052  0.00  0.00    +0.053 C 
ATOM      9  C   UNL     1      34.141 -22.054 -19.134  0.00  0.00    +0.015 C 
ENDROOT
BRANCH   8  11
ATOM     10  O   UNL     1      34.062 -20.117 -21.240  0.00  0.00    -0.252 OA
ATOM     11  N   UNL     1      35.973 -20.775 -20.038  0.00  0.00    -0.268 N 
ATOM     12  N   UNL     1      36.155 -19.340 -21.842  0.00  0.00    -0.285 N 
ATOM     13  C   UNL     1      35.275 -20.087 -21.050  0.00  0.00    +0.305 C 
ATOM     14  H   UNL     1      36.949 -20.643 -20.024  0.00  0.00    +0.156 HD
ATOM     15  H   UNL     1      37.115 -19.365 -21.629  0.00  0.00    +0.151 HD
BRANCH  12  16
ATOM     16  C   UNL     1      35.718 -18.532 -22.958  0.00  0.00    +0.118 C 
BRANCH  16  17
ATOM     17  C   UNL     1      35.288 -17.161 -22.524  0.00  0.00    -0.003 C 
ATOM     18  C   UNL     1      34.934 -16.207 -23.477  0.00  0.00    -0.003 C 
ATOM     19  C   UNL     1      35.240 -16.842 -21.167  0.00  0.00    -0.003 C 
ATOM     20  C   UNL     1      34.534 -14.933 -23.073  0.00  0.00    -0.000 C 
ATOM     21  C   UNL     1      34.840 -15.568 -20.763  0.00  0.00    -0.000 C 
ATOM     22  C   UNL     1      34.487 -14.614 -21.717  0.00  0.00    -0.000 C 
ENDBRANCH  16  17
ENDBRANCH  12  16
ENDBRANCH   8  11
BRANCH   1  23
ATOM     23  C   UNL     1      37.659 -23.194 -15.447  0.00  0.00    +0.097 C 
BRANCH  23  24
ATOM     24  C   UNL     1      38.594 -24.385 -15.698  0.00  0.00    +0.040 C 
BRANCH  24  25
ATOM     25  C   UNL     1      39.260 -24.974 -14.435  0.00  0.00    +0.091 C 
BRANCH  25  26
ATOM     26  N   UNL     1      38.307 -25.279 -13.354  0.00  0.00    -0.246 NA
ATOM     27  N   UNL     1      36.895 -26.320 -11.993  0.00  0.00    -0.251 NA
ATOM     28  C   UNL     1      37.838 -24.407 -12.404  0.00  0.00    +0.125 C 
ATOM     29  C   UNL     1      37.719 -26.423 -13.078  0.00  0.00    +0.201 C 
ATOM     30  C   UNL     1      36.961 -25.030 -11.547  0.00  0.00    +0.124 C 
BRANCH  30  33
ATOM     31  O   UNL     1      35.392 -25.145  -9.783  0.00  0.00    -0.269 OA
ATOM     32  N   UNL     1      36.548 -23.195 -10.022  0.00  0.00    -0.324 N 
ATOM     33  C   UNL     1      36.251 -24.501 -10.431  0.00  0.00    +0.257 C 
ATOM     34  H   UNL     1      36.075 -22.801  -9.255  0.00  0.00    +0.145 HD
ATOM     35  H   UNL     1      37.230 -22.671 -10.502  0.00  0.00    +0.145 HD
ENDBRANCH  30  33
ENDBRANCH  25  26
BRANCH  25  36
ATOM     36  C   UNL     1      40.086 -26.222 -14.790  0.00  0.00    +0.153 C 
BRANCH  36  37
ATOM     37  O   UNL     1      40.606 -26.092 -16.109  0.00  0.00    -0.381 OA
ATOM     38  H   UNL     1      40.050 -26.594 -16.725  0.00  0.00    +0.210 HD
ENDBRANCH  36  37
ENDBRANCH  25  36
ENDBRANCH  24  25
ENDBRANCH  23  24
ENDBRANCH   1  23
TORSDOF 10
ENDMDL
MODEL 4
REMARK VINA RESULT:     -11.5      2.867      6.874
REMARK  Name = 447546
REMARK  10 active torsions:
REMARK  status: ('A' for Active; 'I' for Inactive)
REMARK    1  A    between atoms: N_1  and  C_23
REMARK    2  A    between atoms: C_8  and  N_11
REMARK    3  A    between atoms: N_12  and  C_16
REMARK    4  A    between atoms: C_16  and  C_17
REMARK    5  A    between atoms: C_23  and  C_24
REMARK    6  A    between atoms: C_24  and  C_25
REMARK    7  A    between atoms: C_25  and  N_26
REMARK    8  A    between atoms: C_25  and  C_36
REMARK    9  A    between atoms: C_30  and  C_33
REMARK   10  A    between atoms: C_36  and  O_37
REMARK                            x       y       z     vdW  Elec       q    Type
REMARK                         _______ _______ _______ _____ _____    ______ ____
ROOT
ATOM      1  N   UNL     1      34.597 -24.448 -14.717  0.00  0.00    -0.286 N 
ATOM      2  C   UNL     1      35.538 -23.739 -15.430  0.00  0.00    +0.053 C 
ATOM      3  C   UNL     1      36.771 -23.956 -14.810  0.00  0.00    +0.015 C 
ATOM      4  C   UNL     1      35.192 -25.104 -13.672  0.00  0.00    +0.065 C 
ATOM      5  C   UNL     1      36.536 -24.819 -13.704  0.00  0.00    +0.017 C 
ATOM      6  C   UNL     1      35.393 -22.931 -16.563  0.00  0.00    +0.030 C 
ATOM      7  C   UNL     1      37.917 -23.336 -15.347  0.00  0.00    +0.003 C 
ATOM      8  C   UNL     1      36.545 -22.327 -17.077  0.00  0.00    +0.053 C 
ATOM      9  C   UNL     1      37.788 -22.526 -16.481  0.00  0.00    +0.015 C 
ENDROOT
BRANCH   8  11
ATOM     10  O   UNL     1      34.894 -22.651 -19.562  0.00  0.00    -0.252 OA
ATOM     11  N   UNL     1      36.444 -21.515 -18.208  0.00  0.00    -0.268 N 
ATOM     12  N   UNL     1      35.836 -20.661 -20.269  0.00  0.00    -0.285 N 
ATOM     13  C   UNL     1      35.652 -21.706 -19.357  0.00  0.00    +0.305 C 
ATOM     14  H   UNL     1      36.999 -20.701 -18.201  0.00  0.00    +0.156 HD
ATOM     15  H   UNL     1      36.461 -19.938 -20.034  0.00  0.00    +0.151 HD
BRANCH  12  16
ATOM     16  C   UNL     1      35.150 -20.593 -21.539  0.00  0.00    +0.118 C 
BRANCH  16  17
ATOM     17  C   UNL     1      35.165 -19.205 -22.112  0.00  0.00    -0.003 C 
ATOM     18  C   UNL     1      35.413 -18.111 -21.285  0.00  0.00    -0.003 C 
ATOM     19  C   UNL     1      34.932 -19.011 -23.474  0.00  0.00    -0.003 C 
ATOM     20  C   UNL     1      35.427 -16.822 -21.818  0.00  0.00    -0.000 C 
ATOM     21  C   UNL     1      34.945 -17.722 -24.007  0.00  0.00    -0.000 C 
ATOM     22  C   UNL     1      35.193 -16.628 -23.179  0.00  0.00    -0.000 C 
ENDBRANCH  16  17
ENDBRANCH  12  16
ENDBRANCH   8  11
BRANCH   1  23
ATOM     23  C   UNL     1      33.182 -24.502 -15.014  0.00  0.00    +0.097 C 
BRANCH  23  24
ATOM     24  C   UNL     1      32.384 -23.290 -14.512  0.00  0.00    +0.040 C 
BRANCH  24  25
ATOM     25  C   UNL     1      30.907 -23.576 -14.162  0.00  0.00    +0.091 C 
BRANCH  25  26
ATOM     26  N   UNL     1      29.966 -23.208 -15.234  0.00  0.00    -0.246 NA
ATOM     27  N   UNL     1      29.076 -22.707 -17.205  0.00  0.00    -0.251 NA
ATOM     28  C   UNL     1      28.624 -22.954 -15.094  0.00  0.00    +0.125 C 
ATOM     29  C   UNL     1      30.205 -23.050 -16.517  0.00  0.00    +0.201 C 
ATOM     30  C   UNL     1      28.050 -22.641 -16.305  0.00  0.00    +0.124 C 
BRANCH  30  33
ATOM     31  O   UNL     1      25.760 -22.381 -15.780  0.00  0.00    -0.269 OA
ATOM     32  N   UNL     1      26.404 -21.873 -17.906  0.00  0.00    -0.324 N 
ATOM     33  C   UNL     1      26.698 -22.315 -16.610  0.00  0.00    +0.257 C 
ATOM     34  H   UNL     1      25.480 -21.639 -18.149  0.00  0.00    +0.145 HD
ATOM     35  H   UNL     1      27.123 -21.796 -18.575  0.00  0.00    +0.145 HD
ENDBRANCH  30  33
ENDBRANCH  25  26
BRANCH  25  36
ATOM     36  C   UNL     1      30.720 -25.050 -13.767  0.00  0.00    +0.153 C 
BRANCH  36  37
ATOM     37  O   UNL     1      30.393 -25.138 -12.384  0.00  0.00    -0.381 OA
ATOM     38  H   UNL     1      29.433 -25.051 -12.274  0.00  0.00    +0.210 HD
ENDBRANCH  36  37
ENDBRANCH  25  36
ENDBRANCH  24  25
ENDBRANCH  23  24
ENDBRANCH   1  23
TORSDOF 10
ENDMDL
MODEL 5
REMARK VINA RESULT:     -11.2      3.431      7.242
REMARK  Name = 447546
REMARK  10 active torsions:
REMARK  status: ('A' for Active; 'I' for Inactive)
REMARK    1  A    between atoms: N_1  and  C_23
REMARK    2  A    between atoms: C_8  and  N_11
REMARK    3  A    between atoms: N_12  and  C_16
REMARK    4  A    between atoms: C_16  and  C_17
REMARK    5  A    between atoms: C_23  and  C_24
REMARK    6  A    between atoms: C_24  and  C_25
REMARK    7  A    between atoms: C_25  and  N_26
REMARK    8  A    between atoms: C_25  and  C_36
REMARK    9  A    between atoms: C_30  and  C_33
REMARK   10  A    between atoms: C_36  and  O_37
REMARK                            x       y       z     vdW  Elec       q    Type
REMARK                         _______ _______ _______ _____ _____    ______ ____
ROOT
ATOM      1  N   UNL     1      33.905 -23.470 -16.304  0.00  0.00    -0.286 N 
ATOM      2  C   UNL     1      34.768 -22.844 -17.176  0.00  0.00    +0.053 C 
ATOM      3  C   UNL     1      36.040 -22.894 -16.600  0.00  0.00    +0.015 C 
ATOM      4  C   UNL     1      34.586 -23.914 -15.202  0.00  0.00    +0.065 C 
ATOM      5  C   UNL     1      35.909 -23.572 -15.357  0.00  0.00    +0.017 C 
ATOM      6  C   UNL     1      34.522 -22.243 -18.416  0.00  0.00    +0.030 C 
ATOM      7  C   UNL     1      37.121 -22.316 -17.295  0.00  0.00    +0.003 C 
ATOM      8  C   UNL     1      35.611 -21.677 -19.086  0.00  0.00    +0.053 C 
ATOM      9  C   UNL     1      36.891 -21.713 -18.537  0.00  0.00    +0.015 C 
ENDROOT
BRANCH   8  11
ATOM     10  O   UNL     1      36.804 -19.178 -20.243  0.00  0.00    -0.252 OA
ATOM     11  N   UNL     1      35.410 -21.070 -20.327  0.00  0.00    -0.268 N 
ATOM     12  N   UNL     1      35.530 -19.618 -22.122  0.00  0.00    -0.285 N 
ATOM     13  C   UNL     1      35.995 -19.891 -20.831  0.00  0.00    +0.305 C 
ATOM     14  H   UNL     1      34.778 -21.526 -20.929  0.00  0.00    +0.156 HD
ATOM     15  H   UNL     1      34.882 -20.236 -22.528  0.00  0.00    +0.151 HD
BRANCH  12  16
ATOM     16  C   UNL     1      35.960 -18.469 -22.887  0.00  0.00    +0.118 C 
BRANCH  16  17
ATOM     17  C   UNL     1      34.964 -18.096 -23.947  0.00  0.00    -0.003 C 
ATOM     18  C   UNL     1      34.209 -19.085 -24.575  0.00  0.00    -0.003 C 
ATOM     19  C   UNL     1      34.794 -16.758 -24.303  0.00  0.00    -0.003 C 
ATOM     20  C   UNL     1      33.284 -18.738 -25.559  0.00  0.00    -0.000 C 
ATOM     21  C   UNL     1      33.869 -16.410 -25.288  0.00  0.00    -0.000 C 
ATOM     22  C   UNL     1      33.114 -17.401 -25.915  0.00  0.00    -0.000 C 
ENDBRANCH  16  17
ENDBRANCH  12  16
ENDBRANCH   8  11
BRANCH   1  23
ATOM     23  C   UNL     1      32.483 -23.642 -16.508  0.00  0.00    +0.097 C 
BRANCH  23  24
ATOM     24  C   UNL     1      31.794 -24.514 -15.449  0.00  0.00    +0.040 C 
BRANCH  24  25
ATOM     25  C   UNL     1      30.551 -23.881 -14.785  0.00  0.00    +0.091 C 
BRANCH  25  26
ATOM     26  N   UNL     1      29.385 -23.793 -15.681  0.00  0.00    -0.246 NA
ATOM     27  N   UNL     1      27.834 -24.240 -17.204  0.00  0.00    -0.251 NA
ATOM     28  C   UNL     1      28.504 -22.745 -15.778  0.00  0.00    +0.125 C 
ATOM     29  C   UNL     1      28.953 -24.676 -16.553  0.00  0.00    +0.201 C 
ATOM     30  C   UNL     1      27.532 -23.000 -16.717  0.00  0.00    +0.124 C 
BRANCH  30  33
ATOM     31  O   UNL     1      25.571 -21.734 -16.343  0.00  0.00    -0.269 OA
ATOM     32  N   UNL     1      26.327 -21.872 -18.489  0.00  0.00    -0.324 N 
ATOM     33  C   UNL     1      26.434 -22.192 -17.130  0.00  0.00    +0.257 C 
ATOM     34  H   UNL     1      25.580 -21.315 -18.806  0.00  0.00    +0.145 HD
ATOM     35  H   UNL     1      26.999 -22.204 -19.128  0.00  0.00    +0.145 HD
ENDBRANCH  30  33
ENDBRANCH  25  26
BRANCH  25  36
ATOM     36  C   UNL     1      30.182 -24.636 -13.497  0.00  0.00    +0.153 C 
BRANCH  36  37
ATOM     37  O   UNL     1      31.334 -25.292 -12.979  0.00  0.00    -0.381 OA
ATOM     38  H   UNL     1      32.106 -24.713 -13.079  0.00  0.00    +0.210 HD
ENDBRANCH  36  37
ENDBRANCH  25  36
ENDBRANCH  24  25
ENDBRANCH  23  24
ENDBRANCH   1  23
TORSDOF 10
ENDMDL
MODEL 6
REMARK VINA RESULT:     -11.0      8.285     15.083
REMARK  Name = 447546
REMARK  10 active torsions:
REMARK  status: ('A' for Active; 'I' for Inactive)
REMARK    1  A    between atoms: N_1  and  C_23
REMARK    2  A    between atoms: C_8  and  N_11
REMARK    3  A    between atoms: N_12  and  C_16
REMARK    4  A    between atoms: C_16  and  C_17
REMARK    5  A    between atoms: C_23  and  C_24
REMARK    6  A    between atoms: C_24  and  C_25
REMARK    7  A    between atoms: C_25  and  N_26
REMARK    8  A    between atoms: C_25  and  C_36
REMARK    9  A    between atoms: C_30  and  C_33
REMARK   10  A    between atoms: C_36  and  O_37
REMARK                            x       y       z     vdW  Elec       q    Type
REMARK                         _______ _______ _______ _____ _____    ______ ____
ROOT
ATOM      1  N   UNL     1      33.654 -12.355 -24.651  0.00  0.00    -0.286 N 
ATOM      2  C   UNL     1      33.884 -13.705 -24.508  0.00  0.00    +0.053 C 
ATOM      3  C   UNL     1      33.525 -14.312 -25.715  0.00  0.00    +0.015 C 
ATOM      4  C   UNL     1      33.165 -12.088 -25.902  0.00  0.00    +0.065 C 
ATOM      5  C   UNL     1      33.075 -13.279 -26.583  0.00  0.00    +0.017 C 
ATOM      6  C   UNL     1      34.376 -14.429 -23.416  0.00  0.00    +0.030 C 
ATOM      7  C   UNL     1      33.664 -15.709 -25.839  0.00  0.00    +0.003 C 
ATOM      8  C   UNL     1      34.505 -15.813 -23.563  0.00  0.00    +0.053 C 
ATOM      9  C   UNL     1      34.156 -16.445 -24.755  0.00  0.00    +0.015 C 
ENDROOT
BRANCH   8  11
ATOM     10  O   UNL     1      35.648 -18.587 -23.517  0.00  0.00    -0.252 OA
ATOM     11  N   UNL     1      34.994 -16.572 -22.499  0.00  0.00    -0.268 N 
ATOM     12  N   UNL     1      35.907 -18.283 -21.240  0.00  0.00    -0.285 N 
ATOM     13  C   UNL     1      35.525 -17.877 -22.523  0.00  0.00    +0.305 C 
ATOM     14  H   UNL     1      34.966 -16.137 -21.615  0.00  0.00    +0.156 HD
ATOM     15  H   UNL     1      35.777 -17.658 -20.492  0.00  0.00    +0.151 HD
BRANCH  12  16
ATOM     16  C   UNL     1      36.484 -19.579 -20.963  0.00  0.00    +0.118 C 
BRANCH  16  17
ATOM     17  C   UNL     1      35.482 -20.525 -20.368  0.00  0.00    -0.003 C 
ATOM     18  C   UNL     1      35.902 -21.535 -19.505  0.00  0.00    -0.003 C 
ATOM     19  C   UNL     1      34.128 -20.393 -20.680  0.00  0.00    -0.003 C 
ATOM     20  C   UNL     1      34.971 -22.414 -18.952  0.00  0.00    -0.000 C 
ATOM     21  C   UNL     1      33.196 -21.272 -20.128  0.00  0.00    -0.000 C 
ATOM     22  C   UNL     1      33.618 -22.282 -19.264  0.00  0.00    -0.000 C 
ENDBRANCH  16  17
ENDBRANCH  12  16
ENDBRANCH   8  11
BRANCH   1  23
ATOM     23  C   UNL     1      33.889 -11.351 -23.636  0.00  0.00    +0.097 C 
BRANCH  23  24
ATOM     24  C   UNL     1      32.758 -10.323 -23.491  0.00  0.00    +0.040 C 
BRANCH  24  25
ATOM     25  C   UNL     1      32.283 -10.069 -22.043  0.00  0.00    +0.091 C 
BRANCH  25  26
ATOM     26  N   UNL     1      32.113  -8.642 -21.720  0.00  0.00    -0.246 NA
ATOM     27  N   UNL     1      32.031  -6.697 -20.653  0.00  0.00    -0.251 NA
ATOM     28  C   UNL     1      31.739  -7.645 -22.586  0.00  0.00    +0.125 C 
ATOM     29  C   UNL     1      32.281  -8.038 -20.565  0.00  0.00    +0.201 C 
ATOM     30  C   UNL     1      31.682  -6.429 -21.946  0.00  0.00    +0.124 C 
BRANCH  30  33
ATOM     31  O   UNL     1      31.858  -4.650 -23.494  0.00  0.00    -0.269 OA
ATOM     32  N   UNL     1      30.355  -4.408 -21.798  0.00  0.00    -0.324 N 
ATOM     33  C   UNL     1      31.341  -5.146 -22.464  0.00  0.00    +0.257 C 
ATOM     34  H   UNL     1      30.097  -3.518 -22.130  0.00  0.00    +0.145 HD
ATOM     35  H   UNL     1      29.920  -4.778 -20.995  0.00  0.00    +0.145 HD
ENDBRANCH  30  33
ENDBRANCH  25  26
BRANCH  25  36
ATOM     36  C   UNL     1      30.985 -10.843 -21.757  0.00  0.00    +0.153 C 
BRANCH  36  37
ATOM     37  O   UNL     1      31.281 -12.221 -21.564  0.00  0.00    -0.381 OA
ATOM     38  H   UNL     1      31.940 -12.504 -22.218  0.00  0.00    +0.210 HD
ENDBRANCH  36  37
ENDBRANCH  25  36
ENDBRANCH  24  25
ENDBRANCH  23  24
ENDBRANCH   1  23
TORSDOF 10
ENDMDL
MODEL 7
REMARK VINA RESULT:     -10.9      3.832      7.426
REMARK  Name = 447546
REMARK  10 active torsions:
REMARK  status: ('A' for Active; 'I' for Inactive)
REMARK    1  A    between atoms: N_1  and  C_23
REMARK    2  A    between atoms: C_8  and  N_11
REMARK    3  A    between atoms: N_12  and  C_16
REMARK    4  A    between atoms: C_16  and  C_17
REMARK    5  A    between atoms: C_23  and  C_24
REMARK    6  A    between atoms: C_24  and  C_25
REMARK    7  A    between atoms: C_25  and  N_26
REMARK    8  A    between atoms: C_25  and  C_36
REMARK    9  A    between atoms: C_30  and  C_33
REMARK   10  A    between atoms: C_36  and  O_37
REMARK                            x       y       z     vdW  Elec       q    Type
REMARK                         _______ _______ _______ _____ _____    ______ ____
ROOT
ATOM      1  N   UNL     1      34.363 -22.622 -17.834  0.00  0.00    -0.286 N 
ATOM      2  C   UNL     1      34.899 -21.867 -18.853  0.00  0.00    +0.053 C 
ATOM      3  C   UNL     1      36.272 -21.774 -18.616  0.00  0.00    +0.015 C 
ATOM      4  C   UNL     1      35.348 -23.010 -16.965  0.00  0.00    +0.065 C 
ATOM      5  C   UNL     1      36.540 -22.499 -17.422  0.00  0.00    +0.017 C 
ATOM      6  C   UNL     1      34.279 -21.265 -19.954  0.00  0.00    +0.030 C 
ATOM      7  C   UNL     1      37.068 -21.044 -19.521  0.00  0.00    +0.003 C 
ATOM      8  C   UNL     1      35.090 -20.547 -20.838  0.00  0.00    +0.053 C 
ATOM      9  C   UNL     1      36.463 -20.438 -20.628  0.00  0.00    +0.015 C 
ENDROOT
BRANCH   8  11
ATOM     10  O   UNL     1      36.290 -18.712 -22.888  0.00  0.00    -0.252 OA
ATOM     11  N   UNL     1      34.512 -19.933 -21.951  0.00  0.00    -0.268 N 
ATOM     12  N   UNL     1      34.193 -18.671 -23.862  0.00  0.00    -0.285 N 
ATOM     13  C   UNL     1      35.117 -19.076 -22.892  0.00  0.00    +0.305 C 
ATOM     14  H   UNL     1      33.558 -20.126 -22.099  0.00  0.00    +0.156 HD
ATOM     15  H   UNL     1      33.270 -19.004 -23.799  0.00  0.00    +0.151 HD
BRANCH  12  16
ATOM     16  C   UNL     1      34.534 -17.787 -24.954  0.00  0.00    +0.118 C 
BRANCH  16  17
ATOM     17  C   UNL     1      34.171 -16.361 -24.656  0.00  0.00    -0.003 C 
ATOM     18  C   UNL     1      34.599 -15.765 -23.471  0.00  0.00    -0.003 C 
ATOM     19  C   UNL     1      33.406 -15.632 -25.567  0.00  0.00    -0.003 C 
ATOM     20  C   UNL     1      34.261 -14.440 -23.196  0.00  0.00    -0.000 C 
ATOM     21  C   UNL     1      33.068 -14.307 -25.292  0.00  0.00    -0.000 C 
ATOM     22  C   UNL     1      33.496 -13.711 -24.105  0.00  0.00    -0.000 C 
ENDBRANCH  16  17
ENDBRANCH  12  16
ENDBRANCH   8  11
BRANCH   1  23
ATOM     23  C   UNL     1      32.965 -22.966 -17.688  0.00  0.00    +0.097 C 
BRANCH  23  24
ATOM     24  C   UNL     1      32.682 -24.012 -16.600  0.00  0.00    +0.040 C 
BRANCH  24  25
ATOM     25  C   UNL     1      31.902 -23.488 -15.373  0.00  0.00    +0.091 C 
BRANCH  25  26
ATOM     26  N   UNL     1      30.445 -23.674 -15.478  0.00  0.00    -0.246 NA
ATOM     27  N   UNL     1      28.395 -24.518 -15.374  0.00  0.00    -0.251 NA
ATOM     28  C   UNL     1      29.538 -22.773 -15.978  0.00  0.00    +0.125 C 
ATOM     29  C   UNL     1      29.723 -24.714 -15.123  0.00  0.00    +0.201 C 
ATOM     30  C   UNL     1      28.258 -23.275 -15.924  0.00  0.00    +0.124 C 
BRANCH  30  33
ATOM     31  O   UNL     1      26.080 -22.434 -15.553  0.00  0.00    -0.269 OA
ATOM     32  N   UNL     1      26.888 -22.325 -17.681  0.00  0.00    -0.324 N 
ATOM     33  C   UNL     1      27.031 -22.678 -16.333  0.00  0.00    +0.257 C 
ATOM     34  H   UNL     1      26.053 -21.912 -17.995  0.00  0.00    +0.145 HD
ATOM     35  H   UNL     1      27.625 -22.491 -18.314  0.00  0.00    +0.145 HD
ENDBRANCH  30  33
ENDBRANCH  25  26
BRANCH  25  36
ATOM     36  C   UNL     1      32.433 -24.129 -14.080  0.00  0.00    +0.153 C 
BRANCH  36  37
ATOM     37  O   UNL     1      32.444 -23.162 -13.036  0.00  0.00    -0.381 OA
ATOM     38  H   UNL     1      32.842 -22.340 -13.361  0.00  0.00    +0.210 HD
ENDBRANCH  36  37
ENDBRANCH  25  36
ENDBRANCH  24  25
ENDBRANCH  23  24
ENDBRANCH   1  23
TORSDOF 10
ENDMDL
MODEL 8
REMARK VINA RESULT:     -10.9      1.989      2.953
REMARK  Name = 447546
REMARK  10 active torsions:
REMARK  status: ('A' for Active; 'I' for Inactive)
REMARK    1  A    between atoms: N_1  and  C_23
REMARK    2  A    between atoms: C_8  and  N_11
REMARK    3  A    between atoms: N_12  and  C_16
REMARK    4  A    between atoms: C_16  and  C_17
REMARK    5  A    between atoms: C_23  and  C_24
REMARK    6  A    between atoms: C_24  and  C_25
REMARK    7  A    between atoms: C_25  and  N_26
REMARK    8  A    between atoms: C_25  and  C_36
REMARK    9  A    between atoms: C_30  and  C_33
REMARK   10  A    between atoms: C_36  and  O_37
REMARK                            x       y       z     vdW  Elec       q    Type
REMARK                         _______ _______ _______ _____ _____    ______ ____
ROOT
ATOM      1  N   UNL     1      35.107 -23.383 -15.843  0.00  0.00    -0.286 N 
ATOM      2  C   UNL     1      34.755 -22.837 -17.057  0.00  0.00    +0.053 C 
ATOM      3  C   UNL     1      33.435 -23.218 -17.310  0.00  0.00    +0.015 C 
ATOM      4  C   UNL     1      34.058 -24.092 -15.321  0.00  0.00    +0.065 C 
ATOM      5  C   UNL     1      33.009 -24.007 -16.206  0.00  0.00    +0.017 C 
ATOM      6  C   UNL     1      35.496 -22.045 -17.941  0.00  0.00    +0.030 C 
ATOM      7  C   UNL     1      32.822 -22.787 -18.504  0.00  0.00    +0.003 C 
ATOM      8  C   UNL     1      34.867 -21.630 -19.119  0.00  0.00    +0.053 C 
ATOM      9  C   UNL     1      33.551 -21.993 -19.397  0.00  0.00    +0.015 C 
ENDROOT
BRANCH   8  11
ATOM     10  O   UNL     1      33.883 -19.965 -21.414  0.00  0.00    -0.252 OA
ATOM     11  N   UNL     1      35.570 -20.837 -20.027  0.00  0.00    -0.268 N 
ATOM     12  N   UNL     1      36.099 -19.413 -21.771  0.00  0.00    -0.285 N 
ATOM     13  C   UNL     1      35.064 -20.067 -21.094  0.00  0.00    +0.305 C 
ATOM     14  H   UNL     1      36.547 -20.810 -19.905  0.00  0.00    +0.156 HD
ATOM     15  H   UNL     1      37.022 -19.544 -21.456  0.00  0.00    +0.151 HD
BRANCH  12  16
ATOM     16  C   UNL     1      35.876 -18.553 -22.910  0.00  0.00    +0.118 C 
BRANCH  16  17
ATOM     17  C   UNL     1      35.383 -17.195 -22.501  0.00  0.00    -0.003 C 
ATOM     18  C   UNL     1      35.279 -16.868 -21.150  0.00  0.00    -0.003 C 
ATOM     19  C   UNL     1      35.030 -16.260 -23.475  0.00  0.00    -0.003 C 
ATOM     20  C   UNL     1      34.821 -15.606 -20.771  0.00  0.00    -0.000 C 
ATOM     21  C   UNL     1      34.572 -14.998 -23.095  0.00  0.00    -0.000 C 
ATOM     22  C   UNL     1      34.468 -14.671 -21.743  0.00  0.00    -0.000 C 
ENDBRANCH  16  17
ENDBRANCH  12  16
ENDBRANCH   8  11
BRANCH   1  23
ATOM     23  C   UNL     1      36.395 -23.240 -15.198  0.00  0.00    +0.097 C 
BRANCH  23  24
ATOM     24  C   UNL     1      36.319 -22.919 -13.699  0.00  0.00    +0.040 C 
BRANCH  24  25
ATOM     25  C   UNL     1      36.503 -24.132 -12.759  0.00  0.00    +0.091 C 
BRANCH  25  26
ATOM     26  N   UNL     1      37.361 -25.188 -13.322  0.00  0.00    -0.246 NA
ATOM     27  N   UNL     1      38.127 -27.129 -14.079  0.00  0.00    -0.251 NA
ATOM     28  C   UNL     1      38.662 -25.052 -13.739  0.00  0.00    +0.125 C 
ATOM     29  C   UNL     1      37.070 -26.451 -13.541  0.00  0.00    +0.201 C 
ATOM     30  C   UNL     1      39.159 -26.243 -14.213  0.00  0.00    +0.124 C 
BRANCH  30  33
ATOM     31  O   UNL     1      40.804 -26.278 -15.910  0.00  0.00    -0.269 OA
ATOM     32  N   UNL     1      41.379 -27.153 -13.886  0.00  0.00    -0.324 N 
ATOM     33  C   UNL     1      40.449 -26.545 -14.737  0.00  0.00    +0.257 C 
ATOM     34  H   UNL     1      42.278 -27.375 -14.217  0.00  0.00    +0.145 HD
ATOM     35  H   UNL     1      41.133 -27.361 -12.955  0.00  0.00    +0.145 HD
ENDBRANCH  30  33
ENDBRANCH  25  26
BRANCH  25  36
ATOM     36  C   UNL     1      37.037 -23.679 -11.390  0.00  0.00    +0.153 C 
BRANCH  36  37
ATOM     37  O   UNL     1      37.679 -22.415 -11.521  0.00  0.00    -0.381 OA
ATOM     38  H   UNL     1      38.023 -22.137 -10.658  0.00  0.00    +0.210 HD
ENDBRANCH  36  37
ENDBRANCH  25  36
ENDBRANCH  24  25
ENDBRANCH  23  24
ENDBRANCH   1  23
TORSDOF 10
ENDMDL
MODEL 9
REMARK VINA RESULT:     -10.8      9.021     13.975
REMARK  Name = 447546
REMARK  10 active torsions:
REMARK  status: ('A' for Active; 'I' for Inactive)
REMARK    1  A    between atoms: N_1  and  C_23
REMARK    2  A    between atoms: C_8  and  N_11
REMARK    3  A    between atoms: N_12  and  C_16
REMARK    4  A    between atoms: C_16  and  C_17
REMARK    5  A    between atoms: C_23  and  C_24
REMARK    6  A    between atoms: C_24  and  C_25
REMARK    7  A    between atoms: C_25  and  N_26
REMARK    8  A    between atoms: C_25  and  C_36
REMARK    9  A    between atoms: C_30  and  C_33
REMARK   10  A    between atoms: C_36  and  O_37
REMARK                            x       y       z     vdW  Elec       q    Type
REMARK                         _______ _______ _______ _____ _____    ______ ____
ROOT
ATOM      1  N   UNL     1      32.990 -13.452 -22.420  0.00  0.00    -0.286 N 
ATOM      2  C   UNL     1      32.501 -12.190 -22.169  0.00  0.00    +0.053 C 
ATOM      3  C   UNL     1      32.050 -12.180 -20.846  0.00  0.00    +0.015 C 
ATOM      4  C   UNL     1      32.866 -14.238 -21.305  0.00  0.00    +0.065 C 
ATOM      5  C   UNL     1      32.288 -13.478 -20.315  0.00  0.00    +0.017 C 
ATOM      6  C   UNL     1      32.424 -11.068 -23.002  0.00  0.00    +0.030 C 
ATOM      7  C   UNL     1      31.495 -10.993 -20.329  0.00  0.00    +0.003 C 
ATOM      8  C   UNL     1      31.869  -9.902 -22.465  0.00  0.00    +0.053 C 
ATOM      9  C   UNL     1      31.412  -9.863 -21.150  0.00  0.00    +0.015 C 
ENDROOT
BRANCH   8  11
ATOM     10  O   UNL     1      32.855  -7.109 -21.982  0.00  0.00    -0.252 OA
ATOM     11  N   UNL     1      31.775  -8.760 -23.262  0.00  0.00    -0.268 N 
ATOM     12  N   UNL     1      31.959  -6.593 -24.050  0.00  0.00    -0.285 N 
ATOM     13  C   UNL     1      32.256  -7.462 -22.994  0.00  0.00    +0.305 C 
ATOM     14  H   UNL     1      31.314  -8.876 -24.124  0.00  0.00    +0.156 HD
ATOM     15  H   UNL     1      31.476  -6.950 -24.829  0.00  0.00    +0.151 HD
BRANCH  12  16
ATOM     16  C   UNL     1      32.332  -5.197 -24.050  0.00  0.00    +0.118 C 
BRANCH  16  17
ATOM     17  C   UNL     1      33.306  -4.876 -25.147  0.00  0.00    -0.003 C 
ATOM     18  C   UNL     1      33.015  -3.869 -26.065  0.00  0.00    -0.003 C 
ATOM     19  C   UNL     1      34.503  -5.585 -25.246  0.00  0.00    -0.003 C 
ATOM     20  C   UNL     1      33.920  -3.570 -27.084  0.00  0.00    -0.000 C 
ATOM     21  C   UNL     1      35.408  -5.287 -26.265  0.00  0.00    -0.000 C 
ATOM     22  C   UNL     1      35.116  -4.279 -27.184  0.00  0.00    -0.000 C 
ENDBRANCH  16  17
ENDBRANCH  12  16
ENDBRANCH   8  11
BRANCH   1  23
ATOM     23  C   UNL     1      33.556 -13.900 -23.674  0.00  0.00    +0.097 C 
BRANCH  23  24
ATOM     24  C   UNL     1      34.712 -14.899 -23.524  0.00  0.00    +0.040 C 
BRANCH  24  25
ATOM     25  C   UNL     1      34.626 -16.144 -24.437  0.00  0.00    +0.091 C 
BRANCH  25  26
ATOM     26  N   UNL     1      34.835 -17.414 -23.721  0.00  0.00    -0.246 NA
ATOM     27  N   UNL     1      34.835 -19.559 -23.148  0.00  0.00    -0.251 NA
ATOM     28  C   UNL     1      35.483 -17.582 -22.522  0.00  0.00    +0.125 C 
ATOM     29  C   UNL     1      34.458 -18.624 -24.070  0.00  0.00    +0.201 C 
ATOM     30  C   UNL     1      35.496 -18.905 -22.147  0.00  0.00    +0.124 C 
BRANCH  30  33
ATOM     31  O   UNL     1      37.149 -19.170 -20.478  0.00  0.00    -0.269 OA
ATOM     32  N   UNL     1      35.332 -20.541 -20.368  0.00  0.00    -0.324 N 
ATOM     33  C   UNL     1      36.056 -19.514 -20.987  0.00  0.00    +0.257 C 
ATOM     34  H   UNL     1      35.691 -20.982 -19.566  0.00  0.00    +0.145 HD
ATOM     35  H   UNL     1      34.463 -20.822 -20.737  0.00  0.00    +0.145 HD
ENDBRANCH  30  33
ENDBRANCH  25  26
BRANCH  25  36
ATOM     36  C   UNL     1      33.287 -16.168 -25.193  0.00  0.00    +0.153 C 
BRANCH  36  37
ATOM     37  O   UNL     1      33.515 -16.496 -26.559  0.00  0.00    -0.381 OA
ATOM     38  H   UNL     1      34.470 -16.525 -26.729  0.00  0.00    +0.210 HD
ENDBRANCH  36  37
ENDBRANCH  25  36
ENDBRANCH  24  25
ENDBRANCH  23  24
ENDBRANCH   1  23
TORSDOF 10
ENDMDL
