MODEL 1
REMARK VINA RESULT:     -11.8      0.000      0.000
REMARK  Name = 12087505
REMARK  3 active torsions:
REMARK  status: ('A' for Active; 'I' for Inactive)
REMARK    1  A    between atoms: C_1  and  S_18
REMARK    2  A    between atoms: C_4  and  N_9
REMARK    3  A    between atoms: S_18  and  N_21
REMARK                            x       y       z     vdW  Elec       q    Type
REMARK                         _______ _______ _______ _____ _____    ______ ____
ROOT
ATOM      1  C   UNL     1      35.126 -21.327 -19.911  0.00  0.00    +0.123 C 
ATOM      2  C   UNL     1      34.653 -20.403 -20.827  0.00  0.00    +0.035 C 
ATOM      3  C   UNL     1      36.459 -21.357 -19.539  0.00  0.00    +0.020 C 
ATOM      4  C   UNL     1      35.538 -19.482 -21.387  0.00  0.00    +0.053 C 
ATOM      5  C   UNL     1      37.346 -20.436 -20.098  0.00  0.00    +0.003 C 
ATOM      6  C   UNL     1      36.884 -19.498 -21.022  0.00  0.00    +0.015 C 
ENDROOT
BRANCH   4   9
ATOM      7  S   UNL     1      33.574 -14.869 -25.129  0.00  0.00    -0.051 S 
ATOM      8  O   UNL     1      35.283 -16.518 -21.156  0.00  0.00    -0.252 OA
ATOM      9  N   UNL     1      35.077 -18.543 -22.311  0.00  0.00    -0.268 N 
ATOM     10  N   UNL     1      34.453 -16.578 -23.347  0.00  0.00    -0.248 N 
ATOM     11  N   UNL     1      34.405 -14.242 -22.763  0.00  0.00    -0.222 NA
ATOM     12  C   UNL     1      34.969 -17.138 -22.168  0.00  0.00    +0.310 C 
ATOM     13  C   UNL     1      34.204 -15.225 -23.586  0.00  0.00    +0.167 C 
ATOM     14  C   UNL     1      33.552 -13.213 -24.685  0.00  0.00    +0.059 C 
ATOM     15  C   UNL     1      34.028 -13.074 -23.397  0.00  0.00    +0.108 C 
ATOM     16  H   UNL     1      34.786 -18.907 -23.179  0.00  0.00    +0.156 HD
ATOM     17  H   UNL     1      34.245 -17.203 -24.079  0.00  0.00    +0.158 HD
ENDBRANCH   4   9
BRANCH   1  18
ATOM     18  S   UNL     1      34.006 -22.495 -19.204  0.00  0.00    +0.063 S 
ATOM     19  O   UNL     1      32.710 -21.860 -19.100  0.00  0.00    -0.153 OA
ATOM     20  O   UNL     1      34.169 -23.750 -19.906  0.00  0.00    -0.153 OA
BRANCH  18  21
ATOM     21  N   UNL     1      34.681 -22.642 -17.636  0.00  0.00    -0.152 NA
ATOM     22  N   UNL     1      35.950 -23.448 -15.231  0.00  0.00    -0.290 N 
ATOM     23  C   UNL     1      34.023 -23.642 -16.748  0.00  0.00    +0.117 C 
ATOM     24  C   UNL     1      36.164 -22.779 -17.588  0.00  0.00    +0.117 C 
ATOM     25  C   UNL     1      34.483 -23.425 -15.309  0.00  0.00    +0.111 C 
ATOM     26  C   UNL     1      36.653 -22.554 -16.160  0.00  0.00    +0.111 C 
ATOM     27  N   UNL     1      35.882 -23.442 -12.836  0.00  0.00    -0.229 NA
ATOM     28  C   UNL     1      36.532 -23.760 -13.997  0.00  0.00    +0.132 C 
ATOM     29  C   UNL     1      37.779 -24.397 -13.989  0.00  0.00    +0.034 C 
ATOM     30  C   UNL     1      38.370 -24.714 -12.770  0.00  0.00    +0.004 C 
ATOM     31  C   UNL     1      36.486 -23.766 -11.671  0.00  0.00    +0.100 C 
ATOM     32  C   UNL     1      37.718 -24.396 -11.585  0.00  0.00    +0.021 C 
ENDBRANCH  18  21
ENDBRANCH   1  18
TORSDOF 3
ENDMDL
MODEL 2
REMARK VINA RESULT:     -11.2      7.190     15.120
REMARK  Name = 12087505
REMARK  3 active torsions:
REMARK  status: ('A' for Active; 'I' for Inactive)
REMARK    1  A    between atoms: C_1  and  S_18
REMARK    2  A    between atoms: C_4  and  N_9
REMARK    3  A    between atoms: S_18  and  N_21
REMARK                            x       y       z     vdW  Elec       q    Type
REMARK                         _______ _______ _______ _____ _____    ______ ____
ROOT
ATOM      1  C   UNL     1      32.846 -10.445 -22.780  0.00  0.00    +0.123 C 
ATOM      2  C   UNL     1      32.842 -11.790 -23.111  0.00  0.00    +0.035 C 
ATOM      3  C   UNL     1      33.705  -9.553 -23.399  0.00  0.00    +0.020 C 
ATOM      4  C   UNL     1      33.721 -12.255 -24.089  0.00  0.00    +0.053 C 
ATOM      5  C   UNL     1      34.584 -10.017 -24.379  0.00  0.00    +0.003 C 
ATOM      6  C   UNL     1      34.590 -11.369 -24.724  0.00  0.00    +0.015 C 
ENDROOT
BRANCH   4   9
ATOM      7  S   UNL     1      34.046 -18.412 -25.150  0.00  0.00    -0.051 S 
ATOM      8  O   UNL     1      34.885 -14.601 -22.660  0.00  0.00    -0.252 OA
ATOM      9  N   UNL     1      33.728 -13.607 -24.435  0.00  0.00    -0.268 N 
ATOM     10  N   UNL     1      34.069 -15.889 -24.440  0.00  0.00    -0.248 N 
ATOM     11  N   UNL     1      35.133 -17.493 -22.991  0.00  0.00    -0.222 NA
ATOM     12  C   UNL     1      34.292 -14.699 -23.730  0.00  0.00    +0.310 C 
ATOM     13  C   UNL     1      34.476 -17.171 -24.064  0.00  0.00    +0.167 C 
ATOM     14  C   UNL     1      34.811 -19.530 -24.098  0.00  0.00    +0.059 C 
ATOM     15  C   UNL     1      35.328 -18.860 -23.008  0.00  0.00    +0.108 C 
ATOM     16  H   UNL     1      33.282 -13.832 -25.284  0.00  0.00    +0.156 HD
ATOM     17  H   UNL     1      33.576 -15.812 -25.289  0.00  0.00    +0.158 HD
ENDBRANCH   4   9
BRANCH   1  18
ATOM     18  S   UNL     1      31.736  -9.856 -21.539  0.00  0.00    +0.063 S 
ATOM     19  O   UNL     1      30.509 -10.616 -21.646  0.00  0.00    -0.153 OA
ATOM     20  O   UNL     1      32.463  -9.782 -20.290  0.00  0.00    -0.153 OA
BRANCH  18  21
ATOM     21  N   UNL     1      31.460  -8.268 -22.118  0.00  0.00    -0.152 NA
ATOM     22  N   UNL     1      31.597  -5.658 -23.220  0.00  0.00    -0.290 N 
ATOM     23  C   UNL     1      32.173  -7.186 -21.381  0.00  0.00    +0.117 C 
ATOM     24  C   UNL     1      31.596  -8.090 -23.591  0.00  0.00    +0.117 C 
ATOM     25  C   UNL     1      31.578  -5.834 -21.762  0.00  0.00    +0.111 C 
ATOM     26  C   UNL     1      30.998  -6.747 -24.002  0.00  0.00    +0.111 C 
ATOM     27  N   UNL     1      30.939  -3.363 -23.013  0.00  0.00    -0.229 NA
ATOM     28  C   UNL     1      31.569  -4.351 -23.720  0.00  0.00    +0.132 C 
ATOM     29  C   UNL     1      32.195  -4.091 -24.945  0.00  0.00    +0.034 C 
ATOM     30  C   UNL     1      32.176  -2.798 -25.455  0.00  0.00    +0.004 C 
ATOM     31  C   UNL     1      30.942  -2.118 -23.539  0.00  0.00    +0.100 C 
ATOM     32  C   UNL     1      31.540  -1.786 -24.745  0.00  0.00    +0.021 C 
ENDBRANCH  18  21
ENDBRANCH   1  18
TORSDOF 3
ENDMDL
MODEL 3
REMARK VINA RESULT:     -11.2      2.888     11.211
REMARK  Name = 12087505
REMARK  3 active torsions:
REMARK  status: ('A' for Active; 'I' for Inactive)
REMARK    1  A    between atoms: C_1  and  S_18
REMARK    2  A    between atoms: C_4  and  N_9
REMARK    3  A    between atoms: S_18  and  N_21
REMARK                            x       y       z     vdW  Elec       q    Type
REMARK                         _______ _______ _______ _____ _____    ______ ____
ROOT
ATOM      1  C   UNL     1      34.624 -18.669 -23.654  0.00  0.00    +0.123 C 
ATOM      2  C   UNL     1      33.939 -19.428 -22.720  0.00  0.00    +0.035 C 
ATOM      3  C   UNL     1      35.931 -18.267 -23.439  0.00  0.00    +0.020 C 
ATOM      4  C   UNL     1      34.581 -19.798 -21.538  0.00  0.00    +0.053 C 
ATOM      5  C   UNL     1      36.574 -18.637 -22.257  0.00  0.00    +0.003 C 
ATOM      6  C   UNL     1      35.898 -19.403 -21.307  0.00  0.00    +0.015 C 
ENDROOT
BRANCH   4   9
ATOM      7  S   UNL     1      32.071 -23.374 -17.060  0.00  0.00    -0.051 S 
ATOM      8  O   UNL     1      35.642 -21.464 -19.302  0.00  0.00    -0.252 OA
ATOM      9  N   UNL     1      33.906 -20.564 -20.587  0.00  0.00    -0.268 N 
ATOM     10  N   UNL     1      33.403 -21.954 -18.815  0.00  0.00    -0.248 N 
ATOM     11  N   UNL     1      34.647 -23.172 -17.151  0.00  0.00    -0.222 NA
ATOM     12  C   UNL     1      34.443 -21.346 -19.535  0.00  0.00    +0.310 C 
ATOM     13  C   UNL     1      33.537 -22.798 -17.711  0.00  0.00    +0.167 C 
ATOM     14  C   UNL     1      32.984 -24.229 -15.888  0.00  0.00    +0.059 C 
ATOM     15  C   UNL     1      34.330 -24.002 -16.093  0.00  0.00    +0.108 C 
ATOM     16  H   UNL     1      32.923 -20.562 -20.658  0.00  0.00    +0.156 HD
ATOM     17  H   UNL     1      32.486 -21.766 -19.121  0.00  0.00    +0.158 HD
ENDBRANCH   4   9
BRANCH   1  18
ATOM     18  S   UNL     1      33.810 -18.199 -25.150  0.00  0.00    +0.063 S 
ATOM     19  O   UNL     1      34.754 -18.354 -26.235  0.00  0.00    -0.153 OA
ATOM     20  O   UNL     1      32.521 -18.855 -25.181  0.00  0.00    -0.153 OA
BRANCH  18  21
ATOM     21  N   UNL     1      33.577 -16.529 -24.848  0.00  0.00    -0.152 NA
ATOM     22  N   UNL     1      33.777 -13.719 -24.515  0.00  0.00    -0.290 N 
ATOM     23  C   UNL     1      34.359 -15.969 -23.709  0.00  0.00    +0.117 C 
ATOM     24  C   UNL     1      33.666 -15.643 -26.043  0.00  0.00    +0.117 C 
ATOM     25  C   UNL     1      33.805 -14.597 -23.337  0.00  0.00    +0.111 C 
ATOM     26  C   UNL     1      33.107 -14.265 -25.702  0.00  0.00    +0.111 C 
ATOM     27  N   UNL     1      33.220 -11.821 -23.162  0.00  0.00    -0.229 NA
ATOM     28  C   UNL     1      33.783 -12.337 -24.298  0.00  0.00    +0.132 C 
ATOM     29  C   UNL     1      34.374 -11.512 -25.264  0.00  0.00    +0.034 C 
ATOM     30  C   UNL     1      34.387 -10.136 -25.062  0.00  0.00    +0.004 C 
ATOM     31  C   UNL     1      33.253 -10.480 -23.000  0.00  0.00    +0.100 C 
ATOM     32  C   UNL     1      33.819  -9.602 -23.912  0.00  0.00    +0.021 C 
ENDBRANCH  18  21
ENDBRANCH   1  18
TORSDOF 3
ENDMDL
MODEL 4
REMARK VINA RESULT:     -10.2      3.795      7.143
REMARK  Name = 12087505
REMARK  3 active torsions:
REMARK  status: ('A' for Active; 'I' for Inactive)
REMARK    1  A    between atoms: C_1  and  S_18
REMARK    2  A    between atoms: C_4  and  N_9
REMARK    3  A    between atoms: S_18  and  N_21
REMARK                            x       y       z     vdW  Elec       q    Type
REMARK                         _______ _______ _______ _____ _____    ______ ____
ROOT
ATOM      1  C   UNL     1      37.265 -24.255 -13.734  0.00  0.00    +0.123 C 
ATOM      2  C   UNL     1      37.049 -23.372 -14.779  0.00  0.00    +0.035 C 
ATOM      3  C   UNL     1      38.351 -25.114 -13.728  0.00  0.00    +0.020 C 
ATOM      4  C   UNL     1      37.945 -23.346 -15.848  0.00  0.00    +0.053 C 
ATOM      5  C   UNL     1      39.248 -25.089 -14.796  0.00  0.00    +0.003 C 
ATOM      6  C   UNL     1      39.045 -24.204 -15.856  0.00  0.00    +0.015 C 
ENDROOT
BRANCH   4   9
ATOM      7  S   UNL     1      36.508 -19.606 -20.652  0.00  0.00    -0.051 S 
ATOM      8  O   UNL     1      35.560 -22.950 -17.595  0.00  0.00    -0.252 OA
ATOM      9  N   UNL     1      37.743 -22.462 -16.907  0.00  0.00    -0.268 N 
ATOM     10  N   UNL     1      36.821 -21.293 -18.671  0.00  0.00    -0.248 N 
ATOM     11  N   UNL     1      34.717 -21.287 -19.844  0.00  0.00    -0.222 NA
ATOM     12  C   UNL     1      36.593 -22.299 -17.719  0.00  0.00    +0.310 C 
ATOM     13  C   UNL     1      35.923 -20.850 -19.644  0.00  0.00    +0.167 C 
ATOM     14  C   UNL     1      35.000 -19.624 -21.467  0.00  0.00    +0.059 C 
ATOM     15  C   UNL     1      34.179 -20.578 -20.901  0.00  0.00    +0.108 C 
ATOM     16  H   UNL     1      38.502 -21.871 -17.121  0.00  0.00    +0.156 HD
ATOM     17  H   UNL     1      37.703 -20.856 -18.650  0.00  0.00    +0.158 HD
ENDBRANCH   4   9
BRANCH   1  18
ATOM     18  S   UNL     1      36.128 -24.290 -12.383  0.00  0.00    +0.063 S 
ATOM     19  O   UNL     1      36.096 -25.641 -11.866  0.00  0.00    -0.153 OA
ATOM     20  O   UNL     1      36.428 -23.167 -11.520  0.00  0.00    -0.153 OA
BRANCH  18  21
ATOM     21  N   UNL     1      34.665 -23.976 -13.217  0.00  0.00    -0.152 NA
ATOM     22  N   UNL     1      32.164 -24.061 -14.551  0.00  0.00    -0.290 N 
ATOM     23  C   UNL     1      34.572 -24.559 -14.586  0.00  0.00    +0.117 C 
ATOM     24  C   UNL     1      33.419 -24.231 -12.442  0.00  0.00    +0.117 C 
ATOM     25  C   UNL     1      33.402 -23.924 -15.330  0.00  0.00    +0.111 C 
ATOM     26  C   UNL     1      32.231 -23.596 -13.160  0.00  0.00    +0.111 C 
ATOM     27  N   UNL     1      30.848 -23.258 -16.386  0.00  0.00    -0.229 NA
ATOM     28  C   UNL     1      30.948 -24.003 -15.242  0.00  0.00    +0.132 C 
ATOM     29  C   UNL     1      29.857 -24.719 -14.735  0.00  0.00    +0.034 C 
ATOM     30  C   UNL     1      28.642 -24.670 -15.410  0.00  0.00    +0.004 C 
ATOM     31  C   UNL     1      29.652 -23.237 -17.016  0.00  0.00    +0.100 C 
ATOM     32  C   UNL     1      28.530 -23.919 -16.574  0.00  0.00    +0.021 C 
ENDBRANCH  18  21
ENDBRANCH   1  18
TORSDOF 3
ENDMDL
MODEL 5
REMARK VINA RESULT:      -9.6      3.988      6.421
REMARK  Name = 12087505
REMARK  3 active torsions:
REMARK  status: ('A' for Active; 'I' for Inactive)
REMARK    1  A    between atoms: C_1  and  S_18
REMARK    2  A    between atoms: C_4  and  N_9
REMARK    3  A    between atoms: S_18  and  N_21
REMARK                            x       y       z     vdW  Elec       q    Type
REMARK                         _______ _______ _______ _____ _____    ______ ____
ROOT
ATOM      1  C   UNL     1      30.864 -24.052 -14.577  0.00  0.00    +0.123 C 
ATOM      2  C   UNL     1      31.485 -23.319 -15.575  0.00  0.00    +0.035 C 
ATOM      3  C   UNL     1      29.629 -24.644 -14.779  0.00  0.00    +0.020 C 
ATOM      4  C   UNL     1      30.853 -23.175 -16.810  0.00  0.00    +0.053 C 
ATOM      5  C   UNL     1      28.996 -24.501 -16.015  0.00  0.00    +0.003 C 
ATOM      6  C   UNL     1      29.610 -23.767 -17.030  0.00  0.00    +0.015 C 
ENDROOT
BRANCH   4   9
ATOM      7  S   UNL     1      34.106 -20.104 -21.183  0.00  0.00    -0.051 S 
ATOM      8  O   UNL     1      33.731 -22.975 -17.572  0.00  0.00    -0.252 OA
ATOM      9  N   UNL     1      31.466 -22.442 -17.826  0.00  0.00    -0.268 N 
ATOM     10  N   UNL     1      33.019 -21.508 -19.255  0.00  0.00    -0.248 N 
ATOM     11  N   UNL     1      35.408 -21.620 -19.543  0.00  0.00    -0.222 NA
ATOM     12  C   UNL     1      32.841 -22.369 -18.161  0.00  0.00    +0.310 C 
ATOM     13  C   UNL     1      34.230 -21.184 -19.870  0.00  0.00    +0.167 C 
ATOM     14  C   UNL     1      35.808 -20.204 -21.363  0.00  0.00    +0.059 C 
ATOM     15  C   UNL     1      36.325 -21.053 -20.407  0.00  0.00    +0.108 C 
ATOM     16  H   UNL     1      30.862 -21.900 -18.385  0.00  0.00    +0.156 HD
ATOM     17  H   UNL     1      32.208 -21.090 -19.626  0.00  0.00    +0.158 HD
ENDBRANCH   4   9
BRANCH   1  18
ATOM     18  S   UNL     1      31.662 -24.231 -13.012  0.00  0.00    +0.063 S 
ATOM     19  O   UNL     1      31.474 -23.000 -12.275  0.00  0.00    -0.153 OA
ATOM     20  O   UNL     1      31.264 -25.505 -12.452  0.00  0.00    -0.153 OA
BRANCH  18  21
ATOM     21  N   UNL     1      33.294 -24.332 -13.521  0.00  0.00    -0.152 NA
ATOM     22  N   UNL     1      35.992 -25.027 -14.055  0.00  0.00    -0.290 N 
ATOM     23  C   UNL     1      34.310 -24.260 -12.433  0.00  0.00    +0.117 C 
ATOM     24  C   UNL     1      33.603 -25.442 -14.466  0.00  0.00    +0.117 C 
ATOM     25  C   UNL     1      35.688 -24.011 -13.038  0.00  0.00    +0.111 C 
ATOM     26  C   UNL     1      34.974 -25.212 -15.096  0.00  0.00    +0.111 C 
ATOM     27  N   UNL     1      38.256 -24.263 -14.228  0.00  0.00    -0.229 NA
ATOM     28  C   UNL     1      37.338 -25.269 -14.352  0.00  0.00    +0.132 C 
ATOM     29  C   UNL     1      37.708 -26.553 -14.774  0.00  0.00    +0.034 C 
ATOM     30  C   UNL     1      39.042 -26.809 -15.073  0.00  0.00    +0.004 C 
ATOM     31  C   UNL     1      39.543 -24.549 -14.526  0.00  0.00    +0.100 C 
ATOM     32  C   UNL     1      39.983 -25.794 -14.949  0.00  0.00    +0.021 C 
ENDBRANCH  18  21
ENDBRANCH   1  18
TORSDOF 3
ENDMDL
MODEL 6
REMARK VINA RESULT:      -9.2      6.002      9.887
REMARK  Name = 12087505
REMARK  3 active torsions:
REMARK  status: ('A' for Active; 'I' for Inactive)
REMARK    1  A    between atoms: C_1  and  S_18
REMARK    2  A    between atoms: C_4  and  N_9
REMARK    3  A    between atoms: S_18  and  N_21
REMARK                            x       y       z     vdW  Elec       q    Type
REMARK                         _______ _______ _______ _____ _____    ______ ____
ROOT
ATOM      1  C   UNL     1      32.826 -12.601 -23.037  0.00  0.00    +0.123 C 
ATOM      2  C   UNL     1      32.526 -11.249 -22.987  0.00  0.00    +0.035 C 
ATOM      3  C   UNL     1      32.485 -13.454 -22.002  0.00  0.00    +0.020 C 
ATOM      4  C   UNL     1      31.867 -10.737 -21.869  0.00  0.00    +0.053 C 
ATOM      5  C   UNL     1      31.824 -12.943 -20.884  0.00  0.00    +0.003 C 
ATOM      6  C   UNL     1      31.515 -11.584 -20.819  0.00  0.00    +0.015 C 
ENDROOT
BRANCH   4   9
ATOM      7  S   UNL     1      30.758  -4.584 -22.077  0.00  0.00    -0.051 S 
ATOM      8  O   UNL     1      32.515  -8.522 -23.760  0.00  0.00    -0.252 OA
ATOM      9  N   UNL     1      31.557  -9.379 -21.803  0.00  0.00    -0.268 N 
ATOM     10  N   UNL     1      31.373  -7.125 -22.264  0.00  0.00    -0.248 N 
ATOM     11  N   UNL     1      32.092  -5.643 -24.022  0.00  0.00    -0.222 NA
ATOM     12  C   UNL     1      31.882  -8.350 -22.722  0.00  0.00    +0.310 C 
ATOM     13  C   UNL     1      31.492  -5.886 -22.897  0.00  0.00    +0.167 C 
ATOM     14  C   UNL     1      31.283  -3.554 -23.343  0.00  0.00    +0.059 C 
ATOM     15  C   UNL     1      31.973  -4.292 -24.284  0.00  0.00    +0.108 C 
ATOM     16  H   UNL     1      31.045  -9.096 -21.011  0.00  0.00    +0.156 HD
ATOM     17  H   UNL     1      30.884  -7.141 -21.410  0.00  0.00    +0.158 HD
ENDBRANCH   4   9
BRANCH   1  18
ATOM     18  S   UNL     1      33.664 -13.248 -24.451  0.00  0.00    +0.063 S 
ATOM     19  O   UNL     1      32.662 -13.643 -25.417  0.00  0.00    -0.153 OA
ATOM     20  O   UNL     1      34.720 -12.324 -24.804  0.00  0.00    -0.153 OA
BRANCH  18  21
ATOM     21  N   UNL     1      34.361 -14.654 -23.764  0.00  0.00    -0.152 NA
ATOM     22  N   UNL     1      34.943 -17.095 -22.443  0.00  0.00    -0.290 N 
ATOM     23  C   UNL     1      34.339 -14.717 -22.275  0.00  0.00    +0.117 C 
ATOM     24  C   UNL     1      33.917 -15.945 -24.359  0.00  0.00    +0.117 C 
ATOM     25  C   UNL     1      35.280 -15.819 -21.798  0.00  0.00    +0.111 C 
ATOM     26  C   UNL     1      34.849 -17.066 -23.907  0.00  0.00    +0.111 C 
ATOM     27  N   UNL     1      36.457 -18.284 -21.015  0.00  0.00    -0.229 NA
ATOM     28  C   UNL     1      35.334 -18.274 -21.797  0.00  0.00    +0.132 C 
ATOM     29  C   UNL     1      34.553 -19.423 -21.976  0.00  0.00    +0.034 C 
ATOM     30  C   UNL     1      34.929 -20.602 -21.341  0.00  0.00    +0.004 C 
ATOM     31  C   UNL     1      36.790 -19.448 -20.414  0.00  0.00    +0.100 C 
ATOM     32  C   UNL     1      36.066 -20.624 -20.543  0.00  0.00    +0.021 C 
ENDBRANCH  18  21
ENDBRANCH   1  18
TORSDOF 3
ENDMDL
MODEL 7
REMARK VINA RESULT:      -8.9     11.131     14.737
REMARK  Name = 12087505
REMARK  3 active torsions:
REMARK  status: ('A' for Active; 'I' for Inactive)
REMARK    1  A    between atoms: C_1  and  S_18
REMARK    2  A    between atoms: C_4  and  N_9
REMARK    3  A    between atoms: S_18  and  N_21
REMARK                            x       y       z     vdW  Elec       q    Type
REMARK                         _______ _______ _______ _____ _____    ______ ____
ROOT
ATOM      1  C   UNL     1      32.059  -6.299 -21.867  0.00  0.00    +0.123 C 
ATOM      2  C   UNL     1      32.593  -6.024 -23.115  0.00  0.00    +0.035 C 
ATOM      3  C   UNL     1      30.971  -5.596 -21.377  0.00  0.00    +0.020 C 
ATOM      4  C   UNL     1      32.021  -5.019 -23.896  0.00  0.00    +0.053 C 
ATOM      5  C   UNL     1      30.398  -4.591 -22.158  0.00  0.00    +0.003 C 
ATOM      6  C   UNL     1      30.924  -4.304 -23.418  0.00  0.00    +0.015 C 
ENDROOT
BRANCH   4   9
ATOM      7  S   UNL     1      34.879  -3.940 -29.355  0.00  0.00    -0.051 S 
ATOM      8  O   UNL     1      34.768  -5.448 -24.980  0.00  0.00    -0.252 OA
ATOM      9  N   UNL     1      32.547  -4.731 -25.156  0.00  0.00    -0.268 N 
ATOM     10  N   UNL     1      33.957  -4.508 -26.969  0.00  0.00    -0.248 N 
ATOM     11  N   UNL     1      36.261  -5.017 -27.454  0.00  0.00    -0.222 NA
ATOM     12  C   UNL     1      33.861  -4.948 -25.639  0.00  0.00    +0.310 C 
ATOM     13  C   UNL     1      35.092  -4.557 -27.781  0.00  0.00    +0.167 C 
ATOM     14  C   UNL     1      36.523  -4.314 -29.671  0.00  0.00    +0.059 C 
ATOM     15  C   UNL     1      37.093  -4.878 -28.548  0.00  0.00    +0.108 C 
ATOM     16  H   UNL     1      31.920  -4.319 -25.795  0.00  0.00    +0.156 HD
ATOM     17  H   UNL     1      33.142  -4.127 -27.368  0.00  0.00    +0.158 HD
ENDBRANCH   4   9
BRANCH   1  18
ATOM     18  S   UNL     1      32.784  -7.569 -20.878  0.00  0.00    +0.063 S 
ATOM     19  O   UNL     1      34.166  -7.213 -20.642  0.00  0.00    -0.153 OA
ATOM     20  O   UNL     1      31.885  -7.844 -19.777  0.00  0.00    -0.153 OA
BRANCH  18  21
ATOM     21  N   UNL     1      32.725  -8.876 -21.984  0.00  0.00    -0.152 NA
ATOM     22  N   UNL     1      33.090 -11.258 -23.479  0.00  0.00    -0.290 N 
ATOM     23  C   UNL     1      33.924  -9.030 -22.855  0.00  0.00    +0.117 C 
ATOM     24  C   UNL     1      32.312 -10.186 -21.406  0.00  0.00    +0.117 C 
ATOM     25  C   UNL     1      33.601  -9.984 -24.001  0.00  0.00    +0.111 C 
ATOM     26  C   UNL     1      31.972 -11.158 -22.533  0.00  0.00    +0.111 C 
ATOM     27  N   UNL     1      33.187 -12.258 -25.654  0.00  0.00    -0.229 NA
ATOM     28  C   UNL     1      33.208 -12.391 -24.293  0.00  0.00    +0.132 C 
ATOM     29  C   UNL     1      33.346 -13.643 -23.679  0.00  0.00    +0.034 C 
ATOM     30  C   UNL     1      33.464 -14.777 -24.475  0.00  0.00    +0.004 C 
ATOM     31  C   UNL     1      33.306 -13.383 -26.395  0.00  0.00    +0.100 C 
ATOM     32  C   UNL     1      33.445 -14.654 -25.859  0.00  0.00    +0.021 C 
ENDBRANCH  18  21
ENDBRANCH   1  18
TORSDOF 3
ENDMDL
