MODEL 1
REMARK VINA RESULT:     -11.1      0.000      0.000
REMARK  Name = 449087
REMARK  3 active torsions:
REMARK  status: ('A' for Active; 'I' for Inactive)
REMARK    1  A    between atoms: C_5  and  C_11
REMARK    2  A    between atoms: C_8  and  C_14
REMARK    3  A    between atoms: C_14  and  C_15
REMARK                            x       y       z     vdW  Elec       q    Type
REMARK                         _______ _______ _______ _____ _____    ______ ____
ROOT
ATOM      1  O   UNL     1      35.312 -16.993 -21.679  0.00  0.00    -0.274 OA
ATOM      2  N   UNL     1      33.639 -15.710 -26.083  0.00  0.00    -0.239 N 
ATOM      3  N   UNL     1      34.175 -16.916 -25.829  0.00  0.00    -0.166 NA
ATOM      4  N   UNL     1      35.078 -17.882 -23.841  0.00  0.00    -0.268 N 
ATOM      5  C   UNL     1      33.609 -14.882 -25.000  0.00  0.00    +0.045 C 
ATOM      6  C   UNL     1      34.160 -15.595 -23.964  0.00  0.00    +0.048 C 
ATOM      7  C   UNL     1      34.483 -16.826 -24.543  0.00  0.00    +0.152 C 
ATOM      8  C   UNL     1      35.443 -17.897 -22.497  0.00  0.00    +0.232 C 
ATOM      9  H   UNL     1      33.301 -15.448 -26.969  0.00  0.00    +0.174 HD
ATOM     10  H   UNL     1      35.258 -18.703 -24.354  0.00  0.00    +0.156 HD
ENDROOT
BRANCH   5  11
ATOM     11  C   UNL     1      33.068 -13.459 -24.956  0.00  0.00    +0.037 C 
ATOM     12  C   UNL     1      34.010 -12.323 -24.644  0.00  0.00    +0.006 C 
ATOM     13  C   UNL     1      33.470 -12.485 -26.035  0.00  0.00    +0.006 C 
ENDBRANCH   5  11
BRANCH   8  14
ATOM     14  C   UNL     1      36.061 -19.241 -22.118  0.00  0.00    +0.112 C 
BRANCH  14  15
ATOM     15  C   UNL     1      35.218 -20.056 -21.195  0.00  0.00    -0.013 C 
ATOM     16  C   UNL     1      35.039 -21.583 -19.310  0.00  0.00    -0.000 C 
ATOM     17  C   UNL     1      35.818 -20.811 -20.187  0.00  0.00    -0.004 C 
ATOM     18  C   UNL     1      33.632 -21.588 -19.456  0.00  0.00    -0.000 C 
ATOM     19  C   UNL     1      33.834 -20.060 -21.338  0.00  0.00    -0.004 C 
ATOM     20  C   UNL     1      33.045 -20.821 -20.476  0.00  0.00    -0.000 C 
ATOM     21  C   UNL     1      35.627 -22.350 -18.291  0.00  0.00    -0.000 C 
ATOM     22  C   UNL     1      32.852 -22.360 -18.579  0.00  0.00    -0.000 C 
ATOM     23  C   UNL     1      34.837 -23.112 -17.428  0.00  0.00    -0.000 C 
ATOM     24  C   UNL     1      33.453 -23.116 -17.572  0.00  0.00    -0.000 C 
ENDBRANCH  14  15
ENDBRANCH   8  14
TORSDOF 3
ENDMDL
MODEL 2
REMARK VINA RESULT:     -11.0      3.721      8.869
REMARK  Name = 449087
REMARK  3 active torsions:
REMARK  status: ('A' for Active; 'I' for Inactive)
REMARK    1  A    between atoms: C_5  and  C_11
REMARK    2  A    between atoms: C_8  and  C_14
REMARK    3  A    between atoms: C_14  and  C_15
REMARK                            x       y       z     vdW  Elec       q    Type
REMARK                         _______ _______ _______ _____ _____    ______ ____
ROOT
ATOM      1  O   UNL     1      33.626 -21.158 -20.184  0.00  0.00    -0.274 OA
ATOM      2  N   UNL     1      33.870 -23.902 -16.153  0.00  0.00    -0.239 N 
ATOM      3  N   UNL     1      34.961 -23.453 -16.797  0.00  0.00    -0.166 NA
ATOM      4  N   UNL     1      35.227 -22.115 -18.756  0.00  0.00    -0.268 N 
ATOM      5  C   UNL     1      32.694 -23.522 -16.730  0.00  0.00    +0.045 C 
ATOM      6  C   UNL     1      33.038 -22.770 -17.826  0.00  0.00    +0.048 C 
ATOM      7  C   UNL     1      34.435 -22.771 -17.806  0.00  0.00    +0.152 C 
ATOM      8  C   UNL     1      34.785 -21.374 -19.849  0.00  0.00    +0.232 C 
ATOM      9  H   UNL     1      33.916 -24.456 -15.340  0.00  0.00    +0.174 HD
ATOM     10  H   UNL     1      36.202 -22.184 -18.638  0.00  0.00    +0.156 HD
ENDROOT
BRANCH   5  11
ATOM     11  C   UNL     1      31.290 -23.863 -16.248  0.00  0.00    +0.037 C 
ATOM     12  C   UNL     1      30.706 -23.100 -15.085  0.00  0.00    +0.006 C 
ATOM     13  C   UNL     1      30.175 -22.873 -16.470  0.00  0.00    +0.006 C 
ENDBRANCH   5  11
BRANCH   8  14
ATOM     14  C   UNL     1      35.967 -20.818 -20.641  0.00  0.00    +0.112 C 
BRANCH  14  15
ATOM     15  C   UNL     1      35.629 -19.633 -21.482  0.00  0.00    -0.013 C 
ATOM     16  C   UNL     1      34.732 -18.707 -23.544  0.00  0.00    -0.000 C 
ATOM     17  C   UNL     1      35.056 -19.812 -22.741  0.00  0.00    -0.004 C 
ATOM     18  C   UNL     1      34.991 -17.402 -23.063  0.00  0.00    -0.000 C 
ATOM     19  C   UNL     1      35.883 -18.349 -21.008  0.00  0.00    -0.004 C 
ATOM     20  C   UNL     1      35.567 -17.240 -21.793  0.00  0.00    -0.000 C 
ATOM     21  C   UNL     1      34.156 -18.869 -24.815  0.00  0.00    -0.000 C 
ATOM     22  C   UNL     1      34.666 -16.296 -23.867  0.00  0.00    -0.000 C 
ATOM     23  C   UNL     1      33.840 -17.759 -25.600  0.00  0.00    -0.000 C 
ATOM     24  C   UNL     1      34.095 -16.476 -25.127  0.00  0.00    -0.000 C 
ENDBRANCH  14  15
ENDBRANCH   8  14
TORSDOF 3
ENDMDL
MODEL 3
REMARK VINA RESULT:     -10.9      2.050      2.881
REMARK  Name = 449087
REMARK  3 active torsions:
REMARK  status: ('A' for Active; 'I' for Inactive)
REMARK    1  A    between atoms: C_5  and  C_11
REMARK    2  A    between atoms: C_8  and  C_14
REMARK    3  A    between atoms: C_14  and  C_15
REMARK                            x       y       z     vdW  Elec       q    Type
REMARK                         _______ _______ _______ _____ _____    ______ ____
ROOT
ATOM      1  O   UNL     1      35.219 -16.205 -21.239  0.00  0.00    -0.274 OA
ATOM      2  N   UNL     1      32.861 -13.051 -24.125  0.00  0.00    -0.239 N 
ATOM      3  N   UNL     1      33.434 -14.175 -24.587  0.00  0.00    -0.166 NA
ATOM      4  N   UNL     1      34.646 -15.920 -23.499  0.00  0.00    -0.268 N 
ATOM      5  C   UNL     1      33.001 -12.874 -22.779  0.00  0.00    +0.045 C 
ATOM      6  C   UNL     1      33.713 -13.959 -22.330  0.00  0.00    +0.048 C 
ATOM      7  C   UNL     1      33.943 -14.709 -23.486  0.00  0.00    +0.152 C 
ATOM      8  C   UNL     1      35.220 -16.570 -22.409  0.00  0.00    +0.232 C 
ATOM      9  H   UNL     1      32.385 -12.413 -24.703  0.00  0.00    +0.174 HD
ATOM     10  H   UNL     1      34.744 -16.361 -24.374  0.00  0.00    +0.156 HD
ENDROOT
BRANCH   5  11
ATOM     11  C   UNL     1      32.470 -11.711 -21.953  0.00  0.00    +0.037 C 
ATOM     12  C   UNL     1      30.991 -11.628 -21.664  0.00  0.00    +0.006 C 
ATOM     13  C   UNL     1      31.950 -11.973 -20.562  0.00  0.00    +0.006 C 
ENDBRANCH   5  11
BRANCH   8  14
ATOM     14  C   UNL     1      35.894 -17.868 -22.846  0.00  0.00    +0.112 C 
BRANCH  14  15
ATOM     15  C   UNL     1      35.849 -18.949 -21.818  0.00  0.00    -0.013 C 
ATOM     16  C   UNL     1      34.572 -20.553 -20.510  0.00  0.00    -0.000 C 
ATOM     17  C   UNL     1      34.631 -19.535 -21.476  0.00  0.00    -0.004 C 
ATOM     18  C   UNL     1      35.766 -20.985 -19.885  0.00  0.00    -0.000 C 
ATOM     19  C   UNL     1      37.024 -19.373 -21.203  0.00  0.00    -0.004 C 
ATOM     20  C   UNL     1      36.984 -20.384 -20.243  0.00  0.00    -0.000 C 
ATOM     21  C   UNL     1      33.353 -21.154 -20.152  0.00  0.00    -0.000 C 
ATOM     22  C   UNL     1      35.706 -22.004 -18.920  0.00  0.00    -0.000 C 
ATOM     23  C   UNL     1      33.313 -22.164 -19.191  0.00  0.00    -0.000 C 
ATOM     24  C   UNL     1      34.487 -22.589 -18.576  0.00  0.00    -0.000 C 
ENDBRANCH  14  15
ENDBRANCH   8  14
TORSDOF 3
ENDMDL
MODEL 4
REMARK VINA RESULT:     -10.8      1.521      1.666
REMARK  Name = 449087
REMARK  3 active torsions:
REMARK  status: ('A' for Active; 'I' for Inactive)
REMARK    1  A    between atoms: C_5  and  C_11
REMARK    2  A    between atoms: C_8  and  C_14
REMARK    3  A    between atoms: C_14  and  C_15
REMARK                            x       y       z     vdW  Elec       q    Type
REMARK                         _______ _______ _______ _____ _____    ______ ____
ROOT
ATOM      1  O   UNL     1      34.897 -18.068 -24.360  0.00  0.00    -0.274 OA
ATOM      2  N   UNL     1      34.206 -13.486 -22.821  0.00  0.00    -0.239 N 
ATOM      3  N   UNL     1      34.864 -14.408 -22.097  0.00  0.00    -0.166 NA
ATOM      4  N   UNL     1      35.388 -16.699 -22.515  0.00  0.00    -0.268 N 
ATOM      5  C   UNL     1      33.750 -13.950 -24.020  0.00  0.00    +0.045 C 
ATOM      6  C   UNL     1      34.139 -15.266 -24.086  0.00  0.00    +0.048 C 
ATOM      7  C   UNL     1      34.812 -15.476 -22.880  0.00  0.00    +0.152 C 
ATOM      8  C   UNL     1      35.393 -17.879 -23.254  0.00  0.00    +0.232 C 
ATOM      9  H   UNL     1      34.065 -12.562 -22.514  0.00  0.00    +0.174 HD
ATOM     10  H   UNL     1      35.839 -16.728 -21.640  0.00  0.00    +0.156 HD
ENDROOT
BRANCH   5  11
ATOM     11  C   UNL     1      32.974 -13.162 -25.066  0.00  0.00    +0.037 C 
ATOM     12  C   UNL     1      33.670 -12.057 -25.822  0.00  0.00    +0.006 C 
ATOM     13  C   UNL     1      33.318 -13.336 -26.524  0.00  0.00    +0.006 C 
ENDBRANCH   5  11
BRANCH   8  14
ATOM     14  C   UNL     1      36.129 -18.986 -22.503  0.00  0.00    +0.112 C 
BRANCH  14  15
ATOM     15  C   UNL     1      35.257 -19.778 -21.586  0.00  0.00    -0.013 C 
ATOM     16  C   UNL     1      35.025 -21.337 -19.735  0.00  0.00    -0.000 C 
ATOM     17  C   UNL     1      35.831 -20.586 -20.605  0.00  0.00    -0.004 C 
ATOM     18  C   UNL     1      33.617 -21.266 -19.859  0.00  0.00    -0.000 C 
ATOM     19  C   UNL     1      33.873 -19.707 -21.709  0.00  0.00    -0.004 C 
ATOM     20  C   UNL     1      33.057 -20.446 -20.852  0.00  0.00    -0.000 C 
ATOM     21  C   UNL     1      35.586 -22.158 -18.742  0.00  0.00    -0.000 C 
ATOM     22  C   UNL     1      32.811 -22.017 -18.988  0.00  0.00    -0.000 C 
ATOM     23  C   UNL     1      34.769 -22.897 -17.885  0.00  0.00    -0.000 C 
ATOM     24  C   UNL     1      33.385 -22.827 -18.008  0.00  0.00    -0.000 C 
ENDBRANCH  14  15
ENDBRANCH   8  14
TORSDOF 3
ENDMDL
MODEL 5
REMARK VINA RESULT:     -10.8      1.373      2.024
REMARK  Name = 449087
REMARK  3 active torsions:
REMARK  status: ('A' for Active; 'I' for Inactive)
REMARK    1  A    between atoms: C_5  and  C_11
REMARK    2  A    between atoms: C_8  and  C_14
REMARK    3  A    between atoms: C_14  and  C_15
REMARK                            x       y       z     vdW  Elec       q    Type
REMARK                         _______ _______ _______ _____ _____    ______ ____
ROOT
ATOM      1  O   UNL     1      36.287 -18.230 -20.349  0.00  0.00    -0.274 OA
ATOM      2  N   UNL     1      34.477 -16.511 -24.546  0.00  0.00    -0.239 N 
ATOM      3  N   UNL     1      34.833 -17.796 -24.377  0.00  0.00    -0.166 NA
ATOM      4  N   UNL     1      35.735 -18.976 -22.508  0.00  0.00    -0.268 N 
ATOM      5  C   UNL     1      34.669 -15.736 -23.440  0.00  0.00    +0.045 C 
ATOM      6  C   UNL     1      35.185 -16.572 -22.480  0.00  0.00    +0.048 C 
ATOM      7  C   UNL     1      35.259 -17.811 -23.121  0.00  0.00    +0.152 C 
ATOM      8  C   UNL     1      36.203 -19.107 -21.203  0.00  0.00    +0.232 C 
ATOM      9  H   UNL     1      34.112 -16.162 -25.390  0.00  0.00    +0.174 HD
ATOM     10  H   UNL     1      35.738 -19.792 -23.059  0.00  0.00    +0.156 HD
ENDROOT
BRANCH   5  11
ATOM     11  C   UNL     1      34.367 -14.250 -23.305  0.00  0.00    +0.037 C 
ATOM     12  C   UNL     1      33.032 -13.725 -23.773  0.00  0.00    +0.006 C 
ATOM     13  C   UNL     1      33.335 -13.796 -22.304  0.00  0.00    +0.006 C 
ENDBRANCH   5  11
BRANCH   8  14
ATOM     14  C   UNL     1      36.629 -20.546 -20.921  0.00  0.00    +0.112 C 
BRANCH  14  15
ATOM     15  C   UNL     1      35.751 -21.257 -19.947  0.00  0.00    -0.013 C 
ATOM     16  C   UNL     1      35.469 -22.408 -17.823  0.00  0.00    -0.000 C 
ATOM     17  C   UNL     1      36.283 -21.737 -18.750  0.00  0.00    -0.004 C 
ATOM     18  C   UNL     1      34.097 -22.594 -18.113  0.00  0.00    -0.000 C 
ATOM     19  C   UNL     1      34.401 -21.440 -20.232  0.00  0.00    -0.004 C 
ATOM     20  C   UNL     1      33.578 -22.104 -19.323  0.00  0.00    -0.000 C 
ATOM     21  C   UNL     1      35.988 -22.899 -16.613  0.00  0.00    -0.000 C 
ATOM     22  C   UNL     1      33.283 -23.266 -17.185  0.00  0.00    -0.000 C 
ATOM     23  C   UNL     1      35.165 -23.564 -15.703  0.00  0.00    -0.000 C 
ATOM     24  C   UNL     1      33.816 -23.747 -15.989  0.00  0.00    -0.000 C 
ENDBRANCH  14  15
ENDBRANCH   8  14
TORSDOF 3
ENDMDL
MODEL 6
REMARK VINA RESULT:     -10.7      2.730      8.652
REMARK  Name = 449087
REMARK  3 active torsions:
REMARK  status: ('A' for Active; 'I' for Inactive)
REMARK    1  A    between atoms: C_5  and  C_11
REMARK    2  A    between atoms: C_8  and  C_14
REMARK    3  A    between atoms: C_14  and  C_15
REMARK                            x       y       z     vdW  Elec       q    Type
REMARK                         _______ _______ _______ _____ _____    ______ ____
ROOT
ATOM      1  O   UNL     1      34.332 -20.001 -21.536  0.00  0.00    -0.274 OA
ATOM      2  N   UNL     1      35.800 -22.641 -17.701  0.00  0.00    -0.239 N 
ATOM      3  N   UNL     1      36.608 -21.787 -18.351  0.00  0.00    -0.166 NA
ATOM      4  N   UNL     1      36.250 -20.356 -20.228  0.00  0.00    -0.268 N 
ATOM      5  C   UNL     1      34.536 -22.701 -18.212  0.00  0.00    +0.045 C 
ATOM      6  C   UNL     1      34.516 -21.824 -19.268  0.00  0.00    +0.048 C 
ATOM      7  C   UNL     1      35.813 -21.305 -19.295  0.00  0.00    +0.152 C 
ATOM      8  C   UNL     1      35.505 -19.783 -21.256  0.00  0.00    +0.232 C 
ATOM      9  H   UNL     1      36.092 -23.175 -16.927  0.00  0.00    +0.174 HD
ATOM     10  H   UNL     1      37.186 -20.061 -20.148  0.00  0.00    +0.156 HD
ENDROOT
BRANCH   5  11
ATOM     11  C   UNL     1      33.389 -23.564 -17.705  0.00  0.00    +0.037 C 
ATOM     12  C   UNL     1      33.033 -23.529 -16.239  0.00  0.00    +0.006 C 
ATOM     13  C   UNL     1      32.115 -22.899 -17.246  0.00  0.00    +0.006 C 
ENDBRANCH   5  11
BRANCH   8  14
ATOM     14  C   UNL     1      36.351 -18.790 -22.050  0.00  0.00    +0.112 C 
BRANCH  14  15
ATOM     15  C   UNL     1      35.560 -17.923 -22.972  0.00  0.00    -0.013 C 
ATOM     16  C   UNL     1      34.583 -15.760 -23.500  0.00  0.00    -0.000 C 
ATOM     17  C   UNL     1      35.325 -16.588 -22.643  0.00  0.00    -0.004 C 
ATOM     18  C   UNL     1      34.074 -16.292 -24.709  0.00  0.00    -0.000 C 
ATOM     19  C   UNL     1      35.060 -18.447 -24.160  0.00  0.00    -0.004 C 
ATOM     20  C   UNL     1      34.321 -17.638 -25.023  0.00  0.00    -0.000 C 
ATOM     21  C   UNL     1      34.335 -14.414 -23.185  0.00  0.00    -0.000 C 
ATOM     22  C   UNL     1      33.332 -15.463 -25.566  0.00  0.00    -0.000 C 
ATOM     23  C   UNL     1      33.596 -13.604 -24.048  0.00  0.00    -0.000 C 
ATOM     24  C   UNL     1      33.095 -14.128 -25.237  0.00  0.00    -0.000 C 
ENDBRANCH  14  15
ENDBRANCH   8  14
TORSDOF 3
ENDMDL
MODEL 7
REMARK VINA RESULT:     -10.4      5.576     10.330
REMARK  Name = 449087
REMARK  3 active torsions:
REMARK  status: ('A' for Active; 'I' for Inactive)
REMARK    1  A    between atoms: C_5  and  C_11
REMARK    2  A    between atoms: C_8  and  C_14
REMARK    3  A    between atoms: C_14  and  C_15
REMARK                            x       y       z     vdW  Elec       q    Type
REMARK                         _______ _______ _______ _____ _____    ______ ____
ROOT
ATOM      1  O   UNL     1      35.669 -22.815 -17.020  0.00  0.00    -0.274 OA
ATOM      2  N   UNL     1      34.162 -24.714 -12.782  0.00  0.00    -0.239 N 
ATOM      3  N   UNL     1      33.419 -24.747 -13.902  0.00  0.00    -0.166 NA
ATOM      4  N   UNL     1      33.817 -23.939 -16.113  0.00  0.00    -0.268 N 
ATOM      5  C   UNL     1      35.370 -24.101 -12.941  0.00  0.00    +0.045 C 
ATOM      6  C   UNL     1      35.423 -23.708 -14.255  0.00  0.00    +0.048 C 
ATOM      7  C   UNL     1      34.200 -24.133 -14.780  0.00  0.00    +0.152 C 
ATOM      8  C   UNL     1      34.553 -23.312 -17.116  0.00  0.00    +0.232 C 
ATOM      9  H   UNL     1      33.861 -25.096 -11.927  0.00  0.00    +0.174 HD
ATOM     10  H   UNL     1      32.931 -24.284 -16.370  0.00  0.00    +0.156 HD
ENDROOT
BRANCH   5  11
ATOM     11  C   UNL     1      36.438 -23.902 -11.873  0.00  0.00    +0.037 C 
ATOM     12  C   UNL     1      37.714 -24.704 -11.950  0.00  0.00    +0.006 C 
ATOM     13  C   UNL     1      37.736 -23.233 -12.247  0.00  0.00    +0.006 C 
ENDBRANCH   5  11
BRANCH   8  14
ATOM     14  C   UNL     1      33.780 -23.308 -18.433  0.00  0.00    +0.112 C 
BRANCH  14  15
ATOM     15  C   UNL     1      34.098 -22.149 -19.317  0.00  0.00    -0.013 C 
ATOM     16  C   UNL     1      35.739 -20.667 -20.331  0.00  0.00    -0.000 C 
ATOM     17  C   UNL     1      35.424 -21.756 -19.501  0.00  0.00    -0.004 C 
ATOM     18  C   UNL     1      34.696 -19.969 -20.983  0.00  0.00    -0.000 C 
ATOM     19  C   UNL     1      33.072 -21.462 -19.959  0.00  0.00    -0.004 C 
ATOM     20  C   UNL     1      33.367 -20.379 -20.786  0.00  0.00    -0.000 C 
ATOM     21  C   UNL     1      37.069 -20.257 -20.527  0.00  0.00    -0.000 C 
ATOM     22  C   UNL     1      35.012 -18.880 -21.813  0.00  0.00    -0.000 C 
ATOM     23  C   UNL     1      37.364 -19.173 -21.354  0.00  0.00    -0.000 C 
ATOM     24  C   UNL     1      36.338 -18.486 -21.996  0.00  0.00    -0.000 C 
ENDBRANCH  14  15
ENDBRANCH   8  14
TORSDOF 3
ENDMDL
MODEL 8
REMARK VINA RESULT:     -10.3      1.392      2.335
REMARK  Name = 449087
REMARK  3 active torsions:
REMARK  status: ('A' for Active; 'I' for Inactive)
REMARK    1  A    between atoms: C_5  and  C_11
REMARK    2  A    between atoms: C_8  and  C_14
REMARK    3  A    between atoms: C_14  and  C_15
REMARK                            x       y       z     vdW  Elec       q    Type
REMARK                         _______ _______ _______ _____ _____    ______ ____
ROOT
ATOM      1  O   UNL     1      36.037 -18.302 -20.461  0.00  0.00    -0.274 OA
ATOM      2  N   UNL     1      34.344 -15.858 -24.334  0.00  0.00    -0.239 N 
ATOM      3  N   UNL     1      34.658 -17.164 -24.376  0.00  0.00    -0.166 NA
ATOM      4  N   UNL     1      35.495 -18.665 -22.718  0.00  0.00    -0.268 N 
ATOM      5  C   UNL     1      34.544 -15.282 -23.114  0.00  0.00    +0.045 C 
ATOM      6  C   UNL     1      35.019 -16.281 -22.300  0.00  0.00    +0.048 C 
ATOM      7  C   UNL     1      35.064 -17.399 -23.136  0.00  0.00    +0.152 C 
ATOM      8  C   UNL     1      35.939 -19.023 -21.448  0.00  0.00    +0.232 C 
ATOM      9  H   UNL     1      34.003 -15.362 -25.113  0.00  0.00    +0.174 HD
ATOM     10  H   UNL     1      35.481 -19.379 -23.396  0.00  0.00    +0.156 HD
ENDROOT
BRANCH   5  11
ATOM     11  C   UNL     1      34.286 -13.829 -22.739  0.00  0.00    +0.037 C 
ATOM     12  C   UNL     1      33.864 -12.856 -23.813  0.00  0.00    +0.006 C 
ATOM     13  C   UNL     1      32.874 -13.299 -22.775  0.00  0.00    +0.006 C 
ENDBRANCH   5  11
BRANCH   8  14
ATOM     14  C   UNL     1      36.316 -20.502 -21.403  0.00  0.00    +0.112 C 
BRANCH  14  15
ATOM     15  C   UNL     1      35.966 -21.177 -20.119  0.00  0.00    -0.013 C 
ATOM     16  C   UNL     1      34.302 -22.193 -18.664  0.00  0.00    -0.000 C 
ATOM     17  C   UNL     1      34.647 -21.557 -19.868  0.00  0.00    -0.004 C 
ATOM     18  C   UNL     1      35.308 -22.450 -17.704  0.00  0.00    -0.000 C 
ATOM     19  C   UNL     1      36.956 -21.430 -19.174  0.00  0.00    -0.004 C 
ATOM     20  C   UNL     1      36.631 -22.062 -17.974  0.00  0.00    -0.000 C 
ATOM     21  C   UNL     1      32.979 -22.581 -18.394  0.00  0.00    -0.000 C 
ATOM     22  C   UNL     1      34.963 -23.087 -16.500  0.00  0.00    -0.000 C 
ATOM     23  C   UNL     1      32.654 -23.213 -17.193  0.00  0.00    -0.000 C 
ATOM     24  C   UNL     1      33.643 -23.465 -16.248  0.00  0.00    -0.000 C 
ENDBRANCH  14  15
ENDBRANCH   8  14
TORSDOF 3
ENDMDL
MODEL 9
REMARK VINA RESULT:     -10.2      2.649      9.615
REMARK  Name = 449087
REMARK  3 active torsions:
REMARK  status: ('A' for Active; 'I' for Inactive)
REMARK    1  A    between atoms: C_5  and  C_11
REMARK    2  A    between atoms: C_8  and  C_14
REMARK    3  A    between atoms: C_14  and  C_15
REMARK                            x       y       z     vdW  Elec       q    Type
REMARK                         _______ _______ _______ _____ _____    ______ ____
ROOT
ATOM      1  O   UNL     1      34.218 -14.126 -23.615  0.00  0.00    -0.274 OA
ATOM      2  N   UNL     1      34.358 -18.758 -25.151  0.00  0.00    -0.239 N 
ATOM      3  N   UNL     1      33.872 -17.755 -25.902  0.00  0.00    -0.166 NA
ATOM      4  N   UNL     1      33.646 -15.413 -25.495  0.00  0.00    -0.268 N 
ATOM      5  C   UNL     1      34.806 -18.362 -23.925  0.00  0.00    +0.045 C 
ATOM      6  C   UNL     1      34.600 -17.005 -23.870  0.00  0.00    +0.048 C 
ATOM      7  C   UNL     1      34.027 -16.704 -25.108  0.00  0.00    +0.152 C 
ATOM      8  C   UNL     1      33.763 -14.244 -24.747  0.00  0.00    +0.232 C 
ATOM      9  H   UNL     1      34.388 -19.693 -25.458  0.00  0.00    +0.174 HD
ATOM     10  H   UNL     1      33.254 -15.322 -26.394  0.00  0.00    +0.156 HD
ENDROOT
BRANCH   5  11
ATOM     11  C   UNL     1      35.411 -19.249 -22.846  0.00  0.00    +0.037 C 
ATOM     12  C   UNL     1      35.568 -18.704 -21.448  0.00  0.00    +0.006 C 
ATOM     13  C   UNL     1      34.532 -19.754 -21.729  0.00  0.00    +0.006 C 
ENDBRANCH   5  11
BRANCH   8  14
ATOM     14  C   UNL     1      33.234 -13.045 -25.530  0.00  0.00    +0.112 C 
BRANCH  14  15
ATOM     15  C   UNL     1      33.638 -11.725 -24.964  0.00  0.00    -0.013 C 
ATOM     16  C   UNL     1      33.209  -9.865 -23.457  0.00  0.00    -0.000 C 
ATOM     17  C   UNL     1      32.842 -11.107 -24.000  0.00  0.00    -0.004 C 
ATOM     18  C   UNL     1      34.402  -9.243 -23.896  0.00  0.00    -0.000 C 
ATOM     19  C   UNL     1      34.812 -11.114 -25.395  0.00  0.00    -0.004 C 
ATOM     20  C   UNL     1      35.192  -9.881 -24.866  0.00  0.00    -0.000 C 
ATOM     21  C   UNL     1      32.418  -9.227 -22.487  0.00  0.00    -0.000 C 
ATOM     22  C   UNL     1      34.769  -8.001 -23.352  0.00  0.00    -0.000 C 
ATOM     23  C   UNL     1      32.798  -7.993 -21.958  0.00  0.00    -0.000 C 
ATOM     24  C   UNL     1      33.972  -7.381 -22.390  0.00  0.00    -0.000 C 
ENDBRANCH  14  15
ENDBRANCH   8  14
TORSDOF 3
ENDMDL
