MODEL 1
REMARK VINA RESULT:     -11.4      0.000      0.000
REMARK  Name = 11998575
REMARK  7 active torsions:
REMARK  status: ('A' for Active; 'I' for Inactive)
REMARK    1  A    between atoms: C_6  and  C_18
REMARK    2  A    between atoms: C_14  and  O_22
REMARK    3  A    between atoms: C_15  and  O_16
REMARK    4  A    between atoms: C_18  and  O_20
REMARK    5  A    between atoms: O_22  and  C_23
REMARK    6  A    between atoms: C_23  and  C_24
REMARK    7  A    between atoms: C_29  and  O_30
REMARK                            x       y       z     vdW  Elec       q    Type
REMARK                         _______ _______ _______ _____ _____    ______ ____
ROOT
ATOM      1  O   UNL     1      37.395 -22.211 -17.502  0.00  0.00    -0.421 OA
ATOM      2  O   UNL     1      38.594 -22.880 -15.682  0.00  0.00    -0.244 OA
ATOM      3  C   UNL     1      35.026 -23.181 -16.300  0.00  0.00    +0.009 A 
ATOM      4  C   UNL     1      34.980 -22.555 -17.628  0.00  0.00    +0.038 A 
ATOM      5  C   UNL     1      36.257 -23.294 -15.633  0.00  0.00    +0.076 A 
ATOM      6  C   UNL     1      35.201 -24.374 -13.738  0.00  0.00    +0.004 C 
ATOM      7  C   UNL     1      36.169 -22.087 -18.190  0.00  0.00    +0.152 A 
ATOM      8  C   UNL     1      36.343 -23.885 -14.362  0.00  0.00    +0.004 C 
ATOM      9  C   UNL     1      33.886 -23.685 -15.643  0.00  0.00    +0.000 C 
ATOM     10  C   UNL     1      33.814 -22.386 -18.392  0.00  0.00    +0.043 C 
ATOM     11  C   UNL     1      33.973 -24.274 -14.378  0.00  0.00    -0.002 C 
ATOM     12  C   UNL     1      37.511 -22.792 -16.246  0.00  0.00    +0.346 A 
ATOM     13  C   UNL     1      36.228 -21.479 -19.447  0.00  0.00    +0.078 C 
ATOM     14  C   UNL     1      35.059 -21.326 -20.181  0.00  0.00    +0.176 C 
ATOM     15  C   UNL     1      33.852 -21.778 -19.655  0.00  0.00    +0.173 C 
ENDROOT
BRANCH  15  16
ATOM     16  O   UNL     1      32.696 -21.636 -20.362  0.00  0.00    -0.468 OA
ATOM     17  C   UNL     1      32.325 -20.311 -20.736  0.00  0.00    +0.253 C 
ENDBRANCH  15  16
BRANCH   6  18
ATOM     18  C   UNL     1      35.293 -25.003 -12.390  0.00  0.00    +0.133 C 
ATOM     19  C   UNL     1      36.716 -25.451 -12.041  0.00  0.00    +0.037 C 
BRANCH  18  20
ATOM     20  O   UNL     1      34.849 -24.081 -11.387  0.00  0.00    -0.380 OA
ATOM     21  H   UNL     1      35.568 -23.919 -10.757  0.00  0.00    +0.211 HD
ENDBRANCH  18  20
ENDBRANCH   6  18
BRANCH  14  22
ATOM     22  O   UNL     1      35.105 -20.736 -21.407  0.00  0.00    -0.467 OA
BRANCH  22  23
ATOM     23  C   UNL     1      35.706 -19.443 -21.483  0.00  0.00    +0.232 C 
BRANCH  23  24
ATOM     24  C   UNL     1      35.223 -18.752 -22.724  0.00  0.00    +0.021 C 
ATOM     25  C   UNL     1      35.378 -17.377 -22.851  0.00  0.00    +0.002 C 
ATOM     26  C   UNL     1      34.621 -19.494 -23.736  0.00  0.00    +0.002 C 
ATOM     27  C   UNL     1      34.929 -16.734 -24.005  0.00  0.00    +0.037 C 
ATOM     28  C   UNL     1      34.172 -18.852 -24.889  0.00  0.00    +0.037 C 
ATOM     29  C   UNL     1      34.325 -17.472 -25.024  0.00  0.00    +0.139 C 
BRANCH  29  30
ATOM     30  O   UNL     1      33.887 -16.845 -26.149  0.00  0.00    -0.471 OA
ATOM     31  C   UNL     1      33.394 -15.514 -26.002  0.00  0.00    +0.252 C 
ENDBRANCH  29  30
ENDBRANCH  23  24
ENDBRANCH  22  23
ENDBRANCH  14  22
TORSDOF 7
ENDMDL
MODEL 2
REMARK VINA RESULT:     -11.2      2.725      9.102
REMARK  Name = 11998575
REMARK  7 active torsions:
REMARK  status: ('A' for Active; 'I' for Inactive)
REMARK    1  A    between atoms: C_6  and  C_18
REMARK    2  A    between atoms: C_14  and  O_22
REMARK    3  A    between atoms: C_15  and  O_16
REMARK    4  A    between atoms: C_18  and  O_20
REMARK    5  A    between atoms: O_22  and  C_23
REMARK    6  A    between atoms: C_23  and  C_24
REMARK    7  A    between atoms: C_29  and  O_30
REMARK                            x       y       z     vdW  Elec       q    Type
REMARK                         _______ _______ _______ _____ _____    ______ ____
ROOT
ATOM      1  O   UNL     1      32.808 -22.075 -19.163  0.00  0.00    -0.421 OA
ATOM      2  O   UNL     1      32.004 -20.882 -20.932  0.00  0.00    -0.244 OA
ATOM      3  C   UNL     1      35.404 -21.069 -19.661  0.00  0.00    +0.009 A 
ATOM      4  C   UNL     1      35.170 -21.996 -18.547  0.00  0.00    +0.038 A 
ATOM      5  C   UNL     1      34.326 -20.687 -20.478  0.00  0.00    +0.076 A 
ATOM      6  C   UNL     1      35.768 -19.286 -21.830  0.00  0.00    +0.004 C 
ATOM      7  C   UNL     1      33.876 -22.473 -18.330  0.00  0.00    +0.152 A 
ATOM      8  C   UNL     1      34.507 -19.801 -21.553  0.00  0.00    +0.004 C 
ATOM      9  C   UNL     1      36.669 -20.530 -19.967  0.00  0.00    +0.000 C 
ATOM     10  C   UNL     1      36.163 -22.452 -17.664  0.00  0.00    +0.043 C 
ATOM     11  C   UNL     1      36.849 -19.650 -21.038  0.00  0.00    -0.002 C 
ATOM     12  C   UNL     1      32.957 -21.203 -20.233  0.00  0.00    +0.346 A 
ATOM     13  C   UNL     1      33.554 -23.358 -17.298  0.00  0.00    +0.078 C 
ATOM     14  C   UNL     1      34.557 -23.792 -16.441  0.00  0.00    +0.176 C 
ATOM     15  C   UNL     1      35.861 -23.340 -16.623  0.00  0.00    +0.173 C 
ENDROOT
BRANCH  15  16
ATOM     16  O   UNL     1      36.857 -23.757 -15.792  0.00  0.00    -0.468 OA
ATOM     17  C   UNL     1      37.200 -22.893 -14.710  0.00  0.00    +0.253 C 
ENDBRANCH  15  16
BRANCH   6  18
ATOM     18  C   UNL     1      35.960 -18.348 -22.973  0.00  0.00    +0.133 C 
ATOM     19  C   UNL     1      34.843 -18.449 -24.017  0.00  0.00    +0.037 C 
BRANCH  18  20
ATOM     20  O   UNL     1      36.015 -16.998 -22.496  0.00  0.00    -0.380 OA
ATOM     21  H   UNL     1      36.097 -16.392 -23.249  0.00  0.00    +0.211 HD
ENDBRANCH  18  20
ENDBRANCH   6  18
BRANCH  14  22
ATOM     22  O   UNL     1      34.255 -24.656 -15.433  0.00  0.00    -0.467 OA
BRANCH  22  23
ATOM     23  C   UNL     1      33.558 -24.122 -14.308  0.00  0.00    +0.232 C 
BRANCH  23  24
ATOM     24  C   UNL     1      32.087 -24.104 -14.608  0.00  0.00    +0.021 C 
ATOM     25  C   UNL     1      31.417 -22.889 -14.694  0.00  0.00    +0.002 C 
ATOM     26  C   UNL     1      31.408 -25.303 -14.796  0.00  0.00    +0.002 C 
ATOM     27  C   UNL     1      30.050 -22.872 -14.973  0.00  0.00    +0.037 C 
ATOM     28  C   UNL     1      30.041 -25.287 -15.074  0.00  0.00    +0.037 C 
ATOM     29  C   UNL     1      29.363 -24.071 -15.163  0.00  0.00    +0.139 C 
BRANCH  29  30
ATOM     30  O   UNL     1      28.029 -24.055 -15.435  0.00  0.00    -0.471 OA
ATOM     31  C   UNL     1      27.510 -22.888 -16.069  0.00  0.00    +0.252 C 
ENDBRANCH  29  30
ENDBRANCH  23  24
ENDBRANCH  22  23
ENDBRANCH  14  22
TORSDOF 7
ENDMDL
MODEL 3
REMARK VINA RESULT:     -11.1      1.741      2.433
REMARK  Name = 11998575
REMARK  7 active torsions:
REMARK  status: ('A' for Active; 'I' for Inactive)
REMARK    1  A    between atoms: C_6  and  C_18
REMARK    2  A    between atoms: C_14  and  O_22
REMARK    3  A    between atoms: C_15  and  O_16
REMARK    4  A    between atoms: C_18  and  O_20
REMARK    5  A    between atoms: O_22  and  C_23
REMARK    6  A    between atoms: C_23  and  C_24
REMARK    7  A    between atoms: C_29  and  O_30
REMARK                            x       y       z     vdW  Elec       q    Type
REMARK                         _______ _______ _______ _____ _____    ______ ____
ROOT
ATOM      1  O   UNL     1      36.149 -22.926 -17.035  0.00  0.00    -0.421 OA
ATOM      2  O   UNL     1      36.237 -24.095 -15.079  0.00  0.00    -0.244 OA
ATOM      3  C   UNL     1      33.326 -23.093 -17.009  0.00  0.00    +0.009 A 
ATOM      4  C   UNL     1      34.017 -22.400 -18.104  0.00  0.00    +0.038 A 
ATOM      5  C   UNL     1      34.080 -23.673 -15.975  0.00  0.00    +0.076 A 
ATOM      6  C   UNL     1      32.071 -24.446 -14.862  0.00  0.00    +0.004 C 
ATOM      7  C   UNL     1      35.411 -22.337 -18.084  0.00  0.00    +0.152 A 
ATOM      8  C   UNL     1      33.457 -24.343 -14.910  0.00  0.00    +0.004 C 
ATOM      9  C   UNL     1      31.924 -23.213 -16.934  0.00  0.00    +0.000 C 
ATOM     10  C   UNL     1      33.376 -21.783 -19.191  0.00  0.00    +0.043 C 
ATOM     11  C   UNL     1      31.305 -23.882 -15.873  0.00  0.00    -0.002 C 
ATOM     12  C   UNL     1      35.561 -23.597 -15.971  0.00  0.00    +0.346 A 
ATOM     13  C   UNL     1      36.159 -21.702 -19.080  0.00  0.00    +0.078 C 
ATOM     14  C   UNL     1      35.497 -21.102 -20.144  0.00  0.00    +0.176 C 
ATOM     15  C   UNL     1      34.107 -21.142 -20.200  0.00  0.00    +0.173 C 
ENDROOT
BRANCH  15  16
ATOM     16  O   UNL     1      33.442 -20.558 -21.237  0.00  0.00    -0.468 OA
ATOM     17  C   UNL     1      32.098 -20.151 -20.996  0.00  0.00    +0.253 C 
ENDBRANCH  15  16
BRANCH   6  18
ATOM     18  C   UNL     1      31.411 -25.160 -13.731  0.00  0.00    +0.133 C 
ATOM     19  C   UNL     1      30.728 -24.205 -12.746  0.00  0.00    +0.037 C 
BRANCH  18  20
ATOM     20  O   UNL     1      30.428 -26.073 -14.235  0.00  0.00    -0.380 OA
ATOM     21  H   UNL     1      30.849 -26.691 -14.852  0.00  0.00    +0.211 HD
ENDBRANCH  18  20
ENDBRANCH   6  18
BRANCH  14  22
ATOM     22  O   UNL     1      36.215 -20.482 -21.120  0.00  0.00    -0.467 OA
BRANCH  22  23
ATOM     23  C   UNL     1      36.231 -19.055 -21.107  0.00  0.00    +0.232 C 
BRANCH  23  24
ATOM     24  C   UNL     1      35.627 -18.547 -22.384  0.00  0.00    +0.021 C 
ATOM     25  C   UNL     1      35.182 -19.451 -23.342  0.00  0.00    +0.002 C 
ATOM     26  C   UNL     1      35.520 -17.177 -22.598  0.00  0.00    +0.002 C 
ATOM     27  C   UNL     1      34.621 -18.979 -24.529  0.00  0.00    +0.037 C 
ATOM     28  C   UNL     1      34.959 -16.705 -23.784  0.00  0.00    +0.037 C 
ATOM     29  C   UNL     1      34.510 -17.606 -24.750  0.00  0.00    +0.139 C 
BRANCH  29  30
ATOM     30  O   UNL     1      33.962 -17.146 -25.908  0.00  0.00    -0.471 OA
ATOM     31  C   UNL     1      33.468 -15.808 -25.906  0.00  0.00    +0.252 C 
ENDBRANCH  29  30
ENDBRANCH  23  24
ENDBRANCH  22  23
ENDBRANCH  14  22
TORSDOF 7
ENDMDL
MODEL 4
REMARK VINA RESULT:     -10.8      2.190      9.426
REMARK  Name = 11998575
REMARK  7 active torsions:
REMARK  status: ('A' for Active; 'I' for Inactive)
REMARK    1  A    between atoms: C_6  and  C_18
REMARK    2  A    between atoms: C_14  and  O_22
REMARK    3  A    between atoms: C_15  and  O_16
REMARK    4  A    between atoms: C_18  and  O_20
REMARK    5  A    between atoms: O_22  and  C_23
REMARK    6  A    between atoms: C_23  and  C_24
REMARK    7  A    between atoms: C_29  and  O_30
REMARK                            x       y       z     vdW  Elec       q    Type
REMARK                         _______ _______ _______ _____ _____    ______ ____
ROOT
ATOM      1  O   UNL     1      36.278 -22.365 -18.270  0.00  0.00    -0.421 OA
ATOM      2  O   UNL     1      37.552 -21.287 -19.824  0.00  0.00    -0.244 OA
ATOM      3  C   UNL     1      33.931 -21.458 -19.563  0.00  0.00    +0.009 A 
ATOM      4  C   UNL     1      33.838 -22.295 -18.360  0.00  0.00    +0.038 A 
ATOM      5  C   UNL     1      35.197 -21.112 -20.066  0.00  0.00    +0.076 A 
ATOM      6  C   UNL     1      34.200 -19.849 -21.877  0.00  0.00    +0.004 C 
ATOM      7  C   UNL     1      35.017 -22.725 -17.748  0.00  0.00    +0.152 A 
ATOM      8  C   UNL     1      35.330 -20.314 -21.214  0.00  0.00    +0.004 C 
ATOM      9  C   UNL     1      32.805 -20.973 -20.256  0.00  0.00    +0.000 C 
ATOM     10  C   UNL     1      32.635 -22.706 -17.763  0.00  0.00    +0.043 C 
ATOM     11  C   UNL     1      32.938 -20.178 -21.399  0.00  0.00    -0.002 C 
ATOM     12  C   UNL     1      36.439 -21.577 -19.402  0.00  0.00    +0.346 A 
ATOM     13  C   UNL     1      35.032 -23.522 -16.600  0.00  0.00    +0.078 C 
ATOM     14  C   UNL     1      33.826 -23.912 -16.032  0.00  0.00    +0.176 C 
ATOM     15  C   UNL     1      32.628 -23.505 -16.612  0.00  0.00    +0.173 C 
ENDROOT
BRANCH  15  16
ATOM     16  O   UNL     1      31.436 -23.879 -16.066  0.00  0.00    -0.468 OA
ATOM     17  C   UNL     1      30.278 -23.165 -16.492  0.00  0.00    +0.253 C 
ENDBRANCH  15  16
BRANCH   6  18
ATOM     18  C   UNL     1      34.341 -19.001 -23.095  0.00  0.00    +0.133 C 
ATOM     19  C   UNL     1      35.312 -17.833 -22.895  0.00  0.00    +0.037 C 
BRANCH  18  20
ATOM     20  O   UNL     1      34.806 -19.794 -24.194  0.00  0.00    -0.380 OA
ATOM     21  H   UNL     1      35.747 -19.992 -24.074  0.00  0.00    +0.211 HD
ENDBRANCH  18  20
ENDBRANCH   6  18
BRANCH  14  22
ATOM     22  O   UNL     1      33.829 -24.688 -14.913  0.00  0.00    -0.467 OA
BRANCH  22  23
ATOM     23  C   UNL     1      34.499 -24.168 -13.765  0.00  0.00    +0.232 C 
BRANCH  23  24
ATOM     24  C   UNL     1      35.872 -24.768 -13.687  0.00  0.00    +0.021 C 
ATOM     25  C   UNL     1      36.868 -24.118 -12.968  0.00  0.00    +0.002 C 
ATOM     26  C   UNL     1      36.137 -25.969 -14.338  0.00  0.00    +0.002 C 
ATOM     27  C   UNL     1      38.145 -24.675 -12.896  0.00  0.00    +0.037 C 
ATOM     28  C   UNL     1      37.413 -26.526 -14.267  0.00  0.00    +0.037 C 
ATOM     29  C   UNL     1      38.417 -25.879 -13.546  0.00  0.00    +0.139 C 
BRANCH  29  30
ATOM     30  O   UNL     1      39.663 -26.423 -13.476  0.00  0.00    -0.471 OA
ATOM     31  C   UNL     1      40.531 -26.206 -14.587  0.00  0.00    +0.252 C 
ENDBRANCH  29  30
ENDBRANCH  23  24
ENDBRANCH  22  23
ENDBRANCH  14  22
TORSDOF 7
ENDMDL
MODEL 5
REMARK VINA RESULT:     -10.7      2.011      9.703
REMARK  Name = 11998575
REMARK  7 active torsions:
REMARK  status: ('A' for Active; 'I' for Inactive)
REMARK    1  A    between atoms: C_6  and  C_18
REMARK    2  A    between atoms: C_14  and  O_22
REMARK    3  A    between atoms: C_15  and  O_16
REMARK    4  A    between atoms: C_18  and  O_20
REMARK    5  A    between atoms: O_22  and  C_23
REMARK    6  A    between atoms: C_23  and  C_24
REMARK    7  A    between atoms: C_29  and  O_30
REMARK                            x       y       z     vdW  Elec       q    Type
REMARK                         _______ _______ _______ _____ _____    ______ ____
ROOT
ATOM      1  O   UNL     1      37.077 -20.500 -19.764  0.00  0.00    -0.421 OA
ATOM      2  O   UNL     1      38.227 -19.035 -21.080  0.00  0.00    -0.244 OA
ATOM      3  C   UNL     1      34.759 -20.094 -21.332  0.00  0.00    +0.009 A 
ATOM      4  C   UNL     1      34.728 -21.014 -20.189  0.00  0.00    +0.038 A 
ATOM      5  C   UNL     1      35.952 -19.416 -21.640  0.00  0.00    +0.076 A 
ATOM      6  C   UNL     1      34.905 -18.301 -23.519  0.00  0.00    +0.004 C 
ATOM      7  C   UNL     1      35.891 -21.191 -19.437  0.00  0.00    +0.152 A 
ATOM      8  C   UNL     1      36.024 -18.527 -22.725  0.00  0.00    +0.004 C 
ATOM      9  C   UNL     1      33.643 -19.844 -22.155  0.00  0.00    +0.000 C 
ATOM     10  C   UNL     1      33.600 -21.746 -19.782  0.00  0.00    +0.043 C 
ATOM     11  C   UNL     1      33.716 -18.958 -23.235  0.00  0.00    -0.002 C 
ATOM     12  C   UNL     1      37.178 -19.615 -20.830  0.00  0.00    +0.346 A 
ATOM     13  C   UNL     1      35.961 -22.043 -18.332  0.00  0.00    +0.078 C 
ATOM     14  C   UNL     1      34.829 -22.754 -17.953  0.00  0.00    +0.176 C 
ATOM     15  C   UNL     1      33.649 -22.606 -18.677  0.00  0.00    +0.173 C 
ENDROOT
BRANCH  15  16
ATOM     16  O   UNL     1      32.530 -23.296 -18.318  0.00  0.00    -0.468 OA
ATOM     17  C   UNL     1      31.875 -22.888 -17.119  0.00  0.00    +0.253 C 
ENDBRANCH  15  16
BRANCH   6  18
ATOM     18  C   UNL     1      34.981 -17.356 -24.670  0.00  0.00    +0.133 C 
ATOM     19  C   UNL     1      33.699 -17.340 -25.509  0.00  0.00    +0.037 C 
BRANCH  18  20
ATOM     20  O   UNL     1      35.233 -16.027 -24.198  0.00  0.00    -0.380 OA
ATOM     21  H   UNL     1      34.424 -15.498 -24.279  0.00  0.00    +0.211 HD
ENDBRANCH  18  20
ENDBRANCH   6  18
BRANCH  14  22
ATOM     22  O   UNL     1      34.885 -23.586 -16.877  0.00  0.00    -0.467 OA
BRANCH  22  23
ATOM     23  C   UNL     1      35.410 -23.045 -15.665  0.00  0.00    +0.232 C 
BRANCH  23  24
ATOM     24  C   UNL     1      36.471 -23.967 -15.137  0.00  0.00    +0.021 C 
ATOM     25  C   UNL     1      37.807 -23.710 -15.418  0.00  0.00    +0.002 C 
ATOM     26  C   UNL     1      36.105 -25.071 -14.374  0.00  0.00    +0.002 C 
ATOM     27  C   UNL     1      38.793 -24.568 -14.927  0.00  0.00    +0.037 C 
ATOM     28  C   UNL     1      37.091 -25.928 -13.884  0.00  0.00    +0.037 C 
ATOM     29  C   UNL     1      38.434 -25.676 -14.161  0.00  0.00    +0.139 C 
BRANCH  29  30
ATOM     30  O   UNL     1      39.396 -26.512 -13.682  0.00  0.00    -0.471 OA
ATOM     31  C   UNL     1      40.670 -26.471 -14.323  0.00  0.00    +0.252 C 
ENDBRANCH  29  30
ENDBRANCH  23  24
ENDBRANCH  22  23
ENDBRANCH  14  22
TORSDOF 7
ENDMDL
MODEL 6
REMARK VINA RESULT:     -10.5      7.884     14.898
REMARK  Name = 11998575
REMARK  7 active torsions:
REMARK  status: ('A' for Active; 'I' for Inactive)
REMARK    1  A    between atoms: C_6  and  C_18
REMARK    2  A    between atoms: C_14  and  O_22
REMARK    3  A    between atoms: C_15  and  O_16
REMARK    4  A    between atoms: C_18  and  O_20
REMARK    5  A    between atoms: O_22  and  C_23
REMARK    6  A    between atoms: C_23  and  C_24
REMARK    7  A    between atoms: C_29  and  O_30
REMARK                            x       y       z     vdW  Elec       q    Type
REMARK                         _______ _______ _______ _____ _____    ______ ____
ROOT
ATOM      1  O   UNL     1      34.567  -8.054 -24.507  0.00  0.00    -0.421 OA
ATOM      2  O   UNL     1      34.966  -5.881 -25.071  0.00  0.00    -0.244 OA
ATOM      3  C   UNL     1      32.259  -7.262 -23.078  0.00  0.00    +0.009 A 
ATOM      4  C   UNL     1      32.643  -8.678 -23.138  0.00  0.00    +0.038 A 
ATOM      5  C   UNL     1      33.050  -6.304 -23.736  0.00  0.00    +0.076 A 
ATOM      6  C   UNL     1      31.590  -4.511 -23.010  0.00  0.00    +0.004 C 
ATOM      7  C   UNL     1      33.789  -9.033 -23.853  0.00  0.00    +0.152 A 
ATOM      8  C   UNL     1      32.717  -4.940 -23.702  0.00  0.00    +0.004 C 
ATOM      9  C   UNL     1      31.124  -6.797 -22.385  0.00  0.00    +0.000 C 
ATOM     10  C   UNL     1      31.937  -9.725 -22.523  0.00  0.00    +0.043 C 
ATOM     11  C   UNL     1      30.794  -5.439 -22.351  0.00  0.00    -0.002 C 
ATOM     12  C   UNL     1      34.264  -6.699 -24.490  0.00  0.00    +0.346 A 
ATOM     13  C   UNL     1      34.236 -10.352 -23.968  0.00  0.00    +0.078 C 
ATOM     14  C   UNL     1      33.517 -11.366 -23.348  0.00  0.00    +0.176 C 
ATOM     15  C   UNL     1      32.369 -11.054 -22.626  0.00  0.00    +0.173 C 
ENDROOT
BRANCH  15  16
ATOM     16  O   UNL     1      31.653 -12.037 -22.012  0.00  0.00    -0.468 OA
ATOM     17  C   UNL     1      31.970 -12.314 -20.650  0.00  0.00    +0.253 C 
ENDBRANCH  15  16
BRANCH   6  18
ATOM     18  C   UNL     1      31.238  -3.063 -22.974  0.00  0.00    +0.133 C 
ATOM     19  C   UNL     1      30.924  -2.494 -24.361  0.00  0.00    +0.037 C 
BRANCH  18  20
ATOM     20  O   UNL     1      30.098  -2.856 -22.130  0.00  0.00    -0.380 OA
ATOM     21  H   UNL     1      29.637  -2.049 -22.403  0.00  0.00    +0.211 HD
ENDBRANCH  18  20
ENDBRANCH   6  18
BRANCH  14  22
ATOM     22  O   UNL     1      33.945 -12.655 -23.452  0.00  0.00    -0.467 OA
BRANCH  22  23
ATOM     23  C   UNL     1      33.449 -13.416 -24.553  0.00  0.00    +0.232 C 
BRANCH  23  24
ATOM     24  C   UNL     1      33.897 -14.840 -24.404  0.00  0.00    +0.021 C 
ATOM     25  C   UNL     1      34.600 -15.226 -23.269  0.00  0.00    +0.002 C 
ATOM     26  C   UNL     1      33.606 -15.762 -25.406  0.00  0.00    +0.002 C 
ATOM     27  C   UNL     1      35.018 -16.550 -23.131  0.00  0.00    +0.037 C 
ATOM     28  C   UNL     1      34.024 -17.085 -25.268  0.00  0.00    +0.037 C 
ATOM     29  C   UNL     1      34.729 -17.479 -24.131  0.00  0.00    +0.139 C 
BRANCH  29  30
ATOM     30  O   UNL     1      35.136 -18.771 -23.996  0.00  0.00    -0.471 OA
ATOM     31  C   UNL     1      35.035 -19.352 -22.697  0.00  0.00    +0.252 C 
ENDBRANCH  29  30
ENDBRANCH  23  24
ENDBRANCH  22  23
ENDBRANCH  14  22
TORSDOF 7
ENDMDL
MODEL 7
REMARK VINA RESULT:     -10.3      6.405     13.164
REMARK  Name = 11998575
REMARK  7 active torsions:
REMARK  status: ('A' for Active; 'I' for Inactive)
REMARK    1  A    between atoms: C_6  and  C_18
REMARK    2  A    between atoms: C_14  and  O_22
REMARK    3  A    between atoms: C_15  and  O_16
REMARK    4  A    between atoms: C_18  and  O_20
REMARK    5  A    between atoms: O_22  and  C_23
REMARK    6  A    between atoms: C_23  and  C_24
REMARK    7  A    between atoms: C_29  and  O_30
REMARK                            x       y       z     vdW  Elec       q    Type
REMARK                         _______ _______ _______ _____ _____    ______ ____
ROOT
ATOM      1  O   UNL     1      31.948 -11.475 -21.043  0.00  0.00    -0.421 OA
ATOM      2  O   UNL     1      31.214  -9.903 -19.563  0.00  0.00    -0.244 OA
ATOM      3  C   UNL     1      32.653  -9.432 -22.867  0.00  0.00    +0.009 A 
ATOM      4  C   UNL     1      32.876 -10.842 -23.211  0.00  0.00    +0.038 A 
ATOM      5  C   UNL     1      32.086  -9.107 -21.622  0.00  0.00    +0.076 A 
ATOM      6  C   UNL     1      32.191  -6.739 -22.124  0.00  0.00    +0.004 C 
ATOM      7  C   UNL     1      32.516 -11.824 -22.286  0.00  0.00    +0.152 A 
ATOM      8  C   UNL     1      31.858  -7.771 -21.254  0.00  0.00    +0.004 C 
ATOM      9  C   UNL     1      32.981  -8.365 -23.726  0.00  0.00    +0.000 C 
ATOM     10  C   UNL     1      33.433 -11.291 -24.420  0.00  0.00    +0.043 C 
ATOM     11  C   UNL     1      32.752  -7.035 -23.359  0.00  0.00    -0.002 C 
ATOM     12  C   UNL     1      31.709 -10.163 -20.652  0.00  0.00    +0.346 A 
ATOM     13  C   UNL     1      32.687 -13.191 -22.522  0.00  0.00    +0.078 C 
ATOM     14  C   UNL     1      33.240 -13.605 -23.727  0.00  0.00    +0.176 C 
ATOM     15  C   UNL     1      33.612 -12.657 -24.676  0.00  0.00    +0.173 C 
ENDROOT
BRANCH  15  16
ATOM     16  O   UNL     1      34.156 -13.048 -25.863  0.00  0.00    -0.468 OA
ATOM     17  C   UNL     1      33.285 -13.086 -26.991  0.00  0.00    +0.253 C 
ENDBRANCH  15  16
BRANCH   6  18
ATOM     18  C   UNL     1      31.947  -5.321 -21.734  0.00  0.00    +0.133 C 
ATOM     19  C   UNL     1      31.634  -4.421 -22.934  0.00  0.00    +0.037 C 
BRANCH  18  20
ATOM     20  O   UNL     1      30.851  -5.247 -20.813  0.00  0.00    -0.380 OA
ATOM     21  H   UNL     1      31.187  -5.030 -19.930  0.00  0.00    +0.211 HD
ENDBRANCH  18  20
ENDBRANCH   6  18
BRANCH  14  22
ATOM     22  O   UNL     1      33.409 -14.935 -23.968  0.00  0.00    -0.467 OA
BRANCH  22  23
ATOM     23  C   UNL     1      34.750 -15.402 -24.114  0.00  0.00    +0.232 C 
BRANCH  23  24
ATOM     24  C   UNL     1      34.965 -16.566 -23.191  0.00  0.00    +0.021 C 
ATOM     25  C   UNL     1      34.943 -17.859 -23.697  0.00  0.00    +0.002 C 
ATOM     26  C   UNL     1      35.182 -16.338 -21.835  0.00  0.00    +0.002 C 
ATOM     27  C   UNL     1      35.143 -18.942 -22.839  0.00  0.00    +0.037 C 
ATOM     28  C   UNL     1      35.382 -17.420 -20.977  0.00  0.00    +0.037 C 
ATOM     29  C   UNL     1      35.362 -18.721 -21.479  0.00  0.00    +0.139 C 
BRANCH  29  30
ATOM     30  O   UNL     1      35.557 -19.776 -20.642  0.00  0.00    -0.471 OA
ATOM     31  C   UNL     1      34.489 -20.714 -20.520  0.00  0.00    +0.252 C 
ENDBRANCH  29  30
ENDBRANCH  23  24
ENDBRANCH  22  23
ENDBRANCH  14  22
TORSDOF 7
ENDMDL
MODEL 8
REMARK VINA RESULT:     -10.2      1.706      2.821
REMARK  Name = 11998575
REMARK  7 active torsions:
REMARK  status: ('A' for Active; 'I' for Inactive)
REMARK    1  A    between atoms: C_6  and  C_18
REMARK    2  A    between atoms: C_14  and  O_22
REMARK    3  A    between atoms: C_15  and  O_16
REMARK    4  A    between atoms: C_18  and  O_20
REMARK    5  A    between atoms: O_22  and  C_23
REMARK    6  A    between atoms: C_23  and  C_24
REMARK    7  A    between atoms: C_29  and  O_30
REMARK                            x       y       z     vdW  Elec       q    Type
REMARK                         _______ _______ _______ _____ _____    ______ ____
ROOT
ATOM      1  O   UNL     1      32.414 -22.477 -18.333  0.00  0.00    -0.421 OA
ATOM      2  O   UNL     1      31.653 -23.687 -16.556  0.00  0.00    -0.244 OA
ATOM      3  C   UNL     1      35.057 -22.690 -17.349  0.00  0.00    +0.009 A 
ATOM      4  C   UNL     1      34.787 -21.961 -18.595  0.00  0.00    +0.038 A 
ATOM      5  C   UNL     1      33.990 -23.281 -16.651  0.00  0.00    +0.076 A 
ATOM      6  C   UNL     1      35.491 -24.114 -14.941  0.00  0.00    +0.004 C 
ATOM      7  C   UNL     1      33.470 -21.876 -19.051  0.00  0.00    +0.152 A 
ATOM      8  C   UNL     1      34.206 -23.987 -15.456  0.00  0.00    +0.004 C 
ATOM      9  C   UNL     1      36.347 -22.835 -16.803  0.00  0.00    +0.000 C 
ATOM     10  C   UNL     1      35.765 -21.329 -19.380  0.00  0.00    +0.043 C 
ATOM     11  C   UNL     1      36.561 -23.539 -15.613  0.00  0.00    -0.002 C 
ATOM     12  C   UNL     1      32.597 -23.180 -17.149  0.00  0.00    +0.346 A 
ATOM     13  C   UNL     1      33.112 -21.203 -20.223  0.00  0.00    +0.078 C 
ATOM     14  C   UNL     1      34.102 -20.587 -20.978  0.00  0.00    +0.176 C 
ATOM     15  C   UNL     1      35.427 -20.649 -20.558  0.00  0.00    +0.173 C 
ENDROOT
BRANCH  15  16
ATOM     16  O   UNL     1      36.410 -20.050 -21.288  0.00  0.00    -0.468 OA
ATOM     17  C   UNL     1      37.439 -19.383 -20.561  0.00  0.00    +0.253 C 
ENDBRANCH  15  16
BRANCH   6  18
ATOM     18  C   UNL     1      35.720 -24.863 -13.672  0.00  0.00    +0.133 C 
ATOM     19  C   UNL     1      36.689 -24.145 -12.727  0.00  0.00    +0.037 C 
BRANCH  18  20
ATOM     20  O   UNL     1      34.477 -25.058 -12.986  0.00  0.00    -0.380 OA
ATOM     21  H   UNL     1      34.394 -25.989 -12.728  0.00  0.00    +0.211 HD
ENDBRANCH  18  20
ENDBRANCH   6  18
BRANCH  14  22
ATOM     22  O   UNL     1      33.764 -19.928 -22.121  0.00  0.00    -0.467 OA
BRANCH  22  23
ATOM     23  C   UNL     1      34.771 -19.815 -23.126  0.00  0.00    +0.232 C 
BRANCH  23  24
ATOM     24  C   UNL     1      34.455 -18.639 -24.004  0.00  0.00    +0.021 C 
ATOM     25  C   UNL     1      34.983 -17.391 -23.700  0.00  0.00    +0.002 C 
ATOM     26  C   UNL     1      33.634 -18.811 -25.114  0.00  0.00    +0.002 C 
ATOM     27  C   UNL     1      34.689 -16.298 -24.516  0.00  0.00    +0.037 C 
ATOM     28  C   UNL     1      33.339 -17.718 -25.930  0.00  0.00    +0.037 C 
ATOM     29  C   UNL     1      33.867 -16.462 -25.631  0.00  0.00    +0.139 C 
BRANCH  29  30
ATOM     30  O   UNL     1      33.580 -15.396 -26.427  0.00  0.00    -0.471 OA
ATOM     31  C   UNL     1      33.150 -14.200 -25.781  0.00  0.00    +0.252 C 
ENDBRANCH  29  30
ENDBRANCH  23  24
ENDBRANCH  22  23
ENDBRANCH  14  22
TORSDOF 7
ENDMDL
MODEL 9
REMARK VINA RESULT:     -10.2      1.969      3.957
REMARK  Name = 11998575
REMARK  7 active torsions:
REMARK  status: ('A' for Active; 'I' for Inactive)
REMARK    1  A    between atoms: C_6  and  C_18
REMARK    2  A    between atoms: C_14  and  O_22
REMARK    3  A    between atoms: C_15  and  O_16
REMARK    4  A    between atoms: C_18  and  O_20
REMARK    5  A    between atoms: O_22  and  C_23
REMARK    6  A    between atoms: C_23  and  C_24
REMARK    7  A    between atoms: C_29  and  O_30
REMARK                            x       y       z     vdW  Elec       q    Type
REMARK                         _______ _______ _______ _____ _____    ______ ____
ROOT
ATOM      1  O   UNL     1      32.877 -21.618 -19.709  0.00  0.00    -0.421 OA
ATOM      2  O   UNL     1      32.167 -22.960 -18.008  0.00  0.00    -0.244 OA
ATOM      3  C   UNL     1      35.516 -21.729 -18.699  0.00  0.00    +0.009 A 
ATOM      4  C   UNL     1      35.219 -20.953 -19.910  0.00  0.00    +0.038 A 
ATOM      5  C   UNL     1      34.477 -22.415 -18.047  0.00  0.00    +0.076 A 
ATOM      6  C   UNL     1      36.004 -23.247 -16.359  0.00  0.00    +0.004 C 
ATOM      7  C   UNL     1      33.904 -20.921 -20.380  0.00  0.00    +0.152 A 
ATOM      8  C   UNL     1      34.720 -23.168 -16.887  0.00  0.00    +0.004 C 
ATOM      9  C   UNL     1      36.806 -21.827 -18.141  0.00  0.00    +0.000 C 
ATOM     10  C   UNL     1      36.168 -20.226 -20.647  0.00  0.00    +0.043 C 
ATOM     11  C   UNL     1      37.046 -22.577 -16.986  0.00  0.00    -0.002 C 
ATOM     12  C   UNL     1      33.087 -22.369 -18.561  0.00  0.00    +0.346 A 
ATOM     13  C   UNL     1      33.522 -20.211 -21.522  0.00  0.00    +0.078 C 
ATOM     14  C   UNL     1      34.483 -19.501 -22.230  0.00  0.00    +0.176 C 
ATOM     15  C   UNL     1      35.804 -19.508 -21.794  0.00  0.00    +0.173 C 
ENDROOT
BRANCH  15  16
ATOM     16  O   UNL     1      36.759 -18.816 -22.478  0.00  0.00    -0.468 OA
ATOM     17  C   UNL     1      38.082 -18.844 -21.948  0.00  0.00    +0.253 C 
ENDBRANCH  15  16
BRANCH   6  18
ATOM     18  C   UNL     1      36.261 -24.046 -15.127  0.00  0.00    +0.133 C 
ATOM     19  C   UNL     1      34.979 -24.372 -14.354  0.00  0.00    +0.037 C 
BRANCH  18  20
ATOM     20  O   UNL     1      36.912 -25.276 -15.467  0.00  0.00    -0.380 OA
ATOM     21  H   UNL     1      37.823 -25.093 -15.744  0.00  0.00    +0.211 HD
ENDBRANCH  18  20
ENDBRANCH   6  18
BRANCH  14  22
ATOM     22  O   UNL     1      34.121 -18.804 -23.343  0.00  0.00    -0.467 OA
BRANCH  22  23
ATOM     23  C   UNL     1      35.106 -17.949 -23.922  0.00  0.00    +0.232 C 
BRANCH  23  24
ATOM     24  C   UNL     1      34.637 -16.526 -23.822  0.00  0.00    +0.021 C 
ATOM     25  C   UNL     1      34.925 -15.785 -22.683  0.00  0.00    +0.002 C 
ATOM     26  C   UNL     1      33.918 -15.964 -24.872  0.00  0.00    +0.002 C 
ATOM     27  C   UNL     1      34.489 -14.463 -22.590  0.00  0.00    +0.037 C 
ATOM     28  C   UNL     1      33.482 -14.642 -24.779  0.00  0.00    +0.037 C 
ATOM     29  C   UNL     1      33.767 -13.892 -23.638  0.00  0.00    +0.139 C 
BRANCH  29  30
ATOM     30  O   UNL     1      33.342 -12.602 -23.548  0.00  0.00    -0.471 OA
ATOM     31  C   UNL     1      33.746 -11.711 -24.586  0.00  0.00    +0.252 C 
ENDBRANCH  29  30
ENDBRANCH  23  24
ENDBRANCH  22  23
ENDBRANCH  14  22
TORSDOF 7
ENDMDL
