MODEL 1
REMARK VINA RESULT:     -11.0      0.000      0.000
REMARK  Name = 11712628
REMARK  7 active torsions:
REMARK  status: ('A' for Active; 'I' for Inactive)
REMARK    1  A    between atoms: C_1  and  C_10
REMARK    2  A    between atoms: C_2  and  C_16
REMARK    3  A    between atoms: C_3  and  C_14
REMARK    4  A    between atoms: C_4  and  S_25
REMARK    5  A    between atoms: C_15  and  C_24
REMARK    6  A    between atoms: S_25  and  C_26
REMARK    7  A    between atoms: C_29  and  N_32
REMARK                            x       y       z     vdW  Elec       q    Type
REMARK                         _______ _______ _______ _____ _____    ______ ____
ROOT
ATOM      1  C   UNL     1      34.443 -16.380 -24.104  0.00  0.00    +0.076 C 
ATOM      2  C   UNL     1      35.001 -16.414 -22.835  0.00  0.00    +0.004 C 
ATOM      3  C   UNL     1      33.930 -15.180 -24.596  0.00  0.00    +0.081 C 
ATOM      4  C   UNL     1      33.981 -14.026 -23.812  0.00  0.00    +0.033 C 
ATOM      5  C   UNL     1      35.057 -15.275 -22.045  0.00  0.00    +0.000 C 
ATOM      6  C   UNL     1      34.545 -14.075 -22.537  0.00  0.00    +0.006 C 
ENDROOT
BRANCH   1  10
ATOM      7  F   UNL     1      34.985 -18.695 -24.373  0.00  0.00    -0.166 F 
ATOM      8  F   UNL     1      33.115 -18.014 -25.239  0.00  0.00    -0.166 F 
ATOM      9  F   UNL     1      35.005 -17.447 -26.153  0.00  0.00    -0.166 F 
ATOM     10  C   UNL     1      34.386 -17.615 -24.951  0.00  0.00    +0.419 C 
ENDBRANCH   1  10
BRANCH   3  14
ATOM     11  F   UNL     1      32.604 -16.266 -26.264  0.00  0.00    -0.166 F 
ATOM     12  F   UNL     1      32.480 -14.103 -26.163  0.00  0.00    -0.166 F 
ATOM     13  F   UNL     1      34.274 -15.050 -26.945  0.00  0.00    -0.166 F 
ATOM     14  C   UNL     1      33.330 -15.151 -25.968  0.00  0.00    +0.419 C 
ENDBRANCH   3  14
BRANCH   2  16
ATOM     15  C   UNL     1      35.396 -18.060 -21.021  0.00  0.00    +0.058 C 
ATOM     16  C   UNL     1      35.552 -17.664 -22.284  0.00  0.00    +0.005 C 
BRANCH  15  24
ATOM     17  O   UNL     1      33.659 -22.621 -19.583  0.00  0.00    -0.350 OA
ATOM     18  O   UNL     1      37.229 -19.327 -20.377  0.00  0.00    -0.270 OA
ATOM     19  N   UNL     1      35.207 -20.462 -20.533  0.00  0.00    -0.271 N 
ATOM     20  C   UNL     1      35.817 -21.770 -20.286  0.00  0.00    +0.126 C 
ATOM     21  C   UNL     1      33.765 -20.529 -20.806  0.00  0.00    +0.126 C 
ATOM     22  C   UNL     1      35.037 -22.520 -19.215  0.00  0.00    +0.164 C 
ATOM     23  C   UNL     1      33.064 -21.327 -19.712  0.00  0.00    +0.164 C 
ATOM     24  C   UNL     1      36.020 -19.336 -20.617  0.00  0.00    +0.249 C 
ENDBRANCH  15  24
ENDBRANCH   2  16
BRANCH   4  25
ATOM     25  S   UNL     1      33.337 -12.461 -24.391  0.00  0.00    -0.087 S 
BRANCH  25  26
ATOM     26  C   UNL     1      32.614 -11.813 -22.893  0.00  0.00    +0.031 C 
ATOM     27  C   UNL     1      32.548 -10.436 -22.691  0.00  0.00    +0.021 C 
ATOM     28  C   UNL     1      32.117 -12.688 -21.929  0.00  0.00    +0.007 C 
ATOM     29  C   UNL     1      31.983  -9.932 -21.521  0.00  0.00    +0.042 C 
ATOM     30  C   UNL     1      31.551 -12.183 -20.758  0.00  0.00    +0.002 C 
ATOM     31  C   UNL     1      31.485 -10.805 -20.554  0.00  0.00    +0.014 C 
BRANCH  29  32
ATOM     32  N   UNL     1      31.915  -8.538 -21.313  0.00  0.00    -0.357 N 
ATOM     33  H   UNL     1      31.486  -7.961 -21.986  0.00  0.00    +0.142 HD
ATOM     34  H   UNL     1      32.296  -8.143 -20.496  0.00  0.00    +0.142 HD
ENDBRANCH  29  32
ENDBRANCH  25  26
ENDBRANCH   4  25
TORSDOF 7
ENDMDL
MODEL 2
REMARK VINA RESULT:     -10.3      3.271      8.178
REMARK  Name = 11712628
REMARK  7 active torsions:
REMARK  status: ('A' for Active; 'I' for Inactive)
REMARK    1  A    between atoms: C_1  and  C_10
REMARK    2  A    between atoms: C_2  and  C_16
REMARK    3  A    between atoms: C_3  and  C_14
REMARK    4  A    between atoms: C_4  and  S_25
REMARK    5  A    between atoms: C_15  and  C_24
REMARK    6  A    between atoms: S_25  and  C_26
REMARK    7  A    between atoms: C_29  and  N_32
REMARK                            x       y       z     vdW  Elec       q    Type
REMARK                         _______ _______ _______ _____ _____    ______ ____
ROOT
ATOM      1  C   UNL     1      34.129 -15.240 -23.357  0.00  0.00    +0.076 C 
ATOM      2  C   UNL     1      34.188 -14.684 -22.089  0.00  0.00    +0.004 C 
ATOM      3  C   UNL     1      34.660 -16.511 -23.575  0.00  0.00    +0.081 C 
ATOM      4  C   UNL     1      35.244 -17.213 -22.520  0.00  0.00    +0.033 C 
ATOM      5  C   UNL     1      34.766 -15.370 -21.031  0.00  0.00    +0.000 C 
ATOM      6  C   UNL     1      35.297 -16.642 -21.248  0.00  0.00    +0.006 C 
ENDROOT
BRANCH   1  10
ATOM      7  F   UNL     1      33.344 -15.249 -25.618  0.00  0.00    -0.166 F 
ATOM      8  F   UNL     1      32.261 -14.008 -24.205  0.00  0.00    -0.166 F 
ATOM      9  F   UNL     1      34.242 -13.413 -24.876  0.00  0.00    -0.166 F 
ATOM     10  C   UNL     1      33.503 -14.492 -24.495  0.00  0.00    +0.419 C 
ENDBRANCH   1  10
BRANCH   3  14
ATOM     11  F   UNL     1      34.993 -18.407 -24.994  0.00  0.00    -0.166 F 
ATOM     12  F   UNL     1      33.337 -17.094 -25.479  0.00  0.00    -0.166 F 
ATOM     13  F   UNL     1      35.379 -16.442 -25.840  0.00  0.00    -0.166 F 
ATOM     14  C   UNL     1      34.592 -17.105 -24.948  0.00  0.00    +0.419 C 
ENDBRANCH   3  14
BRANCH   2  16
ATOM     15  C   UNL     1      32.336 -13.076 -21.708  0.00  0.00    +0.058 C 
ATOM     16  C   UNL     1      33.637 -13.344 -21.823  0.00  0.00    +0.005 C 
BRANCH  15  24
ATOM     17  O   UNL     1      33.556  -8.563 -23.715  0.00  0.00    -0.350 OA
ATOM     18  O   UNL     1      31.308 -11.446 -20.419  0.00  0.00    -0.270 OA
ATOM     19  N   UNL     1      32.303 -10.714 -22.388  0.00  0.00    -0.271 N 
ATOM     20  C   UNL     1      31.796  -9.349 -22.244  0.00  0.00    +0.126 C 
ATOM     21  C   UNL     1      33.053 -10.934 -23.631  0.00  0.00    +0.126 C 
ATOM     22  C   UNL     1      32.923  -8.346 -22.451  0.00  0.00    +0.164 C 
ATOM     23  C   UNL     1      34.134  -9.870 -23.784  0.00  0.00    +0.164 C 
ATOM     24  C   UNL     1      31.940 -11.678 -21.452  0.00  0.00    +0.249 C 
ENDBRANCH  15  24
ENDBRANCH   2  16
BRANCH   4  25
ATOM     25  S   UNL     1      35.942 -18.845 -22.740  0.00  0.00    -0.087 S 
BRANCH  25  26
ATOM     26  C   UNL     1      34.949 -19.798 -21.604  0.00  0.00    +0.031 C 
ATOM     27  C   UNL     1      35.565 -20.608 -20.652  0.00  0.00    +0.021 C 
ATOM     28  C   UNL     1      33.559 -19.731 -21.673  0.00  0.00    +0.007 C 
ATOM     29  C   UNL     1      34.788 -21.353 -19.766  0.00  0.00    +0.042 C 
ATOM     30  C   UNL     1      32.782 -20.476 -20.786  0.00  0.00    +0.002 C 
ATOM     31  C   UNL     1      33.397 -21.287 -19.833  0.00  0.00    +0.014 C 
BRANCH  29  32
ATOM     32  N   UNL     1      35.409 -22.174 -18.801  0.00  0.00    -0.357 N 
ATOM     33  H   UNL     1      35.991 -21.773 -18.115  0.00  0.00    +0.142 HD
ATOM     34  H   UNL     1      35.260 -23.147 -18.813  0.00  0.00    +0.142 HD
ENDBRANCH  29  32
ENDBRANCH  25  26
ENDBRANCH   4  25
TORSDOF 7
ENDMDL
MODEL 3
REMARK VINA RESULT:     -10.2      7.375     12.622
REMARK  Name = 11712628
REMARK  7 active torsions:
REMARK  status: ('A' for Active; 'I' for Inactive)
REMARK    1  A    between atoms: C_1  and  C_10
REMARK    2  A    between atoms: C_2  and  C_16
REMARK    3  A    between atoms: C_3  and  C_14
REMARK    4  A    between atoms: C_4  and  S_25
REMARK    5  A    between atoms: C_15  and  C_24
REMARK    6  A    between atoms: S_25  and  C_26
REMARK    7  A    between atoms: C_29  and  N_32
REMARK                            x       y       z     vdW  Elec       q    Type
REMARK                         _______ _______ _______ _____ _____    ______ ____
ROOT
ATOM      1  C   UNL     1      32.484 -23.510 -15.919  0.00  0.00    +0.076 C 
ATOM      2  C   UNL     1      33.531 -23.083 -16.721  0.00  0.00    +0.004 C 
ATOM      3  C   UNL     1      32.761 -24.123 -14.697  0.00  0.00    +0.081 C 
ATOM      4  C   UNL     1      34.084 -24.301 -14.291  0.00  0.00    +0.033 C 
ATOM      5  C   UNL     1      34.851 -23.254 -16.329  0.00  0.00    +0.000 C 
ATOM      6  C   UNL     1      35.128 -23.866 -15.107  0.00  0.00    +0.006 C 
ENDROOT
BRANCH   1  10
ATOM      7  F   UNL     1      30.424 -24.491 -16.640  0.00  0.00    -0.166 F 
ATOM      8  F   UNL     1      30.288 -22.711 -15.407  0.00  0.00    -0.166 F 
ATOM      9  F   UNL     1      30.956 -22.554 -17.470  0.00  0.00    -0.166 F 
ATOM     10  C   UNL     1      31.061 -23.321 -16.350  0.00  0.00    +0.419 C 
ENDBRANCH   1  10
BRANCH   3  14
ATOM     11  F   UNL     1      30.637 -25.210 -14.534  0.00  0.00    -0.166 F 
ATOM     12  F   UNL     1      32.002 -25.464 -12.868  0.00  0.00    -0.166 F 
ATOM     13  F   UNL     1      31.020 -23.550 -13.183  0.00  0.00    -0.166 F 
ATOM     14  C   UNL     1      31.624 -24.581 -13.836  0.00  0.00    +0.419 C 
ENDBRANCH   3  14
BRANCH   2  16
ATOM     15  C   UNL     1      34.224 -21.919 -18.800  0.00  0.00    +0.058 C 
ATOM     16  C   UNL     1      33.275 -22.432 -18.017  0.00  0.00    +0.005 C 
BRANCH  15  24
ATOM     17  O   UNL     1      36.385 -18.721 -22.115  0.00  0.00    -0.350 OA
ATOM     18  O   UNL     1      32.614 -21.362 -20.373  0.00  0.00    -0.270 OA
ATOM     19  N   UNL     1      34.779 -20.656 -20.834  0.00  0.00    -0.271 N 
ATOM     20  C   UNL     1      34.431 -20.156 -22.165  0.00  0.00    +0.126 C 
ATOM     21  C   UNL     1      36.209 -20.539 -20.519  0.00  0.00    +0.126 C 
ATOM     22  C   UNL     1      34.976 -18.747 -22.356  0.00  0.00    +0.164 C 
ATOM     23  C   UNL     1      36.685 -19.113 -20.772  0.00  0.00    +0.164 C 
ATOM     24  C   UNL     1      33.806 -21.289 -20.067  0.00  0.00    +0.249 C 
ENDBRANCH  15  24
ENDBRANCH   2  16
BRANCH   4  25
ATOM     25  S   UNL     1      34.498 -25.081 -12.735  0.00  0.00    -0.087 S 
BRANCH  25  26
ATOM     26  C   UNL     1      36.281 -25.077 -12.814  0.00  0.00    +0.031 C 
ATOM     27  C   UNL     1      36.945 -26.023 -13.592  0.00  0.00    +0.021 C 
ATOM     28  C   UNL     1      37.005 -24.128 -12.096  0.00  0.00    +0.007 C 
ATOM     29  C   UNL     1      38.338 -26.019 -13.653  0.00  0.00    +0.042 C 
ATOM     30  C   UNL     1      38.399 -24.123 -12.157  0.00  0.00    +0.002 C 
ATOM     31  C   UNL     1      39.065 -25.070 -12.935  0.00  0.00    +0.014 C 
BRANCH  29  32
ATOM     32  N   UNL     1      39.013 -26.976 -14.440  0.00  0.00    -0.357 N 
ATOM     33  H   UNL     1      38.530 -27.765 -14.777  0.00  0.00    +0.142 HD
ATOM     34  H   UNL     1      39.967 -26.855 -14.652  0.00  0.00    +0.142 HD
ENDBRANCH  29  32
ENDBRANCH  25  26
ENDBRANCH   4  25
TORSDOF 7
ENDMDL
MODEL 4
REMARK VINA RESULT:     -10.1      4.825      7.292
REMARK  Name = 11712628
REMARK  7 active torsions:
REMARK  status: ('A' for Active; 'I' for Inactive)
REMARK    1  A    between atoms: C_1  and  C_10
REMARK    2  A    between atoms: C_2  and  C_16
REMARK    3  A    between atoms: C_3  and  C_14
REMARK    4  A    between atoms: C_4  and  S_25
REMARK    5  A    between atoms: C_15  and  C_24
REMARK    6  A    between atoms: S_25  and  C_26
REMARK    7  A    between atoms: C_29  and  N_32
REMARK                            x       y       z     vdW  Elec       q    Type
REMARK                         _______ _______ _______ _____ _____    ______ ____
ROOT
ATOM      1  C   UNL     1      32.289 -10.745 -21.963  0.00  0.00    +0.076 C 
ATOM      2  C   UNL     1      32.826 -10.800 -23.240  0.00  0.00    +0.004 C 
ATOM      3  C   UNL     1      32.363  -9.555 -21.238  0.00  0.00    +0.081 C 
ATOM      4  C   UNL     1      32.974  -8.434 -21.800  0.00  0.00    +0.033 C 
ATOM      5  C   UNL     1      33.436  -9.692 -23.810  0.00  0.00    +0.000 C 
ATOM      6  C   UNL     1      33.510  -8.503 -23.086  0.00  0.00    +0.006 C 
ENDROOT
BRANCH   1  10
ATOM      7  F   UNL     1      31.709 -13.060 -22.137  0.00  0.00    -0.166 F 
ATOM      8  F   UNL     1      32.168 -12.306 -20.154  0.00  0.00    -0.166 F 
ATOM      9  F   UNL     1      30.303 -11.747 -21.123  0.00  0.00    -0.166 F 
ATOM     10  C   UNL     1      31.631 -11.946 -21.354  0.00  0.00    +0.419 C 
ENDBRANCH   1  10
BRANCH   3  14
ATOM     11  F   UNL     1      30.558 -10.101 -19.766  0.00  0.00    -0.166 F 
ATOM     12  F   UNL     1      32.556 -10.117 -18.922  0.00  0.00    -0.166 F 
ATOM     13  F   UNL     1      31.604  -8.227 -19.418  0.00  0.00    -0.166 F 
ATOM     14  C   UNL     1      31.780  -9.503 -19.859  0.00  0.00    +0.419 C 
ENDBRANCH   3  14
BRANCH   2  16
ATOM     15  C   UNL     1      33.809 -12.581 -24.660  0.00  0.00    +0.058 C 
ATOM     16  C   UNL     1      32.765 -12.039 -24.034  0.00  0.00    +0.005 C 
BRANCH  15  24
ATOM     17  O   UNL     1      34.807 -17.512 -23.898  0.00  0.00    -0.350 OA
ATOM     18  O   UNL     1      33.243 -13.711 -26.605  0.00  0.00    -0.270 OA
ATOM     19  N   UNL     1      33.772 -15.037 -24.772  0.00  0.00    -0.271 N 
ATOM     20  C   UNL     1      33.411 -16.281 -25.452  0.00  0.00    +0.126 C 
ATOM     21  C   UNL     1      34.178 -15.229 -23.373  0.00  0.00    +0.126 C 
ATOM     22  C   UNL     1      34.519 -17.313 -25.284  0.00  0.00    +0.164 C 
ATOM     23  C   UNL     1      35.259 -16.300 -23.286  0.00  0.00    +0.164 C 
ATOM     24  C   UNL     1      33.585 -13.823 -25.426  0.00  0.00    +0.249 C 
ENDBRANCH  15  24
ENDBRANCH   2  16
BRANCH   4  25
ATOM     25  S   UNL     1      33.099  -6.883 -20.916  0.00  0.00    -0.087 S 
BRANCH  25  26
ATOM     26  C   UNL     1      32.469  -5.743 -22.136  0.00  0.00    +0.031 C 
ATOM     27  C   UNL     1      31.538  -4.773 -21.766  0.00  0.00    +0.021 C 
ATOM     28  C   UNL     1      32.908  -5.826 -23.455  0.00  0.00    +0.007 C 
ATOM     29  C   UNL     1      31.046  -3.883 -22.720  0.00  0.00    +0.042 C 
ATOM     30  C   UNL     1      32.416  -4.935 -24.410  0.00  0.00    +0.002 C 
ATOM     31  C   UNL     1      31.485  -3.964 -24.042  0.00  0.00    +0.014 C 
BRANCH  29  32
ATOM     32  N   UNL     1      30.105  -2.900 -22.350  0.00  0.00    -0.357 N 
ATOM     33  H   UNL     1      30.175  -1.989 -22.717  0.00  0.00    +0.142 HD
ATOM     34  H   UNL     1      29.378  -3.124 -21.725  0.00  0.00    +0.142 HD
ENDBRANCH  29  32
ENDBRANCH  25  26
ENDBRANCH   4  25
TORSDOF 7
ENDMDL
MODEL 5
REMARK VINA RESULT:     -10.1      4.815      7.300
REMARK  Name = 11712628
REMARK  7 active torsions:
REMARK  status: ('A' for Active; 'I' for Inactive)
REMARK    1  A    between atoms: C_1  and  C_10
REMARK    2  A    between atoms: C_2  and  C_16
REMARK    3  A    between atoms: C_3  and  C_14
REMARK    4  A    between atoms: C_4  and  S_25
REMARK    5  A    between atoms: C_15  and  C_24
REMARK    6  A    between atoms: S_25  and  C_26
REMARK    7  A    between atoms: C_29  and  N_32
REMARK                            x       y       z     vdW  Elec       q    Type
REMARK                         _______ _______ _______ _____ _____    ______ ____
ROOT
ATOM      1  C   UNL     1      32.263 -10.730 -21.916  0.00  0.00    +0.076 C 
ATOM      2  C   UNL     1      32.804 -10.752 -23.192  0.00  0.00    +0.004 C 
ATOM      3  C   UNL     1      32.332  -9.560 -21.161  0.00  0.00    +0.081 C 
ATOM      4  C   UNL     1      32.942  -8.423 -21.692  0.00  0.00    +0.033 C 
ATOM      5  C   UNL     1      33.414  -9.629 -23.732  0.00  0.00    +0.000 C 
ATOM      6  C   UNL     1      33.483  -8.458 -22.977  0.00  0.00    +0.006 C 
ENDROOT
BRANCH   1  10
ATOM      7  F   UNL     1      31.704 -13.046 -22.142  0.00  0.00    -0.166 F 
ATOM      8  F   UNL     1      32.126 -12.326 -20.139  0.00  0.00    -0.166 F 
ATOM      9  F   UNL     1      30.272 -11.764 -21.126  0.00  0.00    -0.166 F 
ATOM     10  C   UNL     1      31.605 -11.948 -21.341  0.00  0.00    +0.419 C 
ENDBRANCH   1  10
BRANCH   3  14
ATOM     11  F   UNL     1      30.526 -10.151 -19.709  0.00  0.00    -0.166 F 
ATOM     12  F   UNL     1      32.521 -10.174 -18.858  0.00  0.00    -0.166 F 
ATOM     13  F   UNL     1      31.558  -8.279 -19.313  0.00  0.00    -0.166 F 
ATOM     14  C   UNL     1      31.744  -9.544 -19.784  0.00  0.00    +0.419 C 
ENDBRANCH   3  14
BRANCH   2  16
ATOM     15  C   UNL     1      33.807 -12.526 -24.608  0.00  0.00    +0.058 C 
ATOM     16  C   UNL     1      32.749 -11.971 -24.017  0.00  0.00    +0.005 C 
BRANCH  15  24
ATOM     17  O   UNL     1      34.766 -17.482 -23.975  0.00  0.00    -0.350 OA
ATOM     18  O   UNL     1      33.263 -13.595 -26.592  0.00  0.00    -0.270 OA
ATOM     19  N   UNL     1      33.758 -14.977 -24.791  0.00  0.00    -0.271 N 
ATOM     20  C   UNL     1      33.400 -16.199 -25.512  0.00  0.00    +0.126 C 
ATOM     21  C   UNL     1      34.143 -15.212 -23.393  0.00  0.00    +0.126 C 
ATOM     22  C   UNL     1      34.500 -17.242 -25.359  0.00  0.00    +0.164 C 
ATOM     23  C   UNL     1      35.216 -16.292 -23.322  0.00  0.00    +0.164 C 
ATOM     24  C   UNL     1      33.587 -13.744 -25.413  0.00  0.00    +0.249 C 
ENDBRANCH  15  24
ENDBRANCH   2  16
BRANCH   4  25
ATOM     25  S   UNL     1      33.061  -6.894 -20.769  0.00  0.00    -0.087 S 
BRANCH  25  26
ATOM     26  C   UNL     1      32.208  -5.769 -21.860  0.00  0.00    +0.031 C 
ATOM     27  C   UNL     1      32.768  -5.437 -23.093  0.00  0.00    +0.021 C 
ATOM     28  C   UNL     1      30.985  -5.223 -21.476  0.00  0.00    +0.007 C 
ATOM     29  C   UNL     1      32.101  -4.557 -23.944  0.00  0.00    +0.042 C 
ATOM     30  C   UNL     1      30.318  -4.342 -22.328  0.00  0.00    +0.002 C 
ATOM     31  C   UNL     1      30.876  -4.009 -23.562  0.00  0.00    +0.014 C 
BRANCH  29  32
ATOM     32  N   UNL     1      32.664  -4.219 -25.192  0.00  0.00    -0.357 N 
ATOM     33  H   UNL     1      33.626  -4.017 -25.259  0.00  0.00    +0.142 HD
ATOM     34  H   UNL     1      32.097  -4.186 -25.996  0.00  0.00    +0.142 HD
ENDBRANCH  29  32
ENDBRANCH  25  26
ENDBRANCH   4  25
TORSDOF 7
ENDMDL
MODEL 6
REMARK VINA RESULT:      -9.9      6.035     10.916
REMARK  Name = 11712628
REMARK  7 active torsions:
REMARK  status: ('A' for Active; 'I' for Inactive)
REMARK    1  A    between atoms: C_1  and  C_10
REMARK    2  A    between atoms: C_2  and  C_16
REMARK    3  A    between atoms: C_3  and  C_14
REMARK    4  A    between atoms: C_4  and  S_25
REMARK    5  A    between atoms: C_15  and  C_24
REMARK    6  A    between atoms: S_25  and  C_26
REMARK    7  A    between atoms: C_29  and  N_32
REMARK                            x       y       z     vdW  Elec       q    Type
REMARK                         _______ _______ _______ _____ _____    ______ ____
ROOT
ATOM      1  C   UNL     1      35.550 -22.322 -17.814  0.00  0.00    +0.076 C 
ATOM      2  C   UNL     1      34.551 -22.172 -18.763  0.00  0.00    +0.004 C 
ATOM      3  C   UNL     1      35.251 -22.921 -16.591  0.00  0.00    +0.081 C 
ATOM      4  C   UNL     1      33.953 -23.364 -16.330  0.00  0.00    +0.033 C 
ATOM      5  C   UNL     1      33.257 -22.606 -18.517  0.00  0.00    +0.000 C 
ATOM      6  C   UNL     1      32.957 -23.206 -17.294  0.00  0.00    +0.006 C 
ENDROOT
BRANCH   1  10
ATOM      7  F   UNL     1      37.905 -22.705 -17.632  0.00  0.00    -0.166 F 
ATOM      8  F   UNL     1      37.209 -21.682 -19.415  0.00  0.00    -0.166 F 
ATOM      9  F   UNL     1      37.211 -20.649 -17.502  0.00  0.00    -0.166 F 
ATOM     10  C   UNL     1      36.946 -21.850 -18.088  0.00  0.00    +0.419 C 
ENDBRANCH   1  10
BRANCH   3  14
ATOM     11  F   UNL     1      37.188 -22.019 -15.517  0.00  0.00    -0.166 F 
ATOM     12  F   UNL     1      35.865 -23.233 -14.301  0.00  0.00    -0.166 F 
ATOM     13  F   UNL     1      37.116 -24.172 -15.811  0.00  0.00    -0.166 F 
ATOM     14  C   UNL     1      36.336 -23.082 -15.571  0.00  0.00    +0.419 C 
ENDBRANCH   3  14
BRANCH   2  16
ATOM     15  C   UNL     1      34.545 -20.276 -20.365  0.00  0.00    +0.058 C 
ATOM     16  C   UNL     1      34.832 -21.543 -20.065  0.00  0.00    +0.005 C 
BRANCH  15  24
ATOM     17  O   UNL     1      35.369 -15.717 -22.468  0.00  0.00    -0.350 OA
ATOM     18  O   UNL     1      34.784 -20.601 -22.649  0.00  0.00    -0.270 OA
ATOM     19  N   UNL     1      35.282 -18.472 -21.863  0.00  0.00    -0.271 N 
ATOM     20  C   UNL     1      35.768 -18.005 -23.162  0.00  0.00    +0.126 C 
ATOM     21  C   UNL     1      35.413 -17.472 -20.794  0.00  0.00    +0.126 C 
ATOM     22  C   UNL     1      35.133 -16.666 -23.511  0.00  0.00    +0.164 C 
ATOM     23  C   UNL     1      34.790 -16.153 -21.234  0.00  0.00    +0.164 C 
ATOM     24  C   UNL     1      34.880 -19.796 -21.720  0.00  0.00    +0.249 C 
ENDBRANCH  15  24
ENDBRANCH   2  16
BRANCH   4  25
ATOM     25  S   UNL     1      33.511 -24.138 -14.779  0.00  0.00    -0.087 S 
BRANCH  25  26
ATOM     26  C   UNL     1      31.730 -24.134 -14.890  0.00  0.00    +0.031 C 
ATOM     27  C   UNL     1      31.019 -25.318 -14.708  0.00  0.00    +0.021 C 
ATOM     28  C   UNL     1      31.055 -22.945 -15.160  0.00  0.00    +0.007 C 
ATOM     29  C   UNL     1      29.627 -25.314 -14.795  0.00  0.00    +0.042 C 
ATOM     30  C   UNL     1      29.662 -22.940 -15.247  0.00  0.00    +0.002 C 
ATOM     31  C   UNL     1      28.949 -24.125 -15.065  0.00  0.00    +0.014 C 
BRANCH  29  32
ATOM     32  N   UNL     1      28.904 -26.510 -14.611  0.00  0.00    -0.357 N 
ATOM     33  H   UNL     1      29.314 -27.374 -14.848  0.00  0.00    +0.142 HD
ATOM     34  H   UNL     1      27.990 -26.483 -14.245  0.00  0.00    +0.142 HD
ENDBRANCH  29  32
ENDBRANCH  25  26
ENDBRANCH   4  25
TORSDOF 7
ENDMDL
MODEL 7
REMARK VINA RESULT:      -9.7      6.000     11.566
REMARK  Name = 11712628
REMARK  7 active torsions:
REMARK  status: ('A' for Active; 'I' for Inactive)
REMARK    1  A    between atoms: C_1  and  C_10
REMARK    2  A    between atoms: C_2  and  C_16
REMARK    3  A    between atoms: C_3  and  C_14
REMARK    4  A    between atoms: C_4  and  S_25
REMARK    5  A    between atoms: C_15  and  C_24
REMARK    6  A    between atoms: S_25  and  C_26
REMARK    7  A    between atoms: C_29  and  N_32
REMARK                            x       y       z     vdW  Elec       q    Type
REMARK                         _______ _______ _______ _____ _____    ______ ____
ROOT
ATOM      1  C   UNL     1      34.794 -22.453 -17.985  0.00  0.00    +0.076 C 
ATOM      2  C   UNL     1      35.826 -21.799 -18.641  0.00  0.00    +0.004 C 
ATOM      3  C   UNL     1      34.976 -22.873 -16.667  0.00  0.00    +0.081 C 
ATOM      4  C   UNL     1      36.188 -22.632 -16.020  0.00  0.00    +0.033 C 
ATOM      5  C   UNL     1      37.036 -21.554 -18.009  0.00  0.00    +0.000 C 
ATOM      6  C   UNL     1      37.218 -21.972 -16.691  0.00  0.00    +0.006 C 
ENDROOT
BRANCH   1  10
ATOM      7  F   UNL     1      32.437 -22.063 -18.104  0.00  0.00    -0.166 F 
ATOM      8  F   UNL     1      33.485 -22.335 -19.984  0.00  0.00    -0.166 F 
ATOM      9  F   UNL     1      33.156 -24.035 -18.669  0.00  0.00    -0.166 F 
ATOM     10  C   UNL     1      33.490 -22.714 -18.674  0.00  0.00    +0.419 C 
ENDBRANCH   1  10
BRANCH   3  14
ATOM     11  F   UNL     1      33.982 -23.574 -14.607  0.00  0.00    -0.166 F 
ATOM     12  F   UNL     1      32.633 -23.033 -16.217  0.00  0.00    -0.166 F 
ATOM     13  F   UNL     1      33.762 -24.888 -16.325  0.00  0.00    -0.166 F 
ATOM     14  C   UNL     1      33.857 -23.578 -15.965  0.00  0.00    +0.419 C 
ENDBRANCH   3  14
BRANCH   2  16
ATOM     15  C   UNL     1      35.437 -20.078 -20.386  0.00  0.00    +0.058 C 
ATOM     16  C   UNL     1      35.668 -21.343 -20.032  0.00  0.00    +0.005 C 
BRANCH  15  24
ATOM     17  O   UNL     1      35.153 -15.831 -23.172  0.00  0.00    -0.350 OA
ATOM     18  O   UNL     1      34.988 -20.713 -22.571  0.00  0.00    -0.270 OA
ATOM     19  N   UNL     1      35.508 -18.472 -22.245  0.00  0.00    -0.271 N 
ATOM     20  C   UNL     1      35.525 -18.172 -23.677  0.00  0.00    +0.126 C 
ATOM     21  C   UNL     1      35.871 -17.325 -21.402  0.00  0.00    +0.126 C 
ATOM     22  C   UNL     1      34.694 -16.928 -23.964  0.00  0.00    +0.164 C 
ATOM     23  C   UNL     1      35.025 -16.113 -21.776  0.00  0.00    +0.164 C 
ATOM     24  C   UNL     1      35.292 -19.780 -21.824  0.00  0.00    +0.249 C 
ENDBRANCH  15  24
ENDBRANCH   2  16
BRANCH   4  25
ATOM     25  S   UNL     1      36.478 -23.148 -14.331  0.00  0.00    -0.087 S 
BRANCH  25  26
ATOM     26  C   UNL     1      37.209 -24.756 -14.585  0.00  0.00    +0.031 C 
ATOM     27  C   UNL     1      38.572 -24.943 -14.364  0.00  0.00    +0.021 C 
ATOM     28  C   UNL     1      36.414 -25.820 -15.005  0.00  0.00    +0.007 C 
ATOM     29  C   UNL     1      39.142 -26.199 -14.564  0.00  0.00    +0.042 C 
ATOM     30  C   UNL     1      36.985 -27.078 -15.204  0.00  0.00    +0.002 C 
ATOM     31  C   UNL     1      38.349 -27.267 -14.983  0.00  0.00    +0.014 C 
BRANCH  29  32
ATOM     32  N   UNL     1      40.521 -26.392 -14.341  0.00  0.00    -0.357 N 
ATOM     33  H   UNL     1      41.060 -25.673 -13.937  0.00  0.00    +0.142 HD
ATOM     34  H   UNL     1      40.946 -27.245 -14.589  0.00  0.00    +0.142 HD
ENDBRANCH  29  32
ENDBRANCH  25  26
ENDBRANCH   4  25
TORSDOF 7
ENDMDL
MODEL 8
REMARK VINA RESULT:      -9.5      4.638      6.919
REMARK  Name = 11712628
REMARK  7 active torsions:
REMARK  status: ('A' for Active; 'I' for Inactive)
REMARK    1  A    between atoms: C_1  and  C_10
REMARK    2  A    between atoms: C_2  and  C_16
REMARK    3  A    between atoms: C_3  and  C_14
REMARK    4  A    between atoms: C_4  and  S_25
REMARK    5  A    between atoms: C_15  and  C_24
REMARK    6  A    between atoms: S_25  and  C_26
REMARK    7  A    between atoms: C_29  and  N_32
REMARK                            x       y       z     vdW  Elec       q    Type
REMARK                         _______ _______ _______ _____ _____    ______ ____
ROOT
ATOM      1  C   UNL     1      32.335 -11.085 -22.093  0.00  0.00    +0.076 C 
ATOM      2  C   UNL     1      32.835 -11.307 -23.367  0.00  0.00    +0.004 C 
ATOM      3  C   UNL     1      32.393  -9.803 -21.547  0.00  0.00    +0.081 C 
ATOM      4  C   UNL     1      32.950  -8.757 -22.282  0.00  0.00    +0.033 C 
ATOM      5  C   UNL     1      33.392 -10.276 -24.109  0.00  0.00    +0.000 C 
ATOM      6  C   UNL     1      33.449  -8.993 -23.563  0.00  0.00    +0.006 C 
ENDROOT
BRANCH   1  10
ATOM      7  F   UNL     1      31.861 -13.423 -21.899  0.00  0.00    -0.166 F 
ATOM      8  F   UNL     1      32.293 -12.350 -20.062  0.00  0.00    -0.166 F 
ATOM      9  F   UNL     1      30.401 -12.032 -21.085  0.00  0.00    -0.166 F 
ATOM     10  C   UNL     1      31.735 -12.205 -21.298  0.00  0.00    +0.419 C 
ENDBRANCH   1  10
BRANCH   3  14
ATOM     11  F   UNL     1      30.622 -10.128 -19.973  0.00  0.00    -0.166 F 
ATOM     12  F   UNL     1      32.642 -10.082 -19.185  0.00  0.00    -0.166 F 
ATOM     13  F   UNL     1      31.709  -8.247 -19.884  0.00  0.00    -0.166 F 
ATOM     14  C   UNL     1      31.850  -9.571 -20.170  0.00  0.00    +0.419 C 
ENDBRANCH   3  14
BRANCH   2  16
ATOM     15  C   UNL     1      33.859 -13.299 -24.436  0.00  0.00    +0.058 C 
ATOM     16  C   UNL     1      32.791 -12.648 -23.974  0.00  0.00    +0.005 C 
BRANCH  15  24
ATOM     17  O   UNL     1      35.228 -18.041 -23.199  0.00  0.00    -0.350 OA
ATOM     18  O   UNL     1      33.201 -14.685 -26.175  0.00  0.00    -0.270 OA
ATOM     19  N   UNL     1      33.968 -15.748 -24.257  0.00  0.00    -0.271 N 
ATOM     20  C   UNL     1      33.630 -17.084 -24.751  0.00  0.00    +0.126 C 
ATOM     21  C   UNL     1      34.503 -15.747 -22.889  0.00  0.00    +0.126 C 
ATOM     22  C   UNL     1      34.811 -18.027 -24.567  0.00  0.00    +0.164 C 
ATOM     23  C   UNL     1      35.653 -16.742 -22.777  0.00  0.00    +0.164 C 
ATOM     24  C   UNL     1      33.649 -14.635 -25.028  0.00  0.00    +0.249 C 
ENDBRANCH  15  24
ENDBRANCH   2  16
BRANCH   4  25
ATOM     25  S   UNL     1      33.051  -7.093 -21.632  0.00  0.00    -0.087 S 
BRANCH  25  26
ATOM     26  C   UNL     1      33.232  -6.148 -23.135  0.00  0.00    +0.031 C 
ATOM     27  C   UNL     1      32.287  -5.180 -23.466  0.00  0.00    +0.021 C 
ATOM     28  C   UNL     1      34.318  -6.383 -23.976  0.00  0.00    +0.007 C 
ATOM     29  C   UNL     1      32.428  -4.443 -24.641  0.00  0.00    +0.042 C 
ATOM     30  C   UNL     1      34.461  -5.646 -25.152  0.00  0.00    +0.002 C 
ATOM     31  C   UNL     1      33.515  -4.676 -25.484  0.00  0.00    +0.014 C 
BRANCH  29  32
ATOM     32  N   UNL     1      31.474  -3.461 -24.979  0.00  0.00    -0.357 N 
ATOM     33  H   UNL     1      30.514  -3.651 -24.868  0.00  0.00    +0.142 HD
ATOM     34  H   UNL     1      31.766  -2.587 -25.325  0.00  0.00    +0.142 HD
ENDBRANCH  29  32
ENDBRANCH  25  26
ENDBRANCH   4  25
TORSDOF 7
ENDMDL
MODEL 9
REMARK VINA RESULT:      -9.4      4.242      6.853
REMARK  Name = 11712628
REMARK  7 active torsions:
REMARK  status: ('A' for Active; 'I' for Inactive)
REMARK    1  A    between atoms: C_1  and  C_10
REMARK    2  A    between atoms: C_2  and  C_16
REMARK    3  A    between atoms: C_3  and  C_14
REMARK    4  A    between atoms: C_4  and  S_25
REMARK    5  A    between atoms: C_15  and  C_24
REMARK    6  A    between atoms: S_25  and  C_26
REMARK    7  A    between atoms: C_29  and  N_32
REMARK                            x       y       z     vdW  Elec       q    Type
REMARK                         _______ _______ _______ _____ _____    ______ ____
ROOT
ATOM      1  C   UNL     1      35.347 -21.140 -19.748  0.00  0.00    +0.076 C 
ATOM      2  C   UNL     1      34.022 -21.501 -19.561  0.00  0.00    +0.004 C 
ATOM      3  C   UNL     1      35.686 -20.299 -20.807  0.00  0.00    +0.081 C 
ATOM      4  C   UNL     1      34.694 -19.827 -21.668  0.00  0.00    +0.033 C 
ATOM      5  C   UNL     1      33.026 -21.040 -20.409  0.00  0.00    +0.000 C 
ATOM      6  C   UNL     1      33.364 -20.198 -21.468  0.00  0.00    +0.006 C 
ENDROOT
BRANCH   1  10
ATOM      7  F   UNL     1      37.085 -20.647 -18.178  0.00  0.00    -0.166 F 
ATOM      8  F   UNL     1      35.944 -22.462 -17.844  0.00  0.00    -0.166 F 
ATOM      9  F   UNL     1      37.370 -22.363 -19.483  0.00  0.00    -0.166 F 
ATOM     10  C   UNL     1      36.417 -21.643 -18.827  0.00  0.00    +0.419 C 
ENDBRANCH   1  10
BRANCH   3  14
ATOM     11  F   UNL     1      37.981 -20.965 -20.910  0.00  0.00    -0.166 F 
ATOM     12  F   UNL     1      37.366 -19.348 -22.219  0.00  0.00    -0.166 F 
ATOM     13  F   UNL     1      37.543 -19.005 -20.079  0.00  0.00    -0.166 F 
ATOM     14  C   UNL     1      37.120 -19.912 -21.002  0.00  0.00    +0.419 C 
ENDBRANCH   3  14
BRANCH   2  16
ATOM     15  C   UNL     1      32.414 -22.409 -17.903  0.00  0.00    +0.058 C 
ATOM     16  C   UNL     1      33.628 -22.389 -18.453  0.00  0.00    +0.005 C 
BRANCH  15  24
ATOM     17  O   UNL     1      28.339 -23.872 -15.230  0.00  0.00    -0.350 OA
ATOM     18  O   UNL     1      33.164 -23.791 -16.198  0.00  0.00    -0.270 OA
ATOM     19  N   UNL     1      30.861 -23.678 -16.481  0.00  0.00    -0.271 N 
ATOM     20  C   UNL     1      30.595 -24.721 -15.490  0.00  0.00    +0.126 C 
ATOM     21  C   UNL     1      29.650 -23.183 -17.151  0.00  0.00    +0.126 C 
ATOM     22  C   UNL     1      29.517 -24.260 -14.518  0.00  0.00    +0.164 C 
ATOM     23  C   UNL     1      28.608 -22.780 -16.114  0.00  0.00    +0.164 C 
ATOM     24  C   UNL     1      32.177 -23.350 -16.790  0.00  0.00    +0.249 C 
ENDBRANCH  15  24
ENDBRANCH   2  16
BRANCH   4  25
ATOM     25  S   UNL     1      35.071 -18.746 -23.043  0.00  0.00    -0.087 S 
BRANCH  25  26
ATOM     26  C   UNL     1      34.914 -17.144 -22.272  0.00  0.00    +0.031 C 
ATOM     27  C   UNL     1      34.704 -16.012 -23.057  0.00  0.00    +0.021 C 
ATOM     28  C   UNL     1      35.005 -17.029 -20.886  0.00  0.00    +0.007 C 
ATOM     29  C   UNL     1      34.582 -14.761 -22.454  0.00  0.00    +0.042 C 
ATOM     30  C   UNL     1      34.883 -15.778 -20.282  0.00  0.00    +0.002 C 
ATOM     31  C   UNL     1      34.672 -14.644 -21.067  0.00  0.00    +0.014 C 
BRANCH  29  32
ATOM     32  N   UNL     1      34.369 -13.613 -23.245  0.00  0.00    -0.357 N 
ATOM     33  H   UNL     1      34.399 -13.681 -24.227  0.00  0.00    +0.142 HD
ATOM     34  H   UNL     1      34.191 -12.745 -22.816  0.00  0.00    +0.142 HD
ENDBRANCH  29  32
ENDBRANCH  25  26
ENDBRANCH   4  25
TORSDOF 7
ENDMDL
