MODEL 1
REMARK VINA RESULT:     -11.6      0.000      0.000
REMARK  Name = 3488
REMARK  8 active torsions:
REMARK  status: ('A' for Active; 'I' for Inactive)
REMARK    1  A    between atoms: C_1  and  S_7
REMARK    2  A    between atoms: C_2  and  C_22
REMARK    3  A    between atoms: S_7  and  N_12
REMARK    4  A    between atoms: N_11  and  C_16
REMARK    5  A    between atoms: C_22  and  C_23
REMARK    6  A    between atoms: C_23  and  N_25
REMARK    7  A    between atoms: C_26  and  C_29
REMARK    8  A    between atoms: C_30  and  O_35
REMARK                            x       y       z     vdW  Elec       q    Type
REMARK                         _______ _______ _______ _____ _____    ______ ____
ROOT
ATOM      1  C   UNL     1      34.331 -22.172 -18.974  0.00  0.00    +0.125 C 
ATOM      2  C   UNL     1      35.490 -20.329 -20.685  0.00  0.00    -0.020 C 
ATOM      3  C   UNL     1      35.708 -22.037 -18.989  0.00  0.00    +0.020 C 
ATOM      4  C   UNL     1      33.519 -21.408 -19.794  0.00  0.00    +0.020 C 
ATOM      5  C   UNL     1      36.292 -21.108 -19.851  0.00  0.00    -0.003 C 
ATOM      6  C   UNL     1      34.102 -20.479 -20.656  0.00  0.00    -0.003 C 
ENDROOT
BRANCH   1   7
ATOM      7  S   UNL     1      33.591 -23.349 -17.882  0.00  0.00    +0.077 S 
ATOM      8  O   UNL     1      33.627 -24.647 -18.527  0.00  0.00    -0.150 OA
ATOM      9  O   UNL     1      32.332 -22.780 -17.443  0.00  0.00    -0.150 OA
BRANCH   7  12
ATOM     10  O   UNL     1      33.624 -24.832 -15.153  0.00  0.00    -0.251 OA
ATOM     11  N   UNL     1      35.621 -23.870 -14.500  0.00  0.00    -0.289 N 
ATOM     12  N   UNL     1      34.701 -23.332 -16.582  0.00  0.00    -0.169 N 
ATOM     13  C   UNL     1      34.571 -24.084 -15.371  0.00  0.00    +0.319 C 
ATOM     14  H   UNL     1      36.336 -23.248 -14.767  0.00  0.00    +0.151 HD
ATOM     15  H   UNL     1      35.496 -22.758 -16.675  0.00  0.00    +0.178 HD
BRANCH  11  16
ATOM     16  C   UNL     1      35.719 -24.521 -13.212  0.00  0.00    +0.073 C 
ATOM     17  C   UNL     1      36.109 -23.521 -12.118  0.00  0.00    +0.020 C 
ATOM     18  C   UNL     1      36.696 -25.699 -13.262  0.00  0.00    +0.020 C 
ATOM     19  C   UNL     1      37.565 -23.072 -12.229  0.00  0.00    +0.002 C 
ATOM     20  C   UNL     1      38.153 -25.246 -13.371  0.00  0.00    +0.002 C 
ATOM     21  C   UNL     1      38.521 -24.261 -12.266  0.00  0.00    +0.000 C 
ENDBRANCH  11  16
ENDBRANCH   7  12
ENDBRANCH   1   7
BRANCH   2  22
ATOM     22  C   UNL     1      36.113 -19.337 -21.607  0.00  0.00    +0.048 C 
BRANCH  22  23
ATOM     23  C   UNL     1      35.323 -19.125 -22.905  0.00  0.00    +0.094 C 
BRANCH  23  25
ATOM     24  O   UNL     1      34.542 -17.874 -25.367  0.00  0.00    -0.270 OA
ATOM     25  N   UNL     1      34.921 -17.757 -23.082  0.00  0.00    -0.300 N 
ATOM     26  C   UNL     1      34.557 -17.236 -24.318  0.00  0.00    +0.249 C 
ATOM     27  H   UNL     1      34.902 -17.163 -22.296  0.00  0.00    +0.150 HD
BRANCH  26  29
ATOM     28 CL   UNL     1      32.452 -13.299 -26.902  0.00  0.00    -0.082 Cl
ATOM     29  C   UNL     1      34.193 -15.795 -24.338  0.00  0.00    +0.088 C 
ATOM     30  C   UNL     1      34.475 -15.001 -23.247  0.00  0.00    +0.143 C 
ATOM     31  C   UNL     1      33.574 -15.298 -25.469  0.00  0.00    +0.019 C 
ATOM     32  C   UNL     1      34.125 -13.651 -23.285  0.00  0.00    +0.038 C 
ATOM     33  C   UNL     1      33.224 -13.949 -25.507  0.00  0.00    +0.058 C 
ATOM     34  C   UNL     1      33.499 -13.125 -24.416  0.00  0.00    +0.015 C 
BRANCH  30  35
ATOM     35  O   UNL     1      35.085 -15.495 -22.132  0.00  0.00    -0.471 OA
ATOM     36  C   UNL     1      34.636 -14.998 -20.874  0.00  0.00    +0.252 C 
ENDBRANCH  30  35
ENDBRANCH  26  29
ENDBRANCH  23  25
ENDBRANCH  22  23
ENDBRANCH   2  22
TORSDOF 8
ENDMDL
MODEL 2
REMARK VINA RESULT:     -11.6      0.863      2.057
REMARK  Name = 3488
REMARK  8 active torsions:
REMARK  status: ('A' for Active; 'I' for Inactive)
REMARK    1  A    between atoms: C_1  and  S_7
REMARK    2  A    between atoms: C_2  and  C_22
REMARK    3  A    between atoms: S_7  and  N_12
REMARK    4  A    between atoms: N_11  and  C_16
REMARK    5  A    between atoms: C_22  and  C_23
REMARK    6  A    between atoms: C_23  and  N_25
REMARK    7  A    between atoms: C_26  and  C_29
REMARK    8  A    between atoms: C_30  and  O_35
REMARK                            x       y       z     vdW  Elec       q    Type
REMARK                         _______ _______ _______ _____ _____    ______ ____
ROOT
ATOM      1  C   UNL     1      34.305 -22.198 -18.931  0.00  0.00    +0.125 C 
ATOM      2  C   UNL     1      35.455 -20.363 -20.656  0.00  0.00    -0.020 C 
ATOM      3  C   UNL     1      33.490 -21.450 -19.763  0.00  0.00    +0.020 C 
ATOM      4  C   UNL     1      35.681 -22.051 -18.941  0.00  0.00    +0.020 C 
ATOM      5  C   UNL     1      34.070 -20.525 -20.633  0.00  0.00    -0.003 C 
ATOM      6  C   UNL     1      36.261 -21.127 -19.811  0.00  0.00    -0.003 C 
ENDROOT
BRANCH   1   7
ATOM      7  S   UNL     1      33.571 -23.369 -17.830  0.00  0.00    +0.077 S 
ATOM      8  O   UNL     1      33.598 -24.670 -18.472  0.00  0.00    -0.150 OA
ATOM      9  O   UNL     1      32.318 -22.796 -17.382  0.00  0.00    -0.150 OA
BRANCH   7  12
ATOM     10  O   UNL     1      33.620 -24.842 -15.095  0.00  0.00    -0.251 OA
ATOM     11  N   UNL     1      35.628 -23.887 -14.464  0.00  0.00    -0.289 N 
ATOM     12  N   UNL     1      34.693 -23.353 -16.539  0.00  0.00    -0.169 N 
ATOM     13  C   UNL     1      34.569 -24.099 -15.325  0.00  0.00    +0.319 C 
ATOM     14  H   UNL     1      36.343 -23.270 -14.739  0.00  0.00    +0.151 HD
ATOM     15  H   UNL     1      35.490 -22.783 -16.642  0.00  0.00    +0.178 HD
BRANCH  11  16
ATOM     16  C   UNL     1      35.734 -24.533 -13.174  0.00  0.00    +0.073 C 
ATOM     17  C   UNL     1      36.115 -23.526 -12.083  0.00  0.00    +0.020 C 
ATOM     18  C   UNL     1      36.723 -25.701 -13.222  0.00  0.00    +0.020 C 
ATOM     19  C   UNL     1      37.567 -23.063 -12.197  0.00  0.00    +0.002 C 
ATOM     20  C   UNL     1      38.175 -25.234 -13.334  0.00  0.00    +0.002 C 
ATOM     21  C   UNL     1      38.534 -24.243 -12.231  0.00  0.00    +0.000 C 
ENDBRANCH  11  16
ENDBRANCH   7  12
ENDBRANCH   1   7
BRANCH   2  22
ATOM     22  C   UNL     1      36.075 -19.374 -21.585  0.00  0.00    +0.048 C 
BRANCH  22  23
ATOM     23  C   UNL     1      35.889 -17.917 -21.142  0.00  0.00    +0.094 C 
BRANCH  23  25
ATOM     24  O   UNL     1      34.929 -15.224 -20.884  0.00  0.00    -0.270 OA
ATOM     25  N   UNL     1      35.358 -17.091 -22.192  0.00  0.00    -0.300 N 
ATOM     26  C   UNL     1      34.915 -15.792 -21.973  0.00  0.00    +0.249 C 
ATOM     27  H   UNL     1      35.305 -17.460 -23.104  0.00  0.00    +0.150 HD
BRANCH  26  29
ATOM     28 CL   UNL     1      33.408 -11.328 -24.073  0.00  0.00    -0.082 Cl
ATOM     29  C   UNL     1      34.368 -15.080 -23.156  0.00  0.00    +0.088 C 
ATOM     30  C   UNL     1      34.071 -15.784 -24.305  0.00  0.00    +0.143 C 
ATOM     31  C   UNL     1      34.174 -13.716 -23.060  0.00  0.00    +0.019 C 
ATOM     32  C   UNL     1      33.559 -15.097 -25.405  0.00  0.00    +0.038 C 
ATOM     33  C   UNL     1      33.662 -13.029 -24.161  0.00  0.00    +0.058 C 
ATOM     34  C   UNL     1      33.354 -13.719 -25.333  0.00  0.00    +0.015 C 
BRANCH  30  35
ATOM     35  O   UNL     1      34.264 -17.131 -24.396  0.00  0.00    -0.471 OA
ATOM     36  C   UNL     1      33.654 -17.799 -25.497  0.00  0.00    +0.252 C 
ENDBRANCH  30  35
ENDBRANCH  26  29
ENDBRANCH  23  25
ENDBRANCH  22  23
ENDBRANCH   2  22
TORSDOF 8
ENDMDL
MODEL 3
REMARK VINA RESULT:     -11.6      1.533      2.407
REMARK  Name = 3488
REMARK  8 active torsions:
REMARK  status: ('A' for Active; 'I' for Inactive)
REMARK    1  A    between atoms: C_1  and  S_7
REMARK    2  A    between atoms: C_2  and  C_22
REMARK    3  A    between atoms: S_7  and  N_12
REMARK    4  A    between atoms: N_11  and  C_16
REMARK    5  A    between atoms: C_22  and  C_23
REMARK    6  A    between atoms: C_23  and  N_25
REMARK    7  A    between atoms: C_26  and  C_29
REMARK    8  A    between atoms: C_30  and  O_35
REMARK                            x       y       z     vdW  Elec       q    Type
REMARK                         _______ _______ _______ _____ _____    ______ ____
ROOT
ATOM      1  C   UNL     1      34.334 -21.470 -19.875  0.00  0.00    +0.125 C 
ATOM      2  C   UNL     1      35.223 -19.359 -21.431  0.00  0.00    -0.020 C 
ATOM      3  C   UNL     1      35.687 -21.181 -19.911  0.00  0.00    +0.020 C 
ATOM      4  C   UNL     1      33.415 -20.730 -20.597  0.00  0.00    +0.020 C 
ATOM      5  C   UNL     1      36.135 -20.117 -20.695  0.00  0.00    -0.003 C 
ATOM      6  C   UNL     1      33.862 -19.665 -21.381  0.00  0.00    -0.003 C 
ENDROOT
BRANCH   1   7
ATOM      7  S   UNL     1      33.767 -22.818 -18.882  0.00  0.00    +0.077 S 
ATOM      8  O   UNL     1      33.880 -24.034 -19.664  0.00  0.00    -0.150 OA
ATOM      9  O   UNL     1      32.490 -22.419 -18.323  0.00  0.00    -0.150 OA
BRANCH   7  12
ATOM     10  O   UNL     1      33.784 -24.066 -16.037  0.00  0.00    -0.251 OA
ATOM     11  N   UNL     1      35.916 -23.305 -15.569  0.00  0.00    -0.289 N 
ATOM     12  N   UNL     1      34.945 -22.831 -17.643  0.00  0.00    -0.169 N 
ATOM     13  C   UNL     1      34.798 -23.459 -16.366  0.00  0.00    +0.319 C 
ATOM     14  H   UNL     1      36.682 -22.799 -15.924  0.00  0.00    +0.151 HD
ATOM     15  H   UNL     1      35.796 -22.368 -17.825  0.00  0.00    +0.178 HD
BRANCH  11  16
ATOM     16  C   UNL     1      36.011 -23.856 -14.234  0.00  0.00    +0.073 C 
ATOM     17  C   UNL     1      37.413 -23.647 -13.651  0.00  0.00    +0.020 C 
ATOM     18  C   UNL     1      35.617 -25.336 -14.219  0.00  0.00    +0.020 C 
ATOM     19  C   UNL     1      38.460 -24.541 -14.315  0.00  0.00    +0.002 C 
ATOM     20  C   UNL     1      36.668 -26.227 -14.882  0.00  0.00    +0.002 C 
ATOM     21  C   UNL     1      38.052 -26.011 -14.277  0.00  0.00    +0.000 C 
ENDBRANCH  11  16
ENDBRANCH   7  12
ENDBRANCH   1   7
BRANCH   2  22
ATOM     22  C   UNL     1      35.701 -18.223 -22.269  0.00  0.00    +0.048 C 
BRANCH  22  23
ATOM     23  C   UNL     1      35.340 -16.845 -21.698  0.00  0.00    +0.094 C 
BRANCH  23  25
ATOM     24  O   UNL     1      33.807 -14.440 -21.376  0.00  0.00    -0.270 OA
ATOM     25  N   UNL     1      34.999 -15.901 -22.727  0.00  0.00    -0.300 N 
ATOM     26  C   UNL     1      34.249 -14.758 -22.477  0.00  0.00    +0.249 C 
ATOM     27  H   UNL     1      35.309 -16.070 -23.647  0.00  0.00    +0.150 HD
BRANCH  26  29
ATOM     28 CL   UNL     1      34.305 -10.036 -24.552  0.00  0.00    -0.082 Cl
ATOM     29  C   UNL     1      33.959 -13.896 -23.652  0.00  0.00    +0.088 C 
ATOM     30  C   UNL     1      33.428 -14.454 -24.797  0.00  0.00    +0.143 C 
ATOM     31  C   UNL     1      34.236 -12.547 -23.552  0.00  0.00    +0.019 C 
ATOM     32  C   UNL     1      33.163 -13.629 -25.890  0.00  0.00    +0.038 C 
ATOM     33  C   UNL     1      33.971 -11.722 -24.646  0.00  0.00    +0.058 C 
ATOM     34  C   UNL     1      33.434 -12.262 -25.814  0.00  0.00    +0.015 C 
BRANCH  30  35
ATOM     35  O   UNL     1      33.156 -15.786 -24.892  0.00  0.00    -0.471 OA
ATOM     36  C   UNL     1      33.897 -16.531 -25.857  0.00  0.00    +0.252 C 
ENDBRANCH  30  35
ENDBRANCH  26  29
ENDBRANCH  23  25
ENDBRANCH  22  23
ENDBRANCH   2  22
TORSDOF 8
ENDMDL
MODEL 4
REMARK VINA RESULT:     -10.8      6.640     10.411
REMARK  Name = 3488
REMARK  8 active torsions:
REMARK  status: ('A' for Active; 'I' for Inactive)
REMARK    1  A    between atoms: C_1  and  S_7
REMARK    2  A    between atoms: C_2  and  C_22
REMARK    3  A    between atoms: S_7  and  N_12
REMARK    4  A    between atoms: N_11  and  C_16
REMARK    5  A    between atoms: C_22  and  C_23
REMARK    6  A    between atoms: C_23  and  N_25
REMARK    7  A    between atoms: C_26  and  C_29
REMARK    8  A    between atoms: C_30  and  O_35
REMARK                            x       y       z     vdW  Elec       q    Type
REMARK                         _______ _______ _______ _____ _____    ______ ____
ROOT
ATOM      1  C   UNL     1      32.845 -12.845 -22.858  0.00  0.00    +0.125 C 
ATOM      2  C   UNL     1      31.707 -11.346 -20.827  0.00  0.00    -0.020 C 
ATOM      3  C   UNL     1      32.578 -13.448 -21.642  0.00  0.00    +0.020 C 
ATOM      4  C   UNL     1      32.557 -11.510 -23.084  0.00  0.00    +0.020 C 
ATOM      5  C   UNL     1      32.005 -12.693 -20.618  0.00  0.00    -0.003 C 
ATOM      6  C   UNL     1      31.982 -10.755 -22.061  0.00  0.00    -0.003 C 
ENDROOT
BRANCH   1   7
ATOM      7  S   UNL     1      33.572 -13.802 -24.155  0.00  0.00    +0.077 S 
ATOM      8  O   UNL     1      34.593 -12.993 -24.793  0.00  0.00    -0.150 OA
ATOM      9  O   UNL     1      32.480 -14.355 -24.931  0.00  0.00    -0.150 OA
BRANCH   7  12
ATOM     10  O   UNL     1      34.718 -16.564 -24.994  0.00  0.00    -0.251 OA
ATOM     11  N   UNL     1      35.356 -17.106 -22.839  0.00  0.00    -0.289 N 
ATOM     12  N   UNL     1      34.319 -15.052 -23.260  0.00  0.00    -0.169 N 
ATOM     13  C   UNL     1      34.799 -16.286 -23.802  0.00  0.00    +0.319 C 
ATOM     14  H   UNL     1      35.373 -16.793 -21.907  0.00  0.00    +0.151 HD
ATOM     15  H   UNL     1      34.428 -14.910 -22.291  0.00  0.00    +0.178 HD
BRANCH  11  16
ATOM     16  C   UNL     1      35.916 -18.405 -23.142  0.00  0.00    +0.073 C 
ATOM     17  C   UNL     1      34.829 -19.487 -23.138  0.00  0.00    +0.020 C 
ATOM     18  C   UNL     1      37.051 -18.755 -22.176  0.00  0.00    +0.020 C 
ATOM     19  C   UNL     1      34.327 -19.805 -21.730  0.00  0.00    +0.002 C 
ATOM     20  C   UNL     1      36.545 -19.075 -20.769  0.00  0.00    +0.002 C 
ATOM     21  C   UNL     1      35.474 -20.161 -20.789  0.00  0.00    +0.000 C 
ENDBRANCH  11  16
ENDBRANCH   7  12
ENDBRANCH   1   7
BRANCH   2  22
ATOM     22  C   UNL     1      31.095 -10.538 -19.734  0.00  0.00    +0.048 C 
BRANCH  22  23
ATOM     23  C   UNL     1      31.842  -9.230 -19.446  0.00  0.00    +0.094 C 
BRANCH  23  25
ATOM     24  O   UNL     1      33.094  -6.651 -19.599  0.00  0.00    -0.270 OA
ATOM     25  N   UNL     1      32.006  -8.424 -20.625  0.00  0.00    -0.300 N 
ATOM     26  C   UNL     1      32.628  -7.182 -20.605  0.00  0.00    +0.249 C 
ATOM     27  H   UNL     1      31.663  -8.766 -21.483  0.00  0.00    +0.150 HD
BRANCH  26  29
ATOM     28 CL   UNL     1      30.934  -3.286 -23.530  0.00  0.00    -0.082 Cl
ATOM     29  C   UNL     1      32.694  -6.462 -21.902  0.00  0.00    +0.088 C 
ATOM     30  C   UNL     1      33.549  -6.905 -22.890  0.00  0.00    +0.143 C 
ATOM     31  C   UNL     1      31.884  -5.357 -22.074  0.00  0.00    +0.019 C 
ATOM     32  C   UNL     1      33.597  -6.216 -24.102  0.00  0.00    +0.038 C 
ATOM     33  C   UNL     1      31.932  -4.667 -23.285  0.00  0.00    +0.058 C 
ATOM     34  C   UNL     1      32.787  -5.097 -24.300  0.00  0.00    +0.015 C 
BRANCH  30  35
ATOM     35  O   UNL     1      34.348  -7.997 -22.717  0.00  0.00    -0.471 OA
ATOM     36  C   UNL     1      34.639  -8.775 -23.876  0.00  0.00    +0.252 C 
ENDBRANCH  30  35
ENDBRANCH  26  29
ENDBRANCH  23  25
ENDBRANCH  22  23
ENDBRANCH   2  22
TORSDOF 8
ENDMDL
MODEL 5
REMARK VINA RESULT:     -10.8      4.035     12.000
REMARK  Name = 3488
REMARK  8 active torsions:
REMARK  status: ('A' for Active; 'I' for Inactive)
REMARK    1  A    between atoms: C_1  and  S_7
REMARK    2  A    between atoms: C_2  and  C_22
REMARK    3  A    between atoms: S_7  and  N_12
REMARK    4  A    between atoms: N_11  and  C_16
REMARK    5  A    between atoms: C_22  and  C_23
REMARK    6  A    between atoms: C_23  and  N_25
REMARK    7  A    between atoms: C_26  and  C_29
REMARK    8  A    between atoms: C_30  and  O_35
REMARK                            x       y       z     vdW  Elec       q    Type
REMARK                         _______ _______ _______ _____ _____    ______ ____
ROOT
ATOM      1  C   UNL     1      34.622 -17.749 -23.817  0.00  0.00    +0.125 C 
ATOM      2  C   UNL     1      35.612 -19.091 -21.607  0.00  0.00    -0.020 C 
ATOM      3  C   UNL     1      34.418 -19.113 -23.709  0.00  0.00    +0.020 C 
ATOM      4  C   UNL     1      35.307 -17.039 -22.847  0.00  0.00    +0.020 C 
ATOM      5  C   UNL     1      34.918 -19.790 -22.595  0.00  0.00    -0.003 C 
ATOM      6  C   UNL     1      35.806 -17.715 -21.732  0.00  0.00    -0.003 C 
ENDROOT
BRANCH   1   7
ATOM      7  S   UNL     1      33.990 -16.891 -25.228  0.00  0.00    +0.077 S 
ATOM      8  O   UNL     1      32.649 -17.380 -25.489  0.00  0.00    -0.150 OA
ATOM      9  O   UNL     1      35.011 -16.962 -26.254  0.00  0.00    -0.150 OA
BRANCH   7  12
ATOM     10  O   UNL     1      33.143 -14.213 -26.554  0.00  0.00    -0.251 OA
ATOM     11  N   UNL     1      33.516 -12.986 -24.630  0.00  0.00    -0.289 N 
ATOM     12  N   UNL     1      33.902 -15.293 -24.627  0.00  0.00    -0.169 N 
ATOM     13  C   UNL     1      33.487 -14.148 -25.378  0.00  0.00    +0.319 C 
ATOM     14  H   UNL     1      33.808 -13.037 -23.692  0.00  0.00    +0.151 HD
ATOM     15  H   UNL     1      34.158 -15.150 -23.687  0.00  0.00    +0.178 HD
BRANCH  11  16
ATOM     16  C   UNL     1      33.136 -11.697 -25.166  0.00  0.00    +0.073 C 
ATOM     17  C   UNL     1      34.257 -11.107 -26.029  0.00  0.00    +0.020 C 
ATOM     18  C   UNL     1      32.730 -10.733 -24.047  0.00  0.00    +0.020 C 
ATOM     19  C   UNL     1      35.449 -10.638 -25.196  0.00  0.00    +0.002 C 
ATOM     20  C   UNL     1      33.926 -10.263 -23.218  0.00  0.00    +0.002 C 
ATOM     21  C   UNL     1      35.022  -9.670 -24.096  0.00  0.00    +0.000 C 
ENDBRANCH  11  16
ENDBRANCH   7  12
ENDBRANCH   1   7
BRANCH   2  22
ATOM     22  C   UNL     1      36.145 -19.814 -20.417  0.00  0.00    +0.048 C 
BRANCH  22  23
ATOM     23  C   UNL     1      35.751 -21.296 -20.372  0.00  0.00    +0.094 C 
BRANCH  23  25
ATOM     24  O   UNL     1      34.121 -23.592 -19.817  0.00  0.00    -0.270 OA
ATOM     25  N   UNL     1      35.217 -21.680 -19.094  0.00  0.00    -0.300 N 
ATOM     26  C   UNL     1      34.433 -22.814 -18.919  0.00  0.00    +0.249 C 
ATOM     27  H   UNL     1      35.413 -21.117 -18.310  0.00  0.00    +0.150 HD
BRANCH  26  29
ATOM     28 CL   UNL     1      30.385 -23.444 -15.785  0.00  0.00    -0.082 Cl
ATOM     29  C   UNL     1      33.935 -23.058 -17.541  0.00  0.00    +0.088 C 
ATOM     30  C   UNL     1      34.832 -23.210 -16.503  0.00  0.00    +0.143 C 
ATOM     31  C   UNL     1      32.569 -23.126 -17.346  0.00  0.00    +0.019 C 
ATOM     32  C   UNL     1      34.345 -23.438 -15.217  0.00  0.00    +0.038 C 
ATOM     33  C   UNL     1      32.082 -23.355 -16.059  0.00  0.00    +0.058 C 
ATOM     34  C   UNL     1      32.970 -23.510 -14.995  0.00  0.00    +0.015 C 
BRANCH  30  35
ATOM     35  O   UNL     1      36.180 -23.142 -16.699  0.00  0.00    -0.471 OA
ATOM     36  C   UNL     1      36.934 -22.386 -15.755  0.00  0.00    +0.252 C 
ENDBRANCH  30  35
ENDBRANCH  26  29
ENDBRANCH  23  25
ENDBRANCH  22  23
ENDBRANCH   2  22
TORSDOF 8
ENDMDL
MODEL 6
REMARK VINA RESULT:     -10.4      1.853      2.617
REMARK  Name = 3488
REMARK  8 active torsions:
REMARK  status: ('A' for Active; 'I' for Inactive)
REMARK    1  A    between atoms: C_1  and  S_7
REMARK    2  A    between atoms: C_2  and  C_22
REMARK    3  A    between atoms: S_7  and  N_12
REMARK    4  A    between atoms: N_11  and  C_16
REMARK    5  A    between atoms: C_22  and  C_23
REMARK    6  A    between atoms: C_23  and  N_25
REMARK    7  A    between atoms: C_26  and  C_29
REMARK    8  A    between atoms: C_30  and  O_35
REMARK                            x       y       z     vdW  Elec       q    Type
REMARK                         _______ _______ _______ _____ _____    ______ ____
ROOT
ATOM      1  C   UNL     1      34.529 -21.357 -19.932  0.00  0.00    +0.125 C 
ATOM      2  C   UNL     1      35.618 -19.279 -21.402  0.00  0.00    -0.020 C 
ATOM      3  C   UNL     1      33.696 -20.567 -20.703  0.00  0.00    +0.020 C 
ATOM      4  C   UNL     1      35.894 -21.134 -19.877  0.00  0.00    +0.020 C 
ATOM      5  C   UNL     1      34.244 -19.519 -21.445  0.00  0.00    -0.003 C 
ATOM      6  C   UNL     1      36.443 -20.088 -20.619  0.00  0.00    -0.003 C 
ENDROOT
BRANCH   1   7
ATOM      7  S   UNL     1      33.834 -22.684 -18.992  0.00  0.00    +0.077 S 
ATOM      8  O   UNL     1      34.003 -23.909 -19.750  0.00  0.00    -0.150 OA
ATOM      9  O   UNL     1      32.515 -22.254 -18.572  0.00  0.00    -0.150 OA
BRANCH   7  12
ATOM     10  O   UNL     1      33.574 -23.992 -16.187  0.00  0.00    -0.251 OA
ATOM     11  N   UNL     1      35.634 -23.213 -15.484  0.00  0.00    -0.289 N 
ATOM     12  N   UNL     1      34.877 -22.708 -17.638  0.00  0.00    -0.169 N 
ATOM     13  C   UNL     1      34.608 -23.365 -16.396  0.00  0.00    +0.319 C 
ATOM     14  H   UNL     1      36.425 -22.690 -15.747  0.00  0.00    +0.151 HD
ATOM     15  H   UNL     1      35.735 -22.230 -17.721  0.00  0.00    +0.178 HD
BRANCH  11  16
ATOM     16  C   UNL     1      35.598 -23.791 -14.158  0.00  0.00    +0.073 C 
ATOM     17  C   UNL     1      36.868 -23.446 -13.372  0.00  0.00    +0.020 C 
ATOM     18  C   UNL     1      35.379 -25.305 -14.222  0.00  0.00    +0.020 C 
ATOM     19  C   UNL     1      38.095 -24.196 -13.888  0.00  0.00    +0.002 C 
ATOM     20  C   UNL     1      36.609 -26.053 -14.735  0.00  0.00    +0.002 C 
ATOM     21  C   UNL     1      37.857 -25.703 -13.931  0.00  0.00    +0.000 C 
ENDBRANCH  11  16
ENDBRANCH   7  12
ENDBRANCH   1   7
BRANCH   2  22
ATOM     22  C   UNL     1      36.205 -18.160 -22.194  0.00  0.00    +0.048 C 
BRANCH  22  23
ATOM     23  C   UNL     1      35.296 -17.669 -23.329  0.00  0.00    +0.094 C 
BRANCH  23  25
ATOM     24  O   UNL     1      33.820 -16.038 -25.172  0.00  0.00    -0.270 OA
ATOM     25  N   UNL     1      34.786 -16.347 -23.087  0.00  0.00    -0.300 N 
ATOM     26  C   UNL     1      34.080 -15.629 -24.043  0.00  0.00    +0.249 C 
ATOM     27  H   UNL     1      34.945 -15.932 -22.207  0.00  0.00    +0.150 HD
BRANCH  26  29
ATOM     28 CL   UNL     1      32.218 -12.533 -20.361  0.00  0.00    -0.082 Cl
ATOM     29  C   UNL     1      33.645 -14.264 -23.648  0.00  0.00    +0.088 C 
ATOM     30  C   UNL     1      33.698 -13.234 -24.564  0.00  0.00    +0.143 C 
ATOM     31  C   UNL     1      33.196 -14.075 -22.355  0.00  0.00    +0.019 C 
ATOM     32  C   UNL     1      33.285 -11.961 -24.174  0.00  0.00    +0.038 C 
ATOM     33  C   UNL     1      32.783 -12.801 -21.965  0.00  0.00    +0.058 C 
ATOM     34  C   UNL     1      32.827 -11.744 -22.874  0.00  0.00    +0.015 C 
BRANCH  30  35
ATOM     35  O   UNL     1      34.142 -13.425 -25.839  0.00  0.00    -0.471 OA
ATOM     36  C   UNL     1      33.290 -12.983 -26.893  0.00  0.00    +0.252 C 
ENDBRANCH  30  35
ENDBRANCH  26  29
ENDBRANCH  23  25
ENDBRANCH  22  23
ENDBRANCH   2  22
TORSDOF 8
ENDMDL
MODEL 7
REMARK VINA RESULT:     -10.0      3.860     11.060
REMARK  Name = 3488
REMARK  8 active torsions:
REMARK  status: ('A' for Active; 'I' for Inactive)
REMARK    1  A    between atoms: C_1  and  S_7
REMARK    2  A    between atoms: C_2  and  C_22
REMARK    3  A    between atoms: S_7  and  N_12
REMARK    4  A    between atoms: N_11  and  C_16
REMARK    5  A    between atoms: C_22  and  C_23
REMARK    6  A    between atoms: C_23  and  N_25
REMARK    7  A    between atoms: C_26  and  C_29
REMARK    8  A    between atoms: C_30  and  O_35
REMARK                            x       y       z     vdW  Elec       q    Type
REMARK                         _______ _______ _______ _____ _____    ______ ____
ROOT
ATOM      1  C   UNL     1      34.643 -18.293 -23.897  0.00  0.00    +0.125 C 
ATOM      2  C   UNL     1      35.544 -19.534 -21.592  0.00  0.00    -0.020 C 
ATOM      3  C   UNL     1      33.841 -19.238 -23.282  0.00  0.00    +0.020 C 
ATOM      4  C   UNL     1      35.884 -17.952 -23.388  0.00  0.00    +0.020 C 
ATOM      5  C   UNL     1      34.296 -19.864 -22.120  0.00  0.00    -0.003 C 
ATOM      6  C   UNL     1      36.338 -18.577 -22.226  0.00  0.00    -0.003 C 
ENDROOT
BRANCH   1   7
ATOM      7  S   UNL     1      34.067 -17.500 -25.369  0.00  0.00    +0.077 S 
ATOM      8  O   UNL     1      33.008 -18.314 -25.934  0.00  0.00    -0.150 OA
ATOM      9  O   UNL     1      35.241 -17.170 -26.154  0.00  0.00    -0.150 OA
BRANCH   7  12
ATOM     10  O   UNL     1      35.234 -15.311 -23.499  0.00  0.00    -0.251 OA
ATOM     11  N   UNL     1      33.280 -14.075 -23.504  0.00  0.00    -0.289 N 
ATOM     12  N   UNL     1      33.396 -16.065 -24.727  0.00  0.00    -0.169 N 
ATOM     13  C   UNL     1      34.074 -15.147 -23.864  0.00  0.00    +0.319 C 
ATOM     14  H   UNL     1      32.360 -14.033 -23.849  0.00  0.00    +0.151 HD
ATOM     15  H   UNL     1      32.466 -15.853 -24.973  0.00  0.00    +0.178 HD
BRANCH  11  16
ATOM     16  C   UNL     1      33.743 -13.010 -22.641  0.00  0.00    +0.073 C 
ATOM     17  C   UNL     1      33.572 -13.384 -21.164  0.00  0.00    +0.020 C 
ATOM     18  C   UNL     1      33.035 -11.691 -22.965  0.00  0.00    +0.020 C 
ATOM     19  C   UNL     1      32.108 -13.379 -20.726  0.00  0.00    +0.002 C 
ATOM     20  C   UNL     1      31.571 -11.689 -22.523  0.00  0.00    +0.002 C 
ATOM     21  C   UNL     1      31.428 -12.052 -21.049  0.00  0.00    +0.000 C 
ENDBRANCH  11  16
ENDBRANCH   7  12
ENDBRANCH   1   7
BRANCH   2  22
ATOM     22  C   UNL     1      36.030 -20.202 -20.351  0.00  0.00    +0.048 C 
BRANCH  22  23
ATOM     23  C   UNL     1      35.587 -21.666 -20.229  0.00  0.00    +0.094 C 
BRANCH  23  25
ATOM     24  O   UNL     1      33.997 -23.965 -19.577  0.00  0.00    -0.270 OA
ATOM     25  N   UNL     1      34.952 -21.941 -18.969  0.00  0.00    -0.300 N 
ATOM     26  C   UNL     1      34.197 -23.085 -18.743  0.00  0.00    +0.249 C 
ATOM     27  H   UNL     1      35.054 -21.291 -18.236  0.00  0.00    +0.150 HD
BRANCH  26  29
ATOM     28 CL   UNL     1      29.909 -23.053 -15.877  0.00  0.00    -0.082 Cl
ATOM     29  C   UNL     1      33.583 -23.209 -17.396  0.00  0.00    +0.088 C 
ATOM     30  C   UNL     1      34.383 -23.439 -16.296  0.00  0.00    +0.143 C 
ATOM     31  C   UNL     1      32.211 -23.087 -17.294  0.00  0.00    +0.019 C 
ATOM     32  C   UNL     1      33.788 -23.552 -15.040  0.00  0.00    +0.038 C 
ATOM     33  C   UNL     1      31.616 -23.201 -16.038  0.00  0.00    +0.058 C 
ATOM     34  C   UNL     1      32.404 -23.432 -14.911  0.00  0.00    +0.015 C 
BRANCH  30  35
ATOM     35  O   UNL     1      35.737 -23.559 -16.401  0.00  0.00    -0.471 OA
ATOM     36  C   UNL     1      36.528 -22.599 -15.704  0.00  0.00    +0.252 C 
ENDBRANCH  30  35
ENDBRANCH  26  29
ENDBRANCH  23  25
ENDBRANCH  22  23
ENDBRANCH   2  22
TORSDOF 8
ENDMDL
MODEL 8
REMARK VINA RESULT:     -10.0      3.961     11.610
REMARK  Name = 3488
REMARK  8 active torsions:
REMARK  status: ('A' for Active; 'I' for Inactive)
REMARK    1  A    between atoms: C_1  and  S_7
REMARK    2  A    between atoms: C_2  and  C_22
REMARK    3  A    between atoms: S_7  and  N_12
REMARK    4  A    between atoms: N_11  and  C_16
REMARK    5  A    between atoms: C_22  and  C_23
REMARK    6  A    between atoms: C_23  and  N_25
REMARK    7  A    between atoms: C_26  and  C_29
REMARK    8  A    between atoms: C_30  and  O_35
REMARK                            x       y       z     vdW  Elec       q    Type
REMARK                         _______ _______ _______ _____ _____    ______ ____
ROOT
ATOM      1  C   UNL     1      35.075 -20.566 -20.631  0.00  0.00    +0.125 C 
ATOM      2  C   UNL     1      34.107 -22.422 -18.819  0.00  0.00    -0.020 C 
ATOM      3  C   UNL     1      33.708 -20.742 -20.510  0.00  0.00    +0.020 C 
ATOM      4  C   UNL     1      35.971 -21.294 -19.867  0.00  0.00    +0.020 C 
ATOM      5  C   UNL     1      33.220 -21.678 -19.597  0.00  0.00    -0.003 C 
ATOM      6  C   UNL     1      35.483 -22.229 -18.953  0.00  0.00    -0.003 C 
ENDROOT
BRANCH   1   7
ATOM      7  S   UNL     1      35.694 -19.381 -21.788  0.00  0.00    +0.077 S 
ATOM      8  O   UNL     1      35.144 -19.695 -23.092  0.00  0.00    -0.150 OA
ATOM      9  O   UNL     1      37.128 -19.311 -21.591  0.00  0.00    -0.150 OA
BRANCH   7  12
ATOM     10  O   UNL     1      36.041 -16.400 -22.591  0.00  0.00    -0.251 OA
ATOM     11  N   UNL     1      34.515 -15.659 -21.021  0.00  0.00    -0.289 N 
ATOM     12  N   UNL     1      34.974 -17.945 -21.202  0.00  0.00    -0.169 N 
ATOM     13  C   UNL     1      35.245 -16.626 -21.684  0.00  0.00    +0.319 C 
ATOM     14  H   UNL     1      33.901 -15.941 -20.305  0.00  0.00    +0.151 HD
ATOM     15  H   UNL     1      34.317 -18.035 -20.473  0.00  0.00    +0.178 HD
BRANCH  11  16
ATOM     16  C   UNL     1      34.611 -14.249 -21.332  0.00  0.00    +0.073 C 
ATOM     17  C   UNL     1      33.561 -13.442 -20.560  0.00  0.00    +0.020 C 
ATOM     18  C   UNL     1      34.498 -14.009 -22.840  0.00  0.00    +0.020 C 
ATOM     19  C   UNL     1      32.145 -13.670 -21.088  0.00  0.00    +0.002 C 
ATOM     20  C   UNL     1      33.080 -14.236 -23.364  0.00  0.00    +0.002 C 
ATOM     21  C   UNL     1      32.055 -13.413 -22.589  0.00  0.00    +0.000 C 
ENDBRANCH  11  16
ENDBRANCH   7  12
ENDBRANCH   1   7
BRANCH   2  22
ATOM     22  C   UNL     1      33.586 -23.423 -17.843  0.00  0.00    +0.048 C 
BRANCH  22  23
ATOM     23  C   UNL     1      33.774 -23.006 -16.379  0.00  0.00    +0.094 C 
BRANCH  23  25
ATOM     24  O   UNL     1      36.370 -22.194 -15.461  0.00  0.00    -0.270 OA
ATOM     25  N   UNL     1      34.739 -23.826 -15.698  0.00  0.00    -0.300 N 
ATOM     26  C   UNL     1      35.977 -23.345 -15.289  0.00  0.00    +0.249 C 
ATOM     27  H   UNL     1      34.514 -24.768 -15.514  0.00  0.00    +0.150 HD
BRANCH  26  29
ATOM     28 CL   UNL     1      40.509 -25.808 -15.261  0.00  0.00    -0.082 Cl
ATOM     29  C   UNL     1      36.872 -24.326 -14.622  0.00  0.00    +0.088 C 
ATOM     30  C   UNL     1      36.455 -24.963 -13.471  0.00  0.00    +0.143 C 
ATOM     31  C   UNL     1      38.107 -24.568 -15.190  0.00  0.00    +0.019 C 
ATOM     32  C   UNL     1      37.309 -25.881 -12.860  0.00  0.00    +0.038 C 
ATOM     33  C   UNL     1      38.962 -25.485 -14.578  0.00  0.00    +0.058 C 
ATOM     34  C   UNL     1      38.563 -26.142 -13.414  0.00  0.00    +0.015 C 
BRANCH  30  35
ATOM     35  O   UNL     1      35.234 -24.722 -12.914  0.00  0.00    -0.471 OA
ATOM     36  C   UNL     1      35.221 -24.141 -11.613  0.00  0.00    +0.252 C 
ENDBRANCH  30  35
ENDBRANCH  26  29
ENDBRANCH  23  25
ENDBRANCH  22  23
ENDBRANCH   2  22
TORSDOF 8
ENDMDL
MODEL 9
REMARK VINA RESULT:      -9.7      8.010     15.281
REMARK  Name = 3488
REMARK  8 active torsions:
REMARK  status: ('A' for Active; 'I' for Inactive)
REMARK    1  A    between atoms: C_1  and  S_7
REMARK    2  A    between atoms: C_2  and  C_22
REMARK    3  A    between atoms: S_7  and  N_12
REMARK    4  A    between atoms: N_11  and  C_16
REMARK    5  A    between atoms: C_22  and  C_23
REMARK    6  A    between atoms: C_23  and  N_25
REMARK    7  A    between atoms: C_26  and  C_29
REMARK    8  A    between atoms: C_30  and  O_35
REMARK                            x       y       z     vdW  Elec       q    Type
REMARK                         _______ _______ _______ _____ _____    ______ ____
ROOT
ATOM      1  C   UNL     1      33.076  -8.602 -22.717  0.00  0.00    +0.125 C 
ATOM      2  C   UNL     1      33.811 -10.907 -24.065  0.00  0.00    -0.020 C 
ATOM      3  C   UNL     1      32.291  -9.735 -22.596  0.00  0.00    +0.020 C 
ATOM      4  C   UNL     1      34.220  -8.593 -23.496  0.00  0.00    +0.020 C 
ATOM      5  C   UNL     1      32.661 -10.897 -23.275  0.00  0.00    -0.003 C 
ATOM      6  C   UNL     1      34.592  -9.755 -24.174  0.00  0.00    -0.003 C 
ENDROOT
BRANCH   1   7
ATOM      7  S   UNL     1      32.607  -7.131 -21.857  0.00  0.00    +0.077 S 
ATOM      8  O   UNL     1      33.413  -7.035 -20.655  0.00  0.00    -0.150 OA
ATOM      9  O   UNL     1      31.160  -7.137 -21.773  0.00  0.00    -0.150 OA
BRANCH   7  12
ATOM     10  O   UNL     1      31.650  -6.428 -24.727  0.00  0.00    -0.251 OA
ATOM     11  N   UNL     1      33.154  -4.685 -24.947  0.00  0.00    -0.289 N 
ATOM     12  N   UNL     1      33.103  -5.930 -22.968  0.00  0.00    -0.169 N 
ATOM     13  C   UNL     1      32.555  -5.733 -24.275  0.00  0.00    +0.319 C 
ATOM     14  H   UNL     1      33.874  -4.187 -24.498  0.00  0.00    +0.151 HD
ATOM     15  H   UNL     1      33.825  -5.323 -22.683  0.00  0.00    +0.178 HD
BRANCH  11  16
ATOM     16  C   UNL     1      32.769  -4.288 -26.284  0.00  0.00    +0.073 C 
ATOM     17  C   UNL     1      33.865  -4.633 -27.298  0.00  0.00    +0.020 C 
ATOM     18  C   UNL     1      32.414  -2.799 -26.335  0.00  0.00    +0.020 C 
ATOM     19  C   UNL     1      35.091  -3.731 -27.163  0.00  0.00    +0.002 C 
ATOM     20  C   UNL     1      33.643  -1.899 -26.202  0.00  0.00    +0.002 C 
ATOM     21  C   UNL     1      34.714  -2.254 -27.228  0.00  0.00    +0.000 C 
ENDBRANCH  11  16
ENDBRANCH   7  12
ENDBRANCH   1   7
BRANCH   2  22
ATOM     22  C   UNL     1      34.207 -12.147 -24.791  0.00  0.00    +0.048 C 
BRANCH  22  23
ATOM     23  C   UNL     1      33.115 -13.225 -24.805  0.00  0.00    +0.094 C 
BRANCH  23  25
ATOM     24  O   UNL     1      33.779 -15.494 -26.432  0.00  0.00    -0.270 OA
ATOM     25  N   UNL     1      33.599 -14.498 -24.345  0.00  0.00    -0.300 N 
ATOM     26  C   UNL     1      33.896 -15.544 -25.210  0.00  0.00    +0.249 C 
ATOM     27  H   UNL     1      33.725 -14.636 -23.378  0.00  0.00    +0.150 HD
BRANCH  26  29
ATOM     28 CL   UNL     1      34.344 -20.674 -25.505  0.00  0.00    -0.082 Cl
ATOM     29  C   UNL     1      34.360 -16.805 -24.576  0.00  0.00    +0.088 C 
ATOM     30  C   UNL     1      34.975 -16.767 -23.342  0.00  0.00    +0.143 C 
ATOM     31  C   UNL     1      34.155 -17.988 -25.259  0.00  0.00    +0.019 C 
ATOM     32  C   UNL     1      35.404 -17.961 -22.763  0.00  0.00    +0.038 C 
ATOM     33  C   UNL     1      34.585 -19.183 -24.680  0.00  0.00    +0.058 C 
ATOM     34  C   UNL     1      35.208 -19.169 -23.432  0.00  0.00    +0.015 C 
BRANCH  30  35
ATOM     35  O   UNL     1      35.175 -15.596 -22.672  0.00  0.00    -0.471 OA
ATOM     36  C   UNL     1      34.914 -15.601 -21.270  0.00  0.00    +0.252 C 
ENDBRANCH  30  35
ENDBRANCH  26  29
ENDBRANCH  23  25
ENDBRANCH  22  23
ENDBRANCH   2  22
TORSDOF 8
ENDMDL
