MODEL 1
REMARK VINA RESULT:     -11.6      0.000      0.000
REMARK  Name = 54726191
REMARK  4 active torsions:
REMARK  status: ('A' for Active; 'I' for Inactive)
REMARK    1  A    between atoms: C_15  and  O_31
REMARK    2  A    between atoms: C_16  and  C_20
REMARK    3  A    between atoms: N_19  and  C_22
REMARK    4  A    between atoms: C_22  and  C_25
REMARK                            x       y       z     vdW  Elec       q    Type
REMARK                         _______ _______ _______ _____ _____    ______ ____
ROOT
ATOM      1  O   UNL     1      37.372 -23.132 -15.699  0.00  0.00    -0.336 OA
ATOM      2  O   UNL     1      33.392 -23.855 -18.088  0.00  0.00    -0.268 OA
ATOM      3  O   UNL     1      33.590 -20.146 -21.569  0.00  0.00    -0.283 OA
ATOM      4  N   UNL     1      35.219 -23.350 -16.759  0.00  0.00    -0.253 N 
ATOM      5  N   UNL     1      36.138 -21.615 -18.780  0.00  0.00    -0.275 N 
ATOM      6  C   UNL     1      36.388 -22.495 -16.523  0.00  0.00    +0.215 C 
ATOM      7  C   UNL     1      34.700 -24.141 -15.629  0.00  0.00    +0.080 C 
ATOM      8  C   UNL     1      35.833 -24.695 -14.764  0.00  0.00    +0.052 C 
ATOM      9  C   UNL     1      37.089 -22.182 -17.835  0.00  0.00    +0.147 C 
ATOM     10  C   UNL     1      36.856 -23.616 -14.466  0.00  0.00    +0.146 C 
ATOM     11  C   UNL     1      34.407 -23.187 -17.890  0.00  0.00    +0.267 C 
ATOM     12  C   UNL     1      34.835 -22.114 -18.865  0.00  0.00    +0.143 C 
ATOM     13  C   UNL     1      33.711 -23.311 -14.801  0.00  0.00    +0.022 C 
ATOM     14  C   UNL     1      36.542 -20.638 -19.678  0.00  0.00    +0.074 C 
ATOM     15  C   UNL     1      33.940 -21.663 -19.772  0.00  0.00    +0.191 C 
ATOM     16  C   UNL     1      35.766 -20.101 -20.627  0.00  0.00    +0.110 C 
ATOM     17  C   UNL     1      34.367 -20.593 -20.731  0.00  0.00    +0.236 C 
ENDROOT
BRANCH  16  20
ATOM     18  O   UNL     1      37.538 -18.819 -21.484  0.00  0.00    -0.270 OA
ATOM     19  N   UNL     1      35.384 -18.461 -22.303  0.00  0.00    -0.297 N 
ATOM     20  C   UNL     1      36.332 -19.074 -21.500  0.00  0.00    +0.251 C 
ATOM     21  H   UNL     1      34.447 -18.753 -22.224  0.00  0.00    +0.150 HD
BRANCH  19  22
ATOM     22  C   UNL     1      35.698 -17.414 -23.249  0.00  0.00    +0.119 C 
BRANCH  22  25
ATOM     23  F   UNL     1      34.270 -15.999 -25.241  0.00  0.00    -0.204 F 
ATOM     24  F   UNL     1      32.834 -12.685 -22.184  0.00  0.00    -0.204 F 
ATOM     25  C   UNL     1      34.934 -16.153 -22.967  0.00  0.00    +0.025 C 
ATOM     26  C   UNL     1      34.251 -15.504 -23.996  0.00  0.00    +0.140 C 
ATOM     27  C   UNL     1      34.908 -15.631 -21.674  0.00  0.00    +0.002 C 
ATOM     28  C   UNL     1      33.541 -14.332 -23.731  0.00  0.00    +0.059 C 
ATOM     29  C   UNL     1      34.198 -14.459 -21.410  0.00  0.00    +0.030 C 
ATOM     30  C   UNL     1      33.515 -13.809 -22.438  0.00  0.00    +0.142 C 
ENDBRANCH  22  25
ENDBRANCH  19  22
ENDBRANCH  16  20
BRANCH  15  31
ATOM     31  O   UNL     1      32.642 -22.111 -19.867  0.00  0.00    -0.502 OA
ATOM     32  H   UNL     1      32.304 -22.396 -20.694  0.00  0.00    +0.292 HD
ENDBRANCH  15  31
TORSDOF 4
ENDMDL
MODEL 2
REMARK VINA RESULT:     -11.3      3.989      9.650
REMARK  Name = 54726191
REMARK  4 active torsions:
REMARK  status: ('A' for Active; 'I' for Inactive)
REMARK    1  A    between atoms: C_15  and  O_31
REMARK    2  A    between atoms: C_16  and  C_20
REMARK    3  A    between atoms: N_19  and  C_22
REMARK    4  A    between atoms: C_22  and  C_25
REMARK                            x       y       z     vdW  Elec       q    Type
REMARK                         _______ _______ _______ _____ _____    ______ ____
ROOT
ATOM      1  O   UNL     1      34.093 -12.670 -23.672  0.00  0.00    -0.336 OA
ATOM      2  O   UNL     1      32.790 -16.347 -26.290  0.00  0.00    -0.268 OA
ATOM      3  O   UNL     1      35.315 -20.156 -24.047  0.00  0.00    -0.283 OA
ATOM      4  N   UNL     1      33.622 -14.504 -25.162  0.00  0.00    -0.253 N 
ATOM      5  N   UNL     1      34.670 -16.243 -23.209  0.00  0.00    -0.275 N 
ATOM      6  C   UNL     1      34.482 -13.983 -24.094  0.00  0.00    +0.215 C 
ATOM      7  C   UNL     1      33.207 -13.578 -26.232  0.00  0.00    +0.080 C 
ATOM      8  C   UNL     1      32.906 -12.184 -25.682  0.00  0.00    +0.052 C 
ATOM      9  C   UNL     1      34.383 -14.860 -22.858  0.00  0.00    +0.147 C 
ATOM     10  C   UNL     1      34.001 -11.732 -24.736  0.00  0.00    +0.146 C 
ATOM     11  C   UNL     1      33.465 -15.881 -25.372  0.00  0.00    +0.267 C 
ATOM     12  C   UNL     1      34.196 -16.786 -24.407  0.00  0.00    +0.143 C 
ATOM     13  C   UNL     1      34.264 -13.532 -27.342  0.00  0.00    +0.022 C 
ATOM     14  C   UNL     1      35.332 -17.070 -22.313  0.00  0.00    +0.074 C 
ATOM     15  C   UNL     1      34.382 -18.082 -24.742  0.00  0.00    +0.191 C 
ATOM     16  C   UNL     1      35.585 -18.369 -22.512  0.00  0.00    +0.110 C 
ATOM     17  C   UNL     1      35.115 -18.973 -23.786  0.00  0.00    +0.236 C 
ENDROOT
BRANCH  16  20
ATOM     18  O   UNL     1      37.367 -18.701 -21.018  0.00  0.00    -0.270 OA
ATOM     19  N   UNL     1      35.650 -20.277 -21.097  0.00  0.00    -0.297 N 
ATOM     20  C   UNL     1      36.300 -19.113 -21.475  0.00  0.00    +0.251 C 
ATOM     21  H   UNL     1      34.798 -20.499 -21.537  0.00  0.00    +0.150 HD
BRANCH  19  22
ATOM     22  C   UNL     1      36.158 -21.181 -20.091  0.00  0.00    +0.119 C 
BRANCH  22  25
ATOM     23  F   UNL     1      36.636 -22.565 -17.670  0.00  0.00    -0.204 F 
ATOM     24  F   UNL     1      32.030 -23.371 -16.950  0.00  0.00    -0.204 F 
ATOM     25  C   UNL     1      35.059 -21.766 -19.253  0.00  0.00    +0.025 C 
ATOM     26  C   UNL     1      35.364 -22.437 -18.068  0.00  0.00    +0.140 C 
ATOM     27  C   UNL     1      33.730 -21.636 -19.659  0.00  0.00    +0.002 C 
ATOM     28  C   UNL     1      34.340 -22.979 -17.291  0.00  0.00    +0.059 C 
ATOM     29  C   UNL     1      32.707 -22.179 -18.881  0.00  0.00    +0.030 C 
ATOM     30  C   UNL     1      33.012 -22.851 -17.697  0.00  0.00    +0.142 C 
ENDBRANCH  22  25
ENDBRANCH  19  22
ENDBRANCH  16  20
BRANCH  15  31
ATOM     31  O   UNL     1      33.954 -18.645 -25.923  0.00  0.00    -0.502 OA
ATOM     32  H   UNL     1      34.490 -19.273 -26.365  0.00  0.00    +0.292 HD
ENDBRANCH  15  31
TORSDOF 4
ENDMDL
MODEL 3
REMARK VINA RESULT:     -10.4      6.147     11.948
REMARK  Name = 54726191
REMARK  4 active torsions:
REMARK  status: ('A' for Active; 'I' for Inactive)
REMARK    1  A    between atoms: C_15  and  O_31
REMARK    2  A    between atoms: C_16  and  C_20
REMARK    3  A    between atoms: N_19  and  C_22
REMARK    4  A    between atoms: C_22  and  C_25
REMARK                            x       y       z     vdW  Elec       q    Type
REMARK                         _______ _______ _______ _____ _____    ______ ____
ROOT
ATOM      1  O   UNL     1      33.552  -6.734 -24.266  0.00  0.00    -0.336 OA
ATOM      2  O   UNL     1      32.007  -8.946 -20.421  0.00  0.00    -0.268 OA
ATOM      3  O   UNL     1      31.973 -13.797 -21.964  0.00  0.00    -0.283 OA
ATOM      4  N   UNL     1      32.527  -7.832 -22.383  0.00  0.00    -0.253 N 
ATOM      5  N   UNL     1      33.310 -10.295 -23.505  0.00  0.00    -0.275 N 
ATOM      6  C   UNL     1      32.886  -7.915 -23.803  0.00  0.00    +0.215 C 
ATOM      7  C   UNL     1      32.000  -6.553 -21.875  0.00  0.00    +0.080 C 
ATOM      8  C   UNL     1      32.718  -5.360 -22.506  0.00  0.00    +0.052 C 
ATOM      9  C   UNL     1      33.862  -9.057 -24.036  0.00  0.00    +0.147 C 
ATOM     10  C   UNL     1      32.833  -5.536 -24.007  0.00  0.00    +0.146 C 
ATOM     11  C   UNL     1      32.357  -8.983 -21.600  0.00  0.00    +0.267 C 
ATOM     12  C   UNL     1      32.611 -10.301 -22.295  0.00  0.00    +0.143 C 
ATOM     13  C   UNL     1      30.483  -6.475 -22.087  0.00  0.00    +0.022 C 
ATOM     14  C   UNL     1      33.557 -11.502 -24.145  0.00  0.00    +0.074 C 
ATOM     15  C   UNL     1      32.139 -11.436 -21.733  0.00  0.00    +0.191 C 
ATOM     16  C   UNL     1      33.151 -12.699 -23.703  0.00  0.00    +0.110 C 
ATOM     17  C   UNL     1      32.386 -12.739 -22.430  0.00  0.00    +0.236 C 
ENDROOT
BRANCH  16  20
ATOM     18  O   UNL     1      33.073 -14.021 -25.643  0.00  0.00    -0.270 OA
ATOM     19  N   UNL     1      34.279 -14.788 -23.800  0.00  0.00    -0.297 N 
ATOM     20  C   UNL     1      33.484 -13.886 -24.490  0.00  0.00    +0.251 C 
ATOM     21  H   UNL     1      34.544 -14.566 -22.879  0.00  0.00    +0.150 HD
BRANCH  19  22
ATOM     22  C   UNL     1      34.739 -16.037 -24.364  0.00  0.00    +0.119 C 
BRANCH  22  25
ATOM     23  F   UNL     1      34.378 -18.797 -24.869  0.00  0.00    -0.204 F 
ATOM     24  F   UNL     1      35.458 -19.990 -20.419  0.00  0.00    -0.204 F 
ATOM     25  C   UNL     1      34.930 -17.092 -23.314  0.00  0.00    +0.025 C 
ATOM     26  C   UNL     1      34.736 -18.437 -23.630  0.00  0.00    +0.140 C 
ATOM     27  C   UNL     1      35.304 -16.726 -22.020  0.00  0.00    +0.002 C 
ATOM     28  C   UNL     1      34.914 -19.416 -22.651  0.00  0.00    +0.059 C 
ATOM     29  C   UNL     1      35.482 -17.705 -21.042  0.00  0.00    +0.030 C 
ATOM     30  C   UNL     1      35.287 -19.050 -21.357  0.00  0.00    +0.142 C 
ENDBRANCH  22  25
ENDBRANCH  19  22
ENDBRANCH  16  20
BRANCH  15  31
ATOM     31  O   UNL     1      31.424 -11.478 -20.557  0.00  0.00    -0.502 OA
ATOM     32  H   UNL     1      30.562 -11.113 -20.519  0.00  0.00    +0.292 HD
ENDBRANCH  15  31
TORSDOF 4
ENDMDL
MODEL 4
REMARK VINA RESULT:      -9.9      4.924      8.415
REMARK  Name = 54726191
REMARK  4 active torsions:
REMARK  status: ('A' for Active; 'I' for Inactive)
REMARK    1  A    between atoms: C_15  and  O_31
REMARK    2  A    between atoms: C_16  and  C_20
REMARK    3  A    between atoms: N_19  and  C_22
REMARK    4  A    between atoms: C_22  and  C_25
REMARK                            x       y       z     vdW  Elec       q    Type
REMARK                         _______ _______ _______ _____ _____    ______ ____
ROOT
ATOM      1  O   UNL     1      35.849 -17.769 -20.426  0.00  0.00    -0.336 OA
ATOM      2  O   UNL     1      35.334 -16.719 -24.976  0.00  0.00    -0.268 OA
ATOM      3  O   UNL     1      32.214 -12.703 -24.762  0.00  0.00    -0.283 OA
ATOM      4  N   UNL     1      35.390 -17.389 -22.761  0.00  0.00    -0.253 N 
ATOM      5  N   UNL     1      34.248 -14.916 -22.043  0.00  0.00    -0.275 N 
ATOM      6  C   UNL     1      34.978 -17.141 -21.375  0.00  0.00    +0.215 C 
ATOM      7  C   UNL     1      35.860 -18.742 -23.112  0.00  0.00    +0.080 C 
ATOM      8  C   UNL     1      36.701 -19.353 -21.991  0.00  0.00    +0.052 C 
ATOM      9  C   UNL     1      35.033 -15.654 -21.065  0.00  0.00    +0.147 C 
ATOM     10  C   UNL     1      36.025 -19.161 -20.648  0.00  0.00    +0.146 C 
ATOM     11  C   UNL     1      35.046 -16.511 -23.798  0.00  0.00    +0.267 C 
ATOM     12  C   UNL     1      34.270 -15.279 -23.393  0.00  0.00    +0.143 C 
ATOM     13  C   UNL     1      34.675 -19.642 -23.484  0.00  0.00    +0.022 C 
ATOM     14  C   UNL     1      33.547 -13.780 -21.665  0.00  0.00    +0.074 C 
ATOM     15  C   UNL     1      33.610 -14.582 -24.344  0.00  0.00    +0.191 C 
ATOM     16  C   UNL     1      32.852 -12.996 -22.498  0.00  0.00    +0.110 C 
ATOM     17  C   UNL     1      32.835 -13.366 -23.937  0.00  0.00    +0.236 C 
ENDROOT
BRANCH  16  20
ATOM     18  O   UNL     1      31.452 -11.925 -20.944  0.00  0.00    -0.270 OA
ATOM     19  N   UNL     1      32.388 -10.672 -22.675  0.00  0.00    -0.297 N 
ATOM     20  C   UNL     1      32.157 -11.831 -21.950  0.00  0.00    +0.251 C 
ATOM     21  H   UNL     1      32.973 -10.725 -23.464  0.00  0.00    +0.150 HD
BRANCH  19  22
ATOM     22  C   UNL     1      31.812  -9.391 -22.333  0.00  0.00    +0.119 C 
BRANCH  22  25
ATOM     23  F   UNL     1      30.441  -7.421 -23.831  0.00  0.00    -0.204 F 
ATOM     24  F   UNL     1      34.440  -5.139 -24.924  0.00  0.00    -0.204 F 
ATOM     25  C   UNL     1      32.511  -8.257 -23.024  0.00  0.00    +0.025 C 
ATOM     26  C   UNL     1      31.774  -7.319 -23.747  0.00  0.00    +0.140 C 
ATOM     27  C   UNL     1      33.899  -8.143 -22.942  0.00  0.00    +0.002 C 
ATOM     28  C   UNL     1      32.427  -6.265 -24.389  0.00  0.00    +0.059 C 
ATOM     29  C   UNL     1      34.550  -7.089 -23.584  0.00  0.00    +0.030 C 
ATOM     30  C   UNL     1      33.815  -6.150 -24.308  0.00  0.00    +0.142 C 
ENDBRANCH  22  25
ENDBRANCH  19  22
ENDBRANCH  16  20
BRANCH  15  31
ATOM     31  O   UNL     1      33.587 -14.925 -25.678  0.00  0.00    -0.502 OA
ATOM     32  H   UNL     1      32.941 -15.525 -25.996  0.00  0.00    +0.292 HD
ENDBRANCH  15  31
TORSDOF 4
ENDMDL
MODEL 5
REMARK VINA RESULT:      -9.5      7.138     12.810
REMARK  Name = 54726191
REMARK  4 active torsions:
REMARK  status: ('A' for Active; 'I' for Inactive)
REMARK    1  A    between atoms: C_15  and  O_31
REMARK    2  A    between atoms: C_16  and  C_20
REMARK    3  A    between atoms: N_19  and  C_22
REMARK    4  A    between atoms: C_22  and  C_25
REMARK                            x       y       z     vdW  Elec       q    Type
REMARK                         _______ _______ _______ _____ _____    ______ ____
ROOT
ATOM      1  O   UNL     1      32.979  -5.314 -24.209  0.00  0.00    -0.336 OA
ATOM      2  O   UNL     1      31.854  -7.757 -20.358  0.00  0.00    -0.268 OA
ATOM      3  O   UNL     1      32.321 -12.551 -22.004  0.00  0.00    -0.283 OA
ATOM      4  N   UNL     1      32.164  -6.556 -22.313  0.00  0.00    -0.253 N 
ATOM      5  N   UNL     1      33.181  -8.891 -23.518  0.00  0.00    -0.275 N 
ATOM      6  C   UNL     1      32.474  -6.572 -23.747  0.00  0.00    +0.215 C 
ATOM      7  C   UNL     1      31.513  -5.356 -21.759  0.00  0.00    +0.080 C 
ATOM      8  C   UNL     1      32.063  -4.077 -22.389  0.00  0.00    +0.052 C 
ATOM      9  C   UNL     1      33.565  -7.588 -24.042  0.00  0.00    +0.147 C 
ATOM     10  C   UNL     1      32.138  -4.212 -23.898  0.00  0.00    +0.146 C 
ATOM     11  C   UNL     1      32.160  -7.732 -21.550  0.00  0.00    +0.267 C 
ATOM     12  C   UNL     1      32.536  -8.999 -22.283  0.00  0.00    +0.143 C 
ATOM     13  C   UNL     1      29.990  -5.452 -21.912  0.00  0.00    +0.022 C 
ATOM     14  C   UNL     1      33.541 -10.050 -24.192  0.00  0.00    +0.074 C 
ATOM     15  C   UNL     1      32.222 -10.191 -21.728  0.00  0.00    +0.191 C 
ATOM     16  C   UNL     1      33.295 -11.293 -23.762  0.00  0.00    +0.110 C 
ATOM     17  C   UNL     1      32.590 -11.445 -22.463  0.00  0.00    +0.236 C 
ENDROOT
BRANCH  16  20
ATOM     18  O   UNL     1      34.506 -12.255 -25.530  0.00  0.00    -0.270 OA
ATOM     19  N   UNL     1      33.187 -13.629 -24.183  0.00  0.00    -0.297 N 
ATOM     20  C   UNL     1      33.731 -12.420 -24.586  0.00  0.00    +0.251 C 
ATOM     21  H   UNL     1      32.578 -13.632 -23.410  0.00  0.00    +0.150 HD
BRANCH  19  22
ATOM     22  C   UNL     1      33.466 -14.886 -24.840  0.00  0.00    +0.119 C 
BRANCH  22  25
ATOM     23  F   UNL     1      34.258 -17.476 -25.661  0.00  0.00    -0.204 F 
ATOM     24  F   UNL     1      36.371 -18.393 -21.529  0.00  0.00    -0.204 F 
ATOM     25  C   UNL     1      34.241 -15.822 -23.959  0.00  0.00    +0.025 C 
ATOM     26  C   UNL     1      34.600 -17.087 -24.426  0.00  0.00    +0.140 C 
ATOM     27  C   UNL     1      34.602 -15.425 -22.671  0.00  0.00    +0.002 C 
ATOM     28  C   UNL     1      35.319 -17.955 -23.605  0.00  0.00    +0.059 C 
ATOM     29  C   UNL     1      35.322 -16.294 -21.850  0.00  0.00    +0.030 C 
ATOM     30  C   UNL     1      35.680 -17.559 -22.316  0.00  0.00    +0.142 C 
ENDBRANCH  22  25
ENDBRANCH  19  22
ENDBRANCH  16  20
BRANCH  15  31
ATOM     31  O   UNL     1      31.564 -10.336 -20.528  0.00  0.00    -0.502 OA
ATOM     32  H   UNL     1      31.582  -9.644 -19.897  0.00  0.00    +0.292 HD
ENDBRANCH  15  31
TORSDOF 4
ENDMDL
MODEL 6
REMARK VINA RESULT:      -9.2     10.208     16.352
REMARK  Name = 54726191
REMARK  4 active torsions:
REMARK  status: ('A' for Active; 'I' for Inactive)
REMARK    1  A    between atoms: C_15  and  O_31
REMARK    2  A    between atoms: C_16  and  C_20
REMARK    3  A    between atoms: N_19  and  C_22
REMARK    4  A    between atoms: C_22  and  C_25
REMARK                            x       y       z     vdW  Elec       q    Type
REMARK                         _______ _______ _______ _____ _____    ______ ____
ROOT
ATOM      1  O   UNL     1      34.539  -4.651 -27.341  0.00  0.00    -0.336 OA
ATOM      2  O   UNL     1      31.907  -2.049 -24.447  0.00  0.00    -0.268 OA
ATOM      3  O   UNL     1      30.467  -5.493 -20.986  0.00  0.00    -0.283 OA
ATOM      4  N   UNL     1      32.994  -3.374 -26.004  0.00  0.00    -0.253 N 
ATOM      5  N   UNL     1      33.053  -5.456 -24.107  0.00  0.00    -0.275 N 
ATOM      6  C   UNL     1      33.473  -4.707 -26.386  0.00  0.00    +0.215 C 
ATOM      7  C   UNL     1      32.859  -2.357 -27.063  0.00  0.00    +0.080 C 
ATOM      8  C   UNL     1      33.999  -2.449 -28.077  0.00  0.00    +0.052 C 
ATOM      9  C   UNL     1      34.040  -5.432 -25.176  0.00  0.00    +0.147 C 
ATOM     10  C   UNL     1      34.229  -3.887 -28.498  0.00  0.00    +0.146 C 
ATOM     11  C   UNL     1      32.364  -3.145 -24.773  0.00  0.00    +0.267 C 
ATOM     12  C   UNL     1      32.252  -4.339 -23.853  0.00  0.00    +0.143 C 
ATOM     13  C   UNL     1      31.488  -2.467 -27.742  0.00  0.00    +0.022 C 
ATOM     14  C   UNL     1      32.965  -6.552 -23.260  0.00  0.00    +0.074 C 
ATOM     15  C   UNL     1      31.370  -4.293 -22.830  0.00  0.00    +0.191 C 
ATOM     16  C   UNL     1      32.140  -6.644 -22.210  0.00  0.00    +0.110 C 
ATOM     17  C   UNL     1      31.257  -5.483 -21.925  0.00  0.00    +0.236 C 
ENDROOT
BRANCH  16  20
ATOM     18  O   UNL     1      32.674  -7.892 -20.293  0.00  0.00    -0.270 OA
ATOM     19  N   UNL     1      31.542  -8.938 -22.043  0.00  0.00    -0.297 N 
ATOM     20  C   UNL     1      32.155  -7.868 -21.410  0.00  0.00    +0.251 C 
ATOM     21  H   UNL     1      31.162  -8.793 -22.940  0.00  0.00    +0.150 HD
BRANCH  19  22
ATOM     22  C   UNL     1      31.431 -10.254 -21.456  0.00  0.00    +0.119 C 
BRANCH  22  25
ATOM     23  F   UNL     1      31.464 -12.998 -20.768  0.00  0.00    -0.204 F 
ATOM     24  F   UNL     1      34.392 -14.092 -24.320  0.00  0.00    -0.204 F 
ATOM     25  C   UNL     1      32.220 -11.278 -22.219  0.00  0.00    +0.025 C 
ATOM     26  C   UNL     1      32.192 -12.617 -21.826  0.00  0.00    +0.140 C 
ATOM     27  C   UNL     1      32.981 -10.890 -23.322  0.00  0.00    +0.002 C 
ATOM     28  C   UNL     1      32.926 -13.567 -22.536  0.00  0.00    +0.059 C 
ATOM     29  C   UNL     1      33.715 -11.841 -24.032  0.00  0.00    +0.030 C 
ATOM     30  C   UNL     1      33.688 -13.179 -23.639  0.00  0.00    +0.142 C 
ENDBRANCH  22  25
ENDBRANCH  19  22
ENDBRANCH  16  20
BRANCH  15  31
ATOM     31  O   UNL     1      30.547  -3.222 -22.566  0.00  0.00    -0.502 OA
ATOM     32  H   UNL     1      30.641  -2.427 -23.052  0.00  0.00    +0.292 HD
ENDBRANCH  15  31
TORSDOF 4
ENDMDL
MODEL 7
REMARK VINA RESULT:      -9.0      3.324      6.078
REMARK  Name = 54726191
REMARK  4 active torsions:
REMARK  status: ('A' for Active; 'I' for Inactive)
REMARK    1  A    between atoms: C_15  and  O_31
REMARK    2  A    between atoms: C_16  and  C_20
REMARK    3  A    between atoms: N_19  and  C_22
REMARK    4  A    between atoms: C_22  and  C_25
REMARK                            x       y       z     vdW  Elec       q    Type
REMARK                         _______ _______ _______ _____ _____    ______ ____
ROOT
ATOM      1  O   UNL     1      29.324 -23.387 -17.153  0.00  0.00    -0.336 OA
ATOM      2  O   UNL     1      31.523 -24.384 -13.123  0.00  0.00    -0.268 OA
ATOM      3  O   UNL     1      36.409 -23.914 -14.470  0.00  0.00    -0.283 OA
ATOM      4  N   UNL     1      30.448 -24.139 -15.159  0.00  0.00    -0.253 N 
ATOM      5  N   UNL     1      32.847 -23.131 -16.239  0.00  0.00    -0.275 N 
ATOM      6  C   UNL     1      30.554 -23.867 -16.597  0.00  0.00    +0.215 C 
ATOM      7  C   UNL     1      29.220 -24.787 -14.665  0.00  0.00    +0.080 C 
ATOM      8  C   UNL     1      27.980 -24.267 -15.391  0.00  0.00    +0.052 C 
ATOM      9  C   UNL     1      31.578 -22.774 -16.855  0.00  0.00    +0.147 C 
ATOM     10  C   UNL     1      28.211 -24.231 -16.889  0.00  0.00    +0.146 C 
ATOM     11  C   UNL     1      31.573 -24.111 -14.322  0.00  0.00    +0.267 C 
ATOM     12  C   UNL     1      32.881 -23.741 -14.982  0.00  0.00    +0.143 C 
ATOM     13  C   UNL     1      29.339 -26.312 -14.770  0.00  0.00    +0.022 C 
ATOM     14  C   UNL     1      34.044 -22.778 -16.847  0.00  0.00    +0.074 C 
ATOM     15  C   UNL     1      34.037 -24.029 -14.344  0.00  0.00    +0.191 C 
ATOM     16  C   UNL     1      35.259 -23.000 -16.331  0.00  0.00    +0.110 C 
ATOM     17  C   UNL     1      35.333 -23.668 -15.006  0.00  0.00    +0.236 C 
ENDROOT
BRANCH  16  20
ATOM     18  O   UNL     1      37.572 -22.745 -16.655  0.00  0.00    -0.270 OA
ATOM     19  N   UNL     1      36.109 -21.987 -18.305  0.00  0.00    -0.297 N 
ATOM     20  C   UNL     1      36.433 -22.574 -17.093  0.00  0.00    +0.251 C 
ATOM     21  H   UNL     1      35.158 -21.906 -18.545  0.00  0.00    +0.150 HD
BRANCH  19  22
ATOM     22  C   UNL     1      37.095 -21.484 -19.235  0.00  0.00    +0.119 C 
BRANCH  22  25
ATOM     23  F   UNL     1      34.395 -21.638 -20.068  0.00  0.00    -0.204 F 
ATOM     24  F   UNL     1      34.846 -17.950 -22.997  0.00  0.00    -0.204 F 
ATOM     25  C   UNL     1      36.494 -20.543 -20.238  0.00  0.00    +0.025 C 
ATOM     26  C   UNL     1      35.154 -20.674 -20.605  0.00  0.00    +0.140 C 
ATOM     27  C   UNL     1      37.277 -19.535 -20.802  0.00  0.00    +0.002 C 
ATOM     28  C   UNL     1      34.598 -19.798 -21.537  0.00  0.00    +0.059 C 
ATOM     29  C   UNL     1      36.720 -18.659 -21.735  0.00  0.00    +0.030 C 
ATOM     30  C   UNL     1      35.381 -18.791 -22.103  0.00  0.00    +0.142 C 
ENDBRANCH  22  25
ENDBRANCH  19  22
ENDBRANCH  16  20
BRANCH  15  31
ATOM     31  O   UNL     1      34.110 -24.653 -13.119  0.00  0.00    -0.502 OA
ATOM     32  H   UNL     1      33.986 -24.159 -12.333  0.00  0.00    +0.292 HD
ENDBRANCH  15  31
TORSDOF 4
ENDMDL
MODEL 8
REMARK VINA RESULT:      -8.9      5.990     11.683
REMARK  Name = 54726191
REMARK  4 active torsions:
REMARK  status: ('A' for Active; 'I' for Inactive)
REMARK    1  A    between atoms: C_15  and  O_31
REMARK    2  A    between atoms: C_16  and  C_20
REMARK    3  A    between atoms: N_19  and  C_22
REMARK    4  A    between atoms: C_22  and  C_25
REMARK                            x       y       z     vdW  Elec       q    Type
REMARK                         _______ _______ _______ _____ _____    ______ ____
ROOT
ATOM      1  O   UNL     1      31.621  -7.619 -20.007  0.00  0.00    -0.336 OA
ATOM      2  O   UNL     1      32.062  -8.917 -24.500  0.00  0.00    -0.268 OA
ATOM      3  O   UNL     1      33.823 -13.670 -24.032  0.00  0.00    -0.283 OA
ATOM      4  N   UNL     1      32.081  -8.191 -22.301  0.00  0.00    -0.253 N 
ATOM      5  N   UNL     1      32.387 -10.868 -21.479  0.00  0.00    -0.275 N 
ATOM      6  C   UNL     1      32.318  -8.507 -20.889  0.00  0.00    +0.215 C 
ATOM      7  C   UNL     1      32.058  -6.772 -22.699  0.00  0.00    +0.080 C 
ATOM      8  C   UNL     1      31.373  -5.903 -21.643  0.00  0.00    +0.052 C 
ATOM      9  C   UNL     1      31.803  -9.899 -20.563  0.00  0.00    +0.147 C 
ATOM     10  C   UNL     1      31.882  -6.244 -20.257  0.00  0.00    +0.146 C 
ATOM     11  C   UNL     1      32.206  -9.164 -23.302  0.00  0.00    +0.267 C 
ATOM     12  C   UNL     1      32.554 -10.558 -22.832  0.00  0.00    +0.143 C 
ATOM     13  C   UNL     1      33.476  -6.277 -23.005  0.00  0.00    +0.022 C 
ATOM     14  C   UNL     1      32.694 -12.149 -21.041  0.00  0.00    +0.074 C 
ATOM     15  C   UNL     1      33.030 -11.449 -23.730  0.00  0.00    +0.191 C 
ATOM     16  C   UNL     1      33.171 -13.130 -21.817  0.00  0.00    +0.110 C 
ATOM     17  C   UNL     1      33.381 -12.827 -23.257  0.00  0.00    +0.236 C 
ENDROOT
BRANCH  16  20
ATOM     18  O   UNL     1      32.702 -14.911 -20.359  0.00  0.00    -0.270 OA
ATOM     19  N   UNL     1      34.610 -15.016 -21.697  0.00  0.00    -0.297 N 
ATOM     20  C   UNL     1      33.452 -14.430 -21.211  0.00  0.00    +0.251 C 
ATOM     21  H   UNL     1      35.127 -14.531 -22.380  0.00  0.00    +0.150 HD
BRANCH  19  22
ATOM     22  C   UNL     1      35.099 -16.302 -21.252  0.00  0.00    +0.119 C 
BRANCH  22  25
ATOM     23  F   UNL     1      35.300 -19.073 -20.720  0.00  0.00    -0.204 F 
ATOM     24  F   UNL     1      34.656 -20.227 -25.263  0.00  0.00    -0.204 F 
ATOM     25  C   UNL     1      34.982 -17.349 -22.320  0.00  0.00    +0.025 C 
ATOM     26  C   UNL     1      35.090 -18.700 -21.989  0.00  0.00    +0.140 C 
ATOM     27  C   UNL     1      34.762 -16.970 -23.645  0.00  0.00    +0.002 C 
ATOM     28  C   UNL     1      34.980 -19.672 -22.984  0.00  0.00    +0.059 C 
ATOM     29  C   UNL     1      34.652 -17.943 -24.639  0.00  0.00    +0.030 C 
ATOM     30  C   UNL     1      34.762 -19.294 -24.309  0.00  0.00    +0.142 C 
ENDBRANCH  22  25
ENDBRANCH  19  22
ENDBRANCH  16  20
BRANCH  15  31
ATOM     31  O   UNL     1      33.232 -11.171 -25.063  0.00  0.00    -0.502 OA
ATOM     32  H   UNL     1      34.102 -11.141 -25.409  0.00  0.00    +0.292 HD
ENDBRANCH  15  31
TORSDOF 4
ENDMDL
MODEL 9
REMARK VINA RESULT:      -8.9      8.767     12.787
REMARK  Name = 54726191
REMARK  4 active torsions:
REMARK  status: ('A' for Active; 'I' for Inactive)
REMARK    1  A    between atoms: C_15  and  O_31
REMARK    2  A    between atoms: C_16  and  C_20
REMARK    3  A    between atoms: N_19  and  C_22
REMARK    4  A    between atoms: C_22  and  C_25
REMARK                            x       y       z     vdW  Elec       q    Type
REMARK                         _______ _______ _______ _____ _____    ______ ____
ROOT
ATOM      1  O   UNL     1      33.559 -12.328 -25.322  0.00  0.00    -0.336 OA
ATOM      2  O   UNL     1      31.768 -12.880 -21.014  0.00  0.00    -0.268 OA
ATOM      3  O   UNL     1      31.783  -8.097 -19.271  0.00  0.00    -0.283 OA
ATOM      4  N   UNL     1      32.876 -12.647 -23.034  0.00  0.00    -0.253 N 
ATOM      5  N   UNL     1      32.512  -9.860 -22.847  0.00  0.00    -0.275 N 
ATOM      6  C   UNL     1      33.507 -11.753 -24.011  0.00  0.00    +0.215 C 
ATOM      7  C   UNL     1      33.203 -14.083 -23.096  0.00  0.00    +0.080 C 
ATOM      8  C   UNL     1      33.325 -14.569 -24.541  0.00  0.00    +0.052 C 
ATOM      9  C   UNL     1      32.702 -10.472 -24.154  0.00  0.00    +0.147 C 
ATOM     10  C   UNL     1      34.169 -13.611 -25.359  0.00  0.00    +0.146 C 
ATOM     11  C   UNL     1      32.260 -12.152 -21.876  0.00  0.00    +0.267 C 
ATOM     12  C   UNL     1      32.248 -10.648 -21.724  0.00  0.00    +0.143 C 
ATOM     13  C   UNL     1      34.473 -14.380 -22.290  0.00  0.00    +0.022 C 
ATOM     14  C   UNL     1      32.492  -8.478 -22.719  0.00  0.00    +0.074 C 
ATOM     15  C   UNL     1      32.000 -10.118 -20.506  0.00  0.00    +0.191 C 
ATOM     16  C   UNL     1      32.259  -7.819 -21.577  0.00  0.00    +0.110 C 
ATOM     17  C   UNL     1      31.996  -8.626 -20.358  0.00  0.00    +0.236 C 
ENDROOT
BRANCH  16  20
ATOM     18  O   UNL     1      32.719  -5.713 -20.644  0.00  0.00    -0.270 OA
ATOM     19  N   UNL     1      31.751  -5.823 -22.763  0.00  0.00    -0.297 N 
ATOM     20  C   UNL     1      32.274  -6.356 -21.595  0.00  0.00    +0.251 C 
ATOM     21  H   UNL     1      31.425  -6.444 -23.453  0.00  0.00    +0.150 HD
BRANCH  19  22
ATOM     22  C   UNL     1      31.656  -4.404 -23.017  0.00  0.00    +0.119 C 
BRANCH  22  25
ATOM     23  F   UNL     1      31.062  -1.926 -24.247  0.00  0.00    -0.204 F 
ATOM     24  F   UNL     1      33.365  -3.079 -28.216  0.00  0.00    -0.204 F 
ATOM     25  C   UNL     1      32.111  -4.049 -24.403  0.00  0.00    +0.025 C 
ATOM     26  C   UNL     1      31.783  -2.808 -24.950  0.00  0.00    +0.140 C 
ATOM     27  C   UNL     1      32.863  -4.962 -25.143  0.00  0.00    +0.002 C 
ATOM     28  C   UNL     1      32.207  -2.481 -26.239  0.00  0.00    +0.059 C 
ATOM     29  C   UNL     1      33.287  -4.633 -26.431  0.00  0.00    +0.030 C 
ATOM     30  C   UNL     1      32.958  -3.394 -26.979  0.00  0.00    +0.142 C 
ENDBRANCH  22  25
ENDBRANCH  19  22
ENDBRANCH  16  20
BRANCH  15  31
ATOM     31  O   UNL     1      31.762 -10.862 -19.372  0.00  0.00    -0.502 OA
ATOM     32  H   UNL     1      32.038 -11.757 -19.332  0.00  0.00    +0.292 HD
ENDBRANCH  15  31
TORSDOF 4
ENDMDL
