MODEL 1
REMARK VINA RESULT:     -12.7      0.000      0.000
REMARK  Name = 24808489
REMARK  4 active torsions:
REMARK  status: ('A' for Active; 'I' for Inactive)
REMARK    1  A    between atoms: N_1  and  C_10
REMARK    2  A    between atoms: N_1  and  C_21
REMARK    3  A    between atoms: C_18  and  C_24
REMARK    4  A    between atoms: C_24  and  N_25
REMARK                            x       y       z     vdW  Elec       q    Type
REMARK                         _______ _______ _______ _____ _____    ______ ____
ROOT
ATOM      1  N   UNL     1      34.600 -22.743 -18.682  0.00  0.00    -0.311 N 
ATOM      2  H   UNL     1      35.296 -23.431 -18.583  0.00  0.00    +0.152 HD
ENDROOT
BRANCH   1  10
ATOM      3 BR   UNL     1      28.020 -23.175 -16.564  0.00  0.00    -0.049 Br
ATOM      4  O   UNL     1      35.802 -23.442 -16.558  0.00  0.00    -0.270 OA
ATOM      5  O   UNL     1      33.520 -24.542 -12.731  0.00  0.00    -0.270 OA
ATOM      6  N   UNL     1      34.624 -23.984 -14.667  0.00  0.00    -0.248 N 
ATOM      7  C   UNL     1      33.407 -23.327 -16.660  0.00  0.00    +0.068 C 
ATOM      8  C   UNL     1      32.141 -23.513 -15.918  0.00  0.00    +0.010 C 
ATOM      9  C   UNL     1      32.186 -23.928 -14.577  0.00  0.00    +0.054 C 
ATOM     10  C   UNL     1      33.485 -22.933 -17.944  0.00  0.00    +0.066 C 
ATOM     11  C   UNL     1      34.721 -23.579 -15.991  0.00  0.00    +0.253 C 
ATOM     12  C   UNL     1      30.876 -23.293 -16.491  0.00  0.00    +0.007 C 
ATOM     13  C   UNL     1      33.480 -24.180 -13.903  0.00  0.00    +0.252 C 
ATOM     14  C   UNL     1      31.006 -24.117 -13.838  0.00  0.00    +0.005 C 
ATOM     15  C   UNL     1      29.702 -23.481 -15.755  0.00  0.00    +0.035 C 
ATOM     16  C   UNL     1      29.767 -23.892 -14.430  0.00  0.00    +0.007 C 
ATOM     17  H   UNL     1      35.478 -24.156 -14.209  0.00  0.00    +0.158 HD
ENDBRANCH   1  10
BRANCH   1  21
ATOM     18  C   UNL     1      35.497 -19.616 -21.335  0.00  0.00    -0.043 C 
ATOM     19  C   UNL     1      34.169 -19.978 -21.106  0.00  0.00    -0.005 C 
ATOM     20  C   UNL     1      36.526 -20.293 -20.682  0.00  0.00    -0.005 C 
ATOM     21  C   UNL     1      34.901 -21.695 -19.572  0.00  0.00    +0.048 C 
ATOM     22  C   UNL     1      33.872 -21.018 -20.225  0.00  0.00    +0.014 C 
ATOM     23  C   UNL     1      36.229 -21.333 -19.801  0.00  0.00    +0.014 C 
BRANCH  18  24
ATOM     24  C   UNL     1      35.814 -18.506 -22.278  0.00  0.00    -0.050 C 
BRANCH  24  25
ATOM     25  N   UNL     1      34.777 -18.315 -23.281  0.00  0.00    +0.390 N 
ATOM     26  C   UNL     1      34.974 -17.095 -24.063  0.00  0.00    -0.077 C 
ATOM     27  C   UNL     1      34.746 -19.397 -24.264  0.00  0.00    -0.077 C 
ATOM     28  C   UNL     1      34.050 -17.300 -25.254  0.00  0.00    -0.025 C 
ATOM     29  C   UNL     1      33.897 -18.813 -25.384  0.00  0.00    -0.025 C 
ATOM     30  H   UNL     1      33.914 -18.276 -22.738  0.00  0.00    -0.079 HD
ENDBRANCH  24  25
ENDBRANCH  18  24
ENDBRANCH   1  21
TORSDOF 4
ENDMDL
MODEL 2
REMARK VINA RESULT:     -12.6      1.080      1.627
REMARK  Name = 24808489
REMARK  4 active torsions:
REMARK  status: ('A' for Active; 'I' for Inactive)
REMARK    1  A    between atoms: N_1  and  C_10
REMARK    2  A    between atoms: N_1  and  C_21
REMARK    3  A    between atoms: C_18  and  C_24
REMARK    4  A    between atoms: C_24  and  N_25
REMARK                            x       y       z     vdW  Elec       q    Type
REMARK                         _______ _______ _______ _____ _____    ______ ____
ROOT
ATOM      1  N   UNL     1      34.729 -22.657 -18.746  0.00  0.00    -0.311 N 
ATOM      2  H   UNL     1      35.443 -23.324 -18.629  0.00  0.00    +0.152 HD
ENDROOT
BRANCH   1  10
ATOM      3 BR   UNL     1      28.121 -23.251 -16.759  0.00  0.00    -0.049 Br
ATOM      4  O   UNL     1      35.906 -23.339 -16.603  0.00  0.00    -0.270 OA
ATOM      5  O   UNL     1      33.576 -24.510 -12.826  0.00  0.00    -0.270 OA
ATOM      6  N   UNL     1      34.703 -23.917 -14.738  0.00  0.00    -0.248 N 
ATOM      7  C   UNL     1      33.511 -23.279 -16.751  0.00  0.00    +0.068 C 
ATOM      8  C   UNL     1      32.235 -23.498 -16.035  0.00  0.00    +0.010 C 
ATOM      9  C   UNL     1      32.264 -23.918 -14.695  0.00  0.00    +0.054 C 
ATOM     10  C   UNL     1      33.604 -22.876 -18.031  0.00  0.00    +0.066 C 
ATOM     11  C   UNL     1      34.817 -23.504 -16.057  0.00  0.00    +0.253 C 
ATOM     12  C   UNL     1      30.976 -23.304 -16.631  0.00  0.00    +0.007 C 
ATOM     13  C   UNL     1      33.550 -24.144 -13.997  0.00  0.00    +0.252 C 
ATOM     14  C   UNL     1      31.075 -24.138 -13.980  0.00  0.00    +0.005 C 
ATOM     15  C   UNL     1      29.793 -23.523 -15.919  0.00  0.00    +0.035 C 
ATOM     16  C   UNL     1      29.842 -23.939 -14.595  0.00  0.00    +0.007 C 
ATOM     17  H   UNL     1      35.553 -24.072 -14.264  0.00  0.00    +0.158 HD
ENDBRANCH   1  10
BRANCH   1  21
ATOM     18  C   UNL     1      35.589 -19.518 -21.397  0.00  0.00    -0.043 C 
ATOM     19  C   UNL     1      34.270 -19.935 -21.213  0.00  0.00    -0.005 C 
ATOM     20  C   UNL     1      36.622 -20.145 -20.701  0.00  0.00    -0.005 C 
ATOM     21  C   UNL     1      35.018 -21.605 -19.636  0.00  0.00    +0.048 C 
ATOM     22  C   UNL     1      33.985 -20.978 -20.333  0.00  0.00    +0.014 C 
ATOM     23  C   UNL     1      36.337 -21.188 -19.820  0.00  0.00    +0.014 C 
BRANCH  18  24
ATOM     24  C   UNL     1      35.894 -18.403 -22.339  0.00  0.00    -0.050 C 
BRANCH  24  25
ATOM     25  N   UNL     1      35.028 -17.251 -22.134  0.00  0.00    +0.390 N 
ATOM     26  C   UNL     1      35.249 -16.611 -20.838  0.00  0.00    -0.077 C 
ATOM     27  C   UNL     1      35.258 -16.197 -23.122  0.00  0.00    -0.077 C 
ATOM     28  C   UNL     1      34.560 -15.264 -21.001  0.00  0.00    -0.025 C 
ATOM     29  C   UNL     1      34.564 -14.993 -22.502  0.00  0.00    -0.025 C 
ATOM     30  H   UNL     1      34.086 -17.634 -22.207  0.00  0.00    -0.079 HD
ENDBRANCH  24  25
ENDBRANCH  18  24
ENDBRANCH   1  21
TORSDOF 4
ENDMDL
MODEL 3
REMARK VINA RESULT:     -12.3      2.514      3.376
REMARK  Name = 24808489
REMARK  4 active torsions:
REMARK  status: ('A' for Active; 'I' for Inactive)
REMARK    1  A    between atoms: N_1  and  C_10
REMARK    2  A    between atoms: N_1  and  C_21
REMARK    3  A    between atoms: C_18  and  C_24
REMARK    4  A    between atoms: C_24  and  N_25
REMARK                            x       y       z     vdW  Elec       q    Type
REMARK                         _______ _______ _______ _____ _____    ______ ____
ROOT
ATOM      1  N   UNL     1      33.558 -22.842 -18.651  0.00  0.00    -0.311 N 
ATOM      2  H   UNL     1      32.728 -23.297 -18.923  0.00  0.00    +0.152 HD
ENDROOT
BRANCH   1  10
ATOM      3 BR   UNL     1      37.919 -24.983 -13.715  0.00  0.00    -0.049 Br
ATOM      4  O   UNL     1      31.390 -22.765 -17.333  0.00  0.00    -0.270 OA
ATOM      5  O   UNL     1      31.214 -23.902 -12.890  0.00  0.00    -0.270 OA
ATOM      6  N   UNL     1      31.346 -23.341 -15.113  0.00  0.00    -0.248 N 
ATOM      7  C   UNL     1      33.455 -23.437 -16.309  0.00  0.00    +0.068 C 
ATOM      8  C   UNL     1      34.111 -23.891 -15.064  0.00  0.00    +0.010 C 
ATOM      9  C   UNL     1      33.341 -24.048 -13.899  0.00  0.00    +0.054 C 
ATOM     10  C   UNL     1      34.090 -23.253 -17.480  0.00  0.00    +0.066 C 
ATOM     11  C   UNL     1      31.987 -23.146 -16.328  0.00  0.00    +0.253 C 
ATOM     12  C   UNL     1      35.485 -24.180 -14.981  0.00  0.00    +0.007 C 
ATOM     13  C   UNL     1      31.888 -23.764 -13.906  0.00  0.00    +0.252 C 
ATOM     14  C   UNL     1      33.927 -24.477 -12.697  0.00  0.00    +0.005 C 
ATOM     15  C   UNL     1      36.067 -24.606 -13.783  0.00  0.00    +0.035 C 
ATOM     16  C   UNL     1      35.289 -24.755 -12.643  0.00  0.00    +0.007 C 
ATOM     17  H   UNL     1      30.379 -23.154 -15.106  0.00  0.00    +0.158 HD
ENDBRANCH   1  10
BRANCH   1  21
ATOM     18  C   UNL     1      34.963 -19.895 -21.290  0.00  0.00    -0.043 C 
ATOM     19  C   UNL     1      35.868 -20.695 -20.591  0.00  0.00    -0.005 C 
ATOM     20  C   UNL     1      33.592 -20.074 -21.111  0.00  0.00    -0.005 C 
ATOM     21  C   UNL     1      34.029 -21.853 -19.536  0.00  0.00    +0.048 C 
ATOM     22  C   UNL     1      35.400 -21.674 -19.714  0.00  0.00    +0.014 C 
ATOM     23  C   UNL     1      33.124 -21.053 -20.234  0.00  0.00    +0.014 C 
BRANCH  18  24
ATOM     24  C   UNL     1      35.463 -18.848 -22.226  0.00  0.00    -0.050 C 
BRANCH  24  25
ATOM     25  N   UNL     1      34.561 -18.630 -23.347  0.00  0.00    +0.390 N 
ATOM     26  C   UNL     1      34.844 -17.383 -24.057  0.00  0.00    -0.077 C 
ATOM     27  C   UNL     1      34.669 -19.677 -24.362  0.00  0.00    -0.077 C 
ATOM     28  C   UNL     1      34.083 -17.553 -25.363  0.00  0.00    -0.025 C 
ATOM     29  C   UNL     1      33.965 -19.061 -25.562  0.00  0.00    -0.025 C 
ATOM     30  H   UNL     1      33.635 -18.616 -22.920  0.00  0.00    -0.079 HD
ENDBRANCH  24  25
ENDBRANCH  18  24
ENDBRANCH   1  21
TORSDOF 4
ENDMDL
MODEL 4
REMARK VINA RESULT:     -11.9      2.677      3.571
REMARK  Name = 24808489
REMARK  4 active torsions:
REMARK  status: ('A' for Active; 'I' for Inactive)
REMARK    1  A    between atoms: N_1  and  C_10
REMARK    2  A    between atoms: N_1  and  C_21
REMARK    3  A    between atoms: C_18  and  C_24
REMARK    4  A    between atoms: C_24  and  N_25
REMARK                            x       y       z     vdW  Elec       q    Type
REMARK                         _______ _______ _______ _____ _____    ______ ____
ROOT
ATOM      1  N   UNL     1      33.447 -22.715 -18.585  0.00  0.00    -0.311 N 
ATOM      2  H   UNL     1      32.577 -23.116 -18.809  0.00  0.00    +0.152 HD
ENDROOT
BRANCH   1  10
ATOM      3 BR   UNL     1      37.918 -24.807 -13.727  0.00  0.00    -0.049 Br
ATOM      4  O   UNL     1      31.285 -22.766 -17.257  0.00  0.00    -0.270 OA
ATOM      5  O   UNL     1      31.178 -24.032 -12.847  0.00  0.00    -0.270 OA
ATOM      6  N   UNL     1      31.275 -23.405 -15.055  0.00  0.00    -0.248 N 
ATOM      7  C   UNL     1      33.380 -23.378 -16.260  0.00  0.00    +0.068 C 
ATOM      8  C   UNL     1      34.061 -23.839 -15.030  0.00  0.00    +0.010 C 
ATOM      9  C   UNL     1      33.304 -24.060 -13.868  0.00  0.00    +0.054 C 
ATOM     10  C   UNL     1      34.002 -23.136 -17.427  0.00  0.00    +0.066 C 
ATOM     11  C   UNL     1      31.901 -23.149 -16.266  0.00  0.00    +0.253 C 
ATOM     12  C   UNL     1      35.446 -24.072 -14.961  0.00  0.00    +0.007 C 
ATOM     13  C   UNL     1      31.840 -23.838 -13.861  0.00  0.00    +0.252 C 
ATOM     14  C   UNL     1      33.913 -24.498 -12.680  0.00  0.00    +0.005 C 
ATOM     15  C   UNL     1      36.052 -24.507 -13.778  0.00  0.00    +0.035 C 
ATOM     16  C   UNL     1      35.286 -24.720 -12.639  0.00  0.00    +0.007 C 
ATOM     17  H   UNL     1      30.302 -23.259 -15.038  0.00  0.00    +0.158 HD
ENDBRANCH   1  10
BRANCH   1  21
ATOM     18  C   UNL     1      34.932 -19.930 -21.354  0.00  0.00    -0.043 C 
ATOM     19  C   UNL     1      33.555 -20.088 -21.192  0.00  0.00    -0.005 C 
ATOM     20  C   UNL     1      35.815 -20.698 -20.595  0.00  0.00    -0.005 C 
ATOM     21  C   UNL     1      33.946 -21.781 -19.514  0.00  0.00    +0.048 C 
ATOM     22  C   UNL     1      33.062 -21.014 -20.273  0.00  0.00    +0.014 C 
ATOM     23  C   UNL     1      35.323 -21.624 -19.676  0.00  0.00    +0.014 C 
BRANCH  18  24
ATOM     24  C   UNL     1      35.458 -18.941 -22.337  0.00  0.00    -0.050 C 
BRANCH  24  25
ATOM     25  N   UNL     1      34.845 -17.630 -22.189  0.00  0.00    +0.390 N 
ATOM     26  C   UNL     1      35.274 -16.948 -20.967  0.00  0.00    -0.077 C 
ATOM     27  C   UNL     1      35.202 -16.720 -23.277  0.00  0.00    -0.077 C 
ATOM     28  C   UNL     1      34.845 -15.509 -21.212  0.00  0.00    -0.025 C 
ATOM     29  C   UNL     1      34.795 -15.360 -22.729  0.00  0.00    -0.025 C 
ATOM     30  H   UNL     1      33.844 -17.826 -22.176  0.00  0.00    -0.079 HD
ENDBRANCH  24  25
ENDBRANCH  18  24
ENDBRANCH   1  21
TORSDOF 4
ENDMDL
MODEL 5
REMARK VINA RESULT:     -11.9      0.799      1.305
REMARK  Name = 24808489
REMARK  4 active torsions:
REMARK  status: ('A' for Active; 'I' for Inactive)
REMARK    1  A    between atoms: N_1  and  C_10
REMARK    2  A    between atoms: N_1  and  C_21
REMARK    3  A    between atoms: C_18  and  C_24
REMARK    4  A    between atoms: C_24  and  N_25
REMARK                            x       y       z     vdW  Elec       q    Type
REMARK                         _______ _______ _______ _____ _____    ______ ____
ROOT
ATOM      1  N   UNL     1      34.920 -22.609 -19.060  0.00  0.00    -0.311 N 
ATOM      2  H   UNL     1      35.534 -23.373 -19.140  0.00  0.00    +0.152 HD
ENDROOT
BRANCH   1  10
ATOM      3 BR   UNL     1      28.516 -23.081 -16.465  0.00  0.00    -0.049 Br
ATOM      4  O   UNL     1      36.282 -23.220 -17.008  0.00  0.00    -0.270 OA
ATOM      5  O   UNL     1      34.298 -24.236 -12.996  0.00  0.00    -0.270 OA
ATOM      6  N   UNL     1      35.251 -23.721 -15.022  0.00  0.00    -0.248 N 
ATOM      7  C   UNL     1      33.884 -23.148 -16.942  0.00  0.00    +0.068 C 
ATOM      8  C   UNL     1      32.677 -23.331 -16.106  0.00  0.00    +0.010 C 
ATOM      9  C   UNL     1      32.825 -23.703 -14.759  0.00  0.00    +0.054 C 
ATOM     10  C   UNL     1      33.863 -22.793 -18.239  0.00  0.00    +0.066 C 
ATOM     11  C   UNL     1      35.247 -23.357 -16.361  0.00  0.00    +0.253 C 
ATOM     12  C   UNL     1      31.371 -23.150 -16.593  0.00  0.00    +0.007 C 
ATOM     13  C   UNL     1      34.168 -23.912 -14.172  0.00  0.00    +0.252 C 
ATOM     14  C   UNL     1      31.705 -23.887 -13.933  0.00  0.00    +0.005 C 
ATOM     15  C   UNL     1      30.256 -23.334 -15.770  0.00  0.00    +0.035 C 
ATOM     16  C   UNL     1      30.422 -23.702 -14.441  0.00  0.00    +0.007 C 
ATOM     17  H   UNL     1      36.139 -23.865 -14.621  0.00  0.00    +0.158 HD
ENDBRANCH   1  10
BRANCH   1  21
ATOM     18  C   UNL     1      35.938 -19.219 -21.318  0.00  0.00    -0.043 C 
ATOM     19  C   UNL     1      36.917 -19.889 -20.584  0.00  0.00    -0.005 C 
ATOM     20  C   UNL     1      34.620 -19.676 -21.302  0.00  0.00    -0.005 C 
ATOM     21  C   UNL     1      35.261 -21.471 -19.817  0.00  0.00    +0.048 C 
ATOM     22  C   UNL     1      36.578 -21.014 -19.834  0.00  0.00    +0.014 C 
ATOM     23  C   UNL     1      34.281 -20.802 -20.552  0.00  0.00    +0.014 C 
BRANCH  18  24
ATOM     24  C   UNL     1      36.300 -18.015 -22.120  0.00  0.00    -0.050 C 
BRANCH  24  25
ATOM     25  N   UNL     1      35.174 -17.497 -22.883  0.00  0.00    +0.390 N 
ATOM     26  C   UNL     1      35.119 -16.035 -22.874  0.00  0.00    -0.077 C 
ATOM     27  C   UNL     1      35.240 -17.866 -24.296  0.00  0.00    -0.077 C 
ATOM     28  C   UNL     1      34.153 -15.723 -24.007  0.00  0.00    -0.025 C 
ATOM     29  C   UNL     1      34.230 -16.927 -24.940  0.00  0.00    -0.025 C 
ATOM     30  H   UNL     1      34.358 -17.905 -22.426  0.00  0.00    -0.079 HD
ENDBRANCH  24  25
ENDBRANCH  18  24
ENDBRANCH   1  21
TORSDOF 4
ENDMDL
MODEL 6
REMARK VINA RESULT:     -11.3      2.748      3.688
REMARK  Name = 24808489
REMARK  4 active torsions:
REMARK  status: ('A' for Active; 'I' for Inactive)
REMARK    1  A    between atoms: N_1  and  C_10
REMARK    2  A    between atoms: N_1  and  C_21
REMARK    3  A    between atoms: C_18  and  C_24
REMARK    4  A    between atoms: C_24  and  N_25
REMARK                            x       y       z     vdW  Elec       q    Type
REMARK                         _______ _______ _______ _____ _____    ______ ____
ROOT
ATOM      1  N   UNL     1      34.627 -22.578 -19.302  0.00  0.00    -0.311 N 
ATOM      2  H   UNL     1      34.109 -23.224 -19.833  0.00  0.00    +0.152 HD
ENDROOT
BRANCH   1  10
ATOM      3 BR   UNL     1      37.766 -24.394 -13.402  0.00  0.00    -0.049 Br
ATOM      4  O   UNL     1      32.203 -22.617 -18.552  0.00  0.00    -0.270 OA
ATOM      5  O   UNL     1      31.013 -23.712 -14.256  0.00  0.00    -0.270 OA
ATOM      6  N   UNL     1      31.651 -23.170 -16.395  0.00  0.00    -0.248 N 
ATOM      7  C   UNL     1      33.990 -23.151 -17.040  0.00  0.00    +0.068 C 
ATOM      8  C   UNL     1      34.347 -23.550 -15.662  0.00  0.00    +0.010 C 
ATOM      9  C   UNL     1      33.326 -23.740 -14.716  0.00  0.00    +0.054 C 
ATOM     10  C   UNL     1      34.880 -22.942 -18.026  0.00  0.00    +0.066 C 
ATOM     11  C   UNL     1      32.557 -22.950 -17.423  0.00  0.00    +0.253 C 
ATOM     12  C   UNL     1      35.673 -23.754 -15.241  0.00  0.00    +0.007 C 
ATOM     13  C   UNL     1      31.905 -23.545 -15.082  0.00  0.00    +0.252 C 
ATOM     14  C   UNL     1      33.624 -24.119 -13.396  0.00  0.00    +0.005 C 
ATOM     15  C   UNL     1      35.969 -24.131 -13.927  0.00  0.00    +0.035 C 
ATOM     16  C   UNL     1      34.946 -24.314 -13.006  0.00  0.00    +0.007 C 
ATOM     17  H   UNL     1      30.703 -23.041 -16.627  0.00  0.00    +0.158 HD
ENDBRANCH   1  10
BRANCH   1  21
ATOM     18  C   UNL     1      35.755 -19.067 -21.308  0.00  0.00    -0.043 C 
ATOM     19  C   UNL     1      36.711 -19.817 -20.624  0.00  0.00    -0.005 C 
ATOM     20  C   UNL     1      34.424 -19.482 -21.325  0.00  0.00    -0.005 C 
ATOM     21  C   UNL     1      35.005 -21.399 -19.974  0.00  0.00    +0.048 C 
ATOM     22  C   UNL     1      36.336 -20.984 -19.957  0.00  0.00    +0.014 C 
ATOM     23  C   UNL     1      34.049 -20.649 -20.659  0.00  0.00    +0.014 C 
BRANCH  18  24
ATOM     24  C   UNL     1      36.156 -17.819 -22.020  0.00  0.00    -0.050 C 
BRANCH  24  25
ATOM     25  N   UNL     1      35.083 -16.838 -22.068  0.00  0.00    +0.390 N 
ATOM     26  C   UNL     1      35.116 -15.918 -20.930  0.00  0.00    -0.077 C 
ATOM     27  C   UNL     1      35.162 -15.981 -23.251  0.00  0.00    -0.077 C 
ATOM     28  C   UNL     1      34.198 -14.790 -21.377  0.00  0.00    -0.025 C 
ATOM     29  C   UNL     1      34.226 -14.833 -22.902  0.00  0.00    -0.025 C 
ATOM     30  H   UNL     1      34.232 -17.402 -22.069  0.00  0.00    -0.079 HD
ENDBRANCH  24  25
ENDBRANCH  18  24
ENDBRANCH   1  21
TORSDOF 4
ENDMDL
MODEL 7
REMARK VINA RESULT:     -11.0      3.397      4.725
REMARK  Name = 24808489
REMARK  4 active torsions:
REMARK  status: ('A' for Active; 'I' for Inactive)
REMARK    1  A    between atoms: N_1  and  C_10
REMARK    2  A    between atoms: N_1  and  C_21
REMARK    3  A    between atoms: C_18  and  C_24
REMARK    4  A    between atoms: C_24  and  N_25
REMARK                            x       y       z     vdW  Elec       q    Type
REMARK                         _______ _______ _______ _____ _____    ______ ____
ROOT
ATOM      1  N   UNL     1      34.619 -22.939 -17.228  0.00  0.00    -0.311 N 
ATOM      2  H   UNL     1      33.698 -23.015 -16.890  0.00  0.00    +0.152 HD
ENDROOT
BRANCH   1  10
ATOM      3 BR   UNL     1      40.499 -25.863 -15.027  0.00  0.00    -0.049 Br
ATOM      4  O   UNL     1      33.218 -23.102 -15.117  0.00  0.00    -0.270 OA
ATOM      5  O   UNL     1      34.854 -24.983 -11.263  0.00  0.00    -0.270 OA
ATOM      6  N   UNL     1      34.074 -24.050 -13.212  0.00  0.00    -0.248 N 
ATOM      7  C   UNL     1      35.472 -23.926 -15.191  0.00  0.00    +0.068 C 
ATOM      8  C   UNL     1      36.560 -24.582 -14.433  0.00  0.00    +0.010 C 
ATOM      9  C   UNL     1      36.342 -24.940 -13.092  0.00  0.00    +0.054 C 
ATOM     10  C   UNL     1      35.566 -23.540 -16.476  0.00  0.00    +0.066 C 
ATOM     11  C   UNL     1      34.155 -23.645 -14.537  0.00  0.00    +0.253 C 
ATOM     12  C   UNL     1      37.818 -24.871 -14.991  0.00  0.00    +0.007 C 
ATOM     13  C   UNL     1      35.045 -24.669 -12.434  0.00  0.00    +0.252 C 
ATOM     14  C   UNL     1      37.350 -25.565 -12.339  0.00  0.00    +0.005 C 
ATOM     15  C   UNL     1      38.820 -25.492 -14.239  0.00  0.00    +0.035 C 
ATOM     16  C   UNL     1      38.587 -25.839 -12.915  0.00  0.00    +0.007 C 
ATOM     17  H   UNL     1      33.215 -23.873 -12.764  0.00  0.00    +0.158 HD
ENDBRANCH   1  10
BRANCH   1  21
ATOM     18  C   UNL     1      35.073 -20.793 -20.807  0.00  0.00    -0.043 C 
ATOM     19  C   UNL     1      36.199 -21.206 -20.093  0.00  0.00    -0.005 C 
ATOM     20  C   UNL     1      33.797 -21.094 -20.332  0.00  0.00    -0.005 C 
ATOM     21  C   UNL     1      34.771 -22.218 -18.428  0.00  0.00    +0.048 C 
ATOM     22  C   UNL     1      36.047 -21.918 -18.904  0.00  0.00    +0.014 C 
ATOM     23  C   UNL     1      33.645 -21.806 -19.143  0.00  0.00    +0.014 C 
BRANCH  18  24
ATOM     24  C   UNL     1      35.235 -20.031 -22.079  0.00  0.00    -0.050 C 
BRANCH  24  25
ATOM     25  N   UNL     1      34.825 -18.641 -21.949  0.00  0.00    +0.390 N 
ATOM     26  C   UNL     1      35.565 -17.936 -20.902  0.00  0.00    -0.077 C 
ATOM     27  C   UNL     1      35.066 -17.871 -23.168  0.00  0.00    -0.077 C 
ATOM     28  C   UNL     1      35.272 -16.473 -21.203  0.00  0.00    -0.025 C 
ATOM     29  C   UNL     1      34.941 -16.431 -22.692  0.00  0.00    -0.025 C 
ATOM     30  H   UNL     1      33.830 -18.697 -21.731  0.00  0.00    -0.079 HD
ENDBRANCH  24  25
ENDBRANCH  18  24
ENDBRANCH   1  21
TORSDOF 4
ENDMDL
MODEL 8
REMARK VINA RESULT:     -10.4      4.236      9.892
REMARK  Name = 24808489
REMARK  4 active torsions:
REMARK  status: ('A' for Active; 'I' for Inactive)
REMARK    1  A    between atoms: N_1  and  C_10
REMARK    2  A    between atoms: N_1  and  C_21
REMARK    3  A    between atoms: C_18  and  C_24
REMARK    4  A    between atoms: C_24  and  N_25
REMARK                            x       y       z     vdW  Elec       q    Type
REMARK                         _______ _______ _______ _____ _____    ______ ____
ROOT
ATOM      1  N   UNL     1      36.001 -18.616 -21.453  0.00  0.00    -0.311 N 
ATOM      2  H   UNL     1      36.937 -18.669 -21.749  0.00  0.00    +0.152 HD
ENDROOT
BRANCH   1  10
ATOM      3 BR   UNL     1      33.009 -12.387 -20.990  0.00  0.00    -0.049 Br
ATOM      4  O   UNL     1      35.703 -19.074 -23.932  0.00  0.00    -0.270 OA
ATOM      5  O   UNL     1      33.619 -16.079 -26.717  0.00  0.00    -0.270 OA
ATOM      6  N   UNL     1      34.656 -17.550 -25.289  0.00  0.00    -0.248 N 
ATOM      7  C   UNL     1      34.906 -17.043 -22.930  0.00  0.00    +0.068 C 
ATOM      8  C   UNL     1      34.218 -15.754 -23.159  0.00  0.00    +0.010 C 
ATOM      9  C   UNL     1      33.780 -15.431 -24.455  0.00  0.00    +0.054 C 
ATOM     10  C   UNL     1      35.365 -17.457 -21.736  0.00  0.00    +0.066 C 
ATOM     11  C   UNL     1      35.136 -17.992 -24.064  0.00  0.00    +0.253 C 
ATOM     12  C   UNL     1      33.972 -14.822 -22.136  0.00  0.00    +0.007 C 
ATOM     13  C   UNL     1      34.001 -16.361 -25.585  0.00  0.00    +0.252 C 
ATOM     14  C   UNL     1      33.123 -14.217 -24.714  0.00  0.00    +0.005 C 
ATOM     15  C   UNL     1      33.318 -13.613 -22.395  0.00  0.00    +0.035 C 
ATOM     16  C   UNL     1      32.894 -13.311 -23.682  0.00  0.00    +0.007 C 
ATOM     17  H   UNL     1      34.798 -18.160 -26.049  0.00  0.00    +0.158 HD
ENDBRANCH   1  10
BRANCH   1  21
ATOM     18  C   UNL     1      34.519 -22.017 -19.490  0.00  0.00    -0.043 C 
ATOM     19  C   UNL     1      33.645 -21.165 -20.164  0.00  0.00    -0.005 C 
ATOM     20  C   UNL     1      35.886 -21.740 -19.467  0.00  0.00    -0.005 C 
ATOM     21  C   UNL     1      35.504 -19.757 -20.794  0.00  0.00    +0.048 C 
ATOM     22  C   UNL     1      34.138 -20.035 -20.816  0.00  0.00    +0.014 C 
ATOM     23  C   UNL     1      36.378 -20.609 -20.119  0.00  0.00    +0.014 C 
BRANCH  18  24
ATOM     24  C   UNL     1      33.992 -23.225 -18.792  0.00  0.00    -0.050 C 
BRANCH  24  25
ATOM     25  N   UNL     1      33.586 -22.943 -17.423  0.00  0.00    +0.390 N 
ATOM     26  C   UNL     1      32.182 -23.274 -17.178  0.00  0.00    -0.077 C 
ATOM     27  C   UNL     1      34.338 -23.728 -16.445  0.00  0.00    -0.077 C 
ATOM     28  C   UNL     1      32.093 -23.277 -15.659  0.00  0.00    -0.025 C 
ATOM     29  C   UNL     1      33.510 -23.573 -15.177  0.00  0.00    -0.025 C 
ATOM     30  H   UNL     1      33.759 -21.943 -17.316  0.00  0.00    -0.079 HD
ENDBRANCH  24  25
ENDBRANCH  18  24
ENDBRANCH   1  21
TORSDOF 4
ENDMDL
MODEL 9
REMARK VINA RESULT:     -10.2     11.727     16.738
REMARK  Name = 24808489
REMARK  4 active torsions:
REMARK  status: ('A' for Active; 'I' for Inactive)
REMARK    1  A    between atoms: N_1  and  C_10
REMARK    2  A    between atoms: N_1  and  C_21
REMARK    3  A    between atoms: C_18  and  C_24
REMARK    4  A    between atoms: C_24  and  N_25
REMARK                            x       y       z     vdW  Elec       q    Type
REMARK                         _______ _______ _______ _____ _____    ______ ____
ROOT
ATOM      1  N   UNL     1      33.754  -7.987 -23.006  0.00  0.00    -0.311 N 
ATOM      2  H   UNL     1      33.971  -7.725 -22.083  0.00  0.00    +0.152 HD
ENDROOT
BRANCH   1  10
ATOM      3 BR   UNL     1      34.087  -3.854 -28.553  0.00  0.00    -0.049 Br
ATOM      4  O   UNL     1      32.197  -6.632 -21.529  0.00  0.00    -0.270 OA
ATOM      5  O   UNL     1      30.476  -2.597 -22.880  0.00  0.00    -0.270 OA
ATOM      6  N   UNL     1      31.359  -4.620 -22.243  0.00  0.00    -0.248 N 
ATOM      7  C   UNL     1      32.840  -5.861 -23.709  0.00  0.00    +0.068 C 
ATOM      8  C   UNL     1      32.705  -4.785 -24.715  0.00  0.00    +0.010 C 
ATOM      9  C   UNL     1      31.897  -3.673 -24.425  0.00  0.00    +0.054 C 
ATOM     10  C   UNL     1      33.586  -6.968 -23.876  0.00  0.00    +0.066 C 
ATOM     11  C   UNL     1      32.123  -5.768 -22.399  0.00  0.00    +0.253 C 
ATOM     12  C   UNL     1      33.353  -4.814 -25.962  0.00  0.00    +0.007 C 
ATOM     13  C   UNL     1      31.182  -3.569 -23.133  0.00  0.00    +0.252 C 
ATOM     14  C   UNL     1      31.743  -2.630 -25.354  0.00  0.00    +0.005 C 
ATOM     15  C   UNL     1      33.199  -3.775 -26.886  0.00  0.00    +0.035 C 
ATOM     16  C   UNL     1      32.395  -2.684 -26.582  0.00  0.00    +0.007 C 
ATOM     17  H   UNL     1      30.878  -4.541 -21.387  0.00  0.00    +0.158 HD
ENDBRANCH   1  10
BRANCH   1  21
ATOM     18  C   UNL     1      33.478 -12.117 -23.708  0.00  0.00    -0.043 C 
ATOM     19  C   UNL     1      32.588 -11.497 -22.830  0.00  0.00    -0.005 C 
ATOM     20  C   UNL     1      34.460 -11.364 -24.352  0.00  0.00    -0.005 C 
ATOM     21  C   UNL     1      33.662  -9.373 -23.241  0.00  0.00    +0.048 C 
ATOM     22  C   UNL     1      32.681 -10.125 -22.597  0.00  0.00    +0.014 C 
ATOM     23  C   UNL     1      34.552  -9.992 -24.119  0.00  0.00    +0.014 C 
BRANCH  18  24
ATOM     24  C   UNL     1      33.380 -13.584 -23.957  0.00  0.00    -0.050 C 
BRANCH  24  25
ATOM     25  N   UNL     1      34.363 -14.343 -23.199  0.00  0.00    +0.390 N 
ATOM     26  C   UNL     1      33.992 -14.489 -21.792  0.00  0.00    -0.077 C 
ATOM     27  C   UNL     1      34.517 -15.710 -23.695  0.00  0.00    -0.077 C 
ATOM     28  C   UNL     1      34.912 -15.601 -21.310  0.00  0.00    -0.025 C 
ATOM     29  C   UNL     1      35.259 -16.401 -22.561  0.00  0.00    -0.025 C 
ATOM     30  H   UNL     1      35.224 -13.806 -23.305  0.00  0.00    -0.079 HD
ENDBRANCH  24  25
ENDBRANCH  18  24
ENDBRANCH   1  21
TORSDOF 4
ENDMDL
