MODEL 1
REMARK VINA RESULT:     -11.8      0.000      0.000
REMARK  Name = 6450813
REMARK  4 active torsions:
REMARK  status: ('A' for Active; 'I' for Inactive)
REMARK    1  A    between atoms: C_4  and  C_10
REMARK    2  A    between atoms: C_6  and  C_22
REMARK    3  A    between atoms: C_12  and  N_17
REMARK    4  A    between atoms: C_22  and  C_24
REMARK                            x       y       z     vdW  Elec       q    Type
REMARK                         _______ _______ _______ _____ _____    ______ ____
ROOT
ATOM      1  N   UNL     1      34.772 -16.238 -22.754  0.00  0.00    -0.191 N 
ATOM      2  N   UNL     1      34.969 -15.658 -21.537  0.00  0.00    -0.179 NA
ATOM      3  N   UNL     1      33.997 -15.657 -24.963  0.00  0.00    -0.231 NA
ATOM      4  C   UNL     1      34.995 -17.577 -23.119  0.00  0.00    +0.143 C 
ATOM      5  C   UNL     1      34.280 -15.310 -23.676  0.00  0.00    +0.141 C 
ATOM      6  C   UNL     1      34.177 -14.110 -23.007  0.00  0.00    +0.161 C 
ATOM      7  C   UNL     1      34.729 -17.962 -24.379  0.00  0.00    +0.020 C 
ATOM      8  C   UNL     1      34.611 -14.386 -21.706  0.00  0.00    +0.106 C 
ATOM      9  C   UNL     1      34.210 -16.898 -25.273  0.00  0.00    +0.097 C 
ENDROOT
BRANCH   4  10
ATOM     10  C   UNL     1      35.526 -18.564 -22.162  0.00  0.00    +0.003 C 
ATOM     11  C   UNL     1      34.659 -19.445 -21.513  0.00  0.00    +0.013 C 
ATOM     12  C   UNL     1      35.161 -20.379 -20.608  0.00  0.00    +0.054 C 
ATOM     13  C   UNL     1      36.896 -18.620 -21.905  0.00  0.00    -0.002 C 
ATOM     14  C   UNL     1      36.531 -20.434 -20.351  0.00  0.00    +0.015 C 
ATOM     15  C   UNL     1      37.399 -19.555 -21.000  0.00  0.00    +0.001 C 
BRANCH  12  17
ATOM     16  O   UNL     1      35.914 -22.384 -18.660  0.00  0.00    -0.275 OA
ATOM     17  N   UNL     1      34.295 -21.258 -19.957  0.00  0.00    -0.257 N 
ATOM     18  C   UNL     1      32.829 -21.148 -20.232  0.00  0.00    +0.120 C 
ATOM     19  C   UNL     1      34.733 -22.207 -18.970  0.00  0.00    +0.230 C 
ATOM     20  C   UNL     1      33.683 -23.011 -18.238  0.00  0.00    +0.095 C 
ENDBRANCH  12  17
ENDBRANCH   4  10
BRANCH   6  22
ATOM     21  O   UNL     1      34.083 -12.477 -24.686  0.00  0.00    -0.290 OA
ATOM     22  C   UNL     1      33.716 -12.874 -23.562  0.00  0.00    +0.191 C 
BRANCH  22  24
ATOM     23  S   UNL     1      32.736 -10.398 -23.060  0.00  0.00    -0.084 S 
ATOM     24  C   UNL     1      32.773 -12.057 -22.763  0.00  0.00    +0.065 C 
ATOM     25  C   UNL     1      31.928 -12.493 -21.813  0.00  0.00    +0.010 C 
ATOM     26  C   UNL     1      31.187 -11.403 -21.275  0.00  0.00    +0.008 C 
ATOM     27  C   UNL     1      31.526 -10.205 -21.863  0.00  0.00    +0.036 C 
ENDBRANCH  22  24
ENDBRANCH   6  22
TORSDOF 4
ENDMDL
MODEL 2
REMARK VINA RESULT:     -11.0      3.153      8.792
REMARK  Name = 6450813
REMARK  4 active torsions:
REMARK  status: ('A' for Active; 'I' for Inactive)
REMARK    1  A    between atoms: C_4  and  C_10
REMARK    2  A    between atoms: C_6  and  C_22
REMARK    3  A    between atoms: C_12  and  N_17
REMARK    4  A    between atoms: C_22  and  C_24
REMARK                            x       y       z     vdW  Elec       q    Type
REMARK                         _______ _______ _______ _____ _____    ______ ____
ROOT
ATOM      1  N   UNL     1      34.921 -16.352 -22.618  0.00  0.00    -0.191 N 
ATOM      2  N   UNL     1      35.169 -17.043 -23.766  0.00  0.00    -0.179 NA
ATOM      3  N   UNL     1      35.101 -16.633 -20.230  0.00  0.00    -0.231 NA
ATOM      4  C   UNL     1      34.387 -15.059 -22.486  0.00  0.00    +0.143 C 
ATOM      5  C   UNL     1      35.266 -17.110 -21.495  0.00  0.00    +0.141 C 
ATOM      6  C   UNL     1      35.752 -18.309 -21.965  0.00  0.00    +0.161 C 
ATOM      7  C   UNL     1      34.207 -14.550 -21.256  0.00  0.00    +0.020 C 
ATOM      8  C   UNL     1      35.667 -18.210 -23.359  0.00  0.00    +0.106 C 
ATOM      9  C   UNL     1      34.605 -15.438 -20.136  0.00  0.00    +0.097 C 
ENDROOT
BRANCH   4  10
ATOM     10  C   UNL     1      34.032 -14.243 -23.661  0.00  0.00    +0.003 C 
ATOM     11  C   UNL     1      34.340 -12.881 -23.686  0.00  0.00    +0.013 C 
ATOM     12  C   UNL     1      34.004 -12.109 -24.797  0.00  0.00    +0.054 C 
ATOM     13  C   UNL     1      33.388 -14.830 -24.750  0.00  0.00    -0.002 C 
ATOM     14  C   UNL     1      33.360 -12.698 -25.886  0.00  0.00    +0.015 C 
ATOM     15  C   UNL     1      33.051 -14.058 -25.862  0.00  0.00    +0.001 C 
BRANCH  12  17
ATOM     16  O   UNL     1      32.808 -10.061 -23.137  0.00  0.00    -0.275 OA
ATOM     17  N   UNL     1      34.311 -10.748 -24.822  0.00  0.00    -0.257 N 
ATOM     18  C   UNL     1      35.389 -10.278 -25.746  0.00  0.00    +0.120 C 
ATOM     19  C   UNL     1      33.704  -9.789 -23.941  0.00  0.00    +0.230 C 
ATOM     20  C   UNL     1      34.216  -8.367 -23.970  0.00  0.00    +0.095 C 
ENDBRANCH  12  17
ENDBRANCH   4  10
BRANCH   6  22
ATOM     21  O   UNL     1      37.439 -19.559 -20.923  0.00  0.00    -0.290 OA
ATOM     22  C   UNL     1      36.227 -19.397 -21.165  0.00  0.00    +0.191 C 
BRANCH  22  24
ATOM     23  S   UNL     1      35.811 -21.634 -19.693  0.00  0.00    -0.084 S 
ATOM     24  C   UNL     1      35.231 -20.347 -20.615  0.00  0.00    +0.065 C 
ATOM     25  C   UNL     1      33.896 -20.299 -20.767  0.00  0.00    +0.010 C 
ATOM     26  C   UNL     1      33.284 -21.390 -20.087  0.00  0.00    +0.008 C 
ATOM     27  C   UNL     1      34.209 -22.195 -19.460  0.00  0.00    +0.036 C 
ENDBRANCH  22  24
ENDBRANCH   6  22
TORSDOF 4
ENDMDL
MODEL 3
REMARK VINA RESULT:     -10.9      3.220      8.803
REMARK  Name = 6450813
REMARK  4 active torsions:
REMARK  status: ('A' for Active; 'I' for Inactive)
REMARK    1  A    between atoms: C_4  and  C_10
REMARK    2  A    between atoms: C_6  and  C_22
REMARK    3  A    between atoms: C_12  and  N_17
REMARK    4  A    between atoms: C_22  and  C_24
REMARK                            x       y       z     vdW  Elec       q    Type
REMARK                         _______ _______ _______ _____ _____    ______ ____
ROOT
ATOM      1  N   UNL     1      34.516 -15.644 -22.510  0.00  0.00    -0.191 N 
ATOM      2  N   UNL     1      34.694 -15.416 -21.178  0.00  0.00    -0.179 NA
ATOM      3  N   UNL     1      34.981 -17.341 -24.160  0.00  0.00    -0.231 NA
ATOM      4  C   UNL     1      33.917 -14.800 -23.459  0.00  0.00    +0.143 C 
ATOM      5  C   UNL     1      35.034 -16.890 -22.875  0.00  0.00    +0.141 C 
ATOM      6  C   UNL     1      35.542 -17.456 -21.727  0.00  0.00    +0.161 C 
ATOM      7  C   UNL     1      33.845 -15.204 -24.739  0.00  0.00    +0.020 C 
ATOM      8  C   UNL     1      35.305 -16.509 -20.725  0.00  0.00    +0.106 C 
ATOM      9  C   UNL     1      34.425 -16.541 -25.017  0.00  0.00    +0.097 C 
ENDROOT
BRANCH   4  10
ATOM     10  C   UNL     1      33.355 -13.488 -23.087  0.00  0.00    +0.003 C 
ATOM     11  C   UNL     1      33.916 -12.317 -23.598  0.00  0.00    +0.013 C 
ATOM     12  C   UNL     1      33.384 -11.077 -23.246  0.00  0.00    +0.054 C 
ATOM     13  C   UNL     1      32.262 -13.418 -22.224  0.00  0.00    -0.002 C 
ATOM     14  C   UNL     1      32.291 -11.007 -22.382  0.00  0.00    +0.015 C 
ATOM     15  C   UNL     1      31.729 -12.178 -21.871  0.00  0.00    +0.001 C 
BRANCH  12  17
ATOM     16  O   UNL     1      32.818  -8.385 -22.345  0.00  0.00    -0.275 OA
ATOM     17  N   UNL     1      33.944  -9.905 -23.756  0.00  0.00    -0.257 N 
ATOM     18  C   UNL     1      34.973 -10.018 -24.835  0.00  0.00    +0.120 C 
ATOM     19  C   UNL     1      33.646  -8.599 -23.234  0.00  0.00    +0.230 C 
ATOM     20  C   UNL     1      34.418  -7.419 -23.779  0.00  0.00    +0.095 C 
ENDBRANCH  12  17
ENDBRANCH   4  10
BRANCH   6  22
ATOM     21  O   UNL     1      37.310 -18.953 -22.085  0.00  0.00    -0.290 OA
ATOM     22  C   UNL     1      36.171 -18.738 -21.627  0.00  0.00    +0.191 C 
BRANCH  22  24
ATOM     23  S   UNL     1      36.327 -20.941 -20.056  0.00  0.00    -0.084 S 
ATOM     24  C   UNL     1      35.430 -19.830 -20.951  0.00  0.00    +0.065 C 
ATOM     25  C   UNL     1      34.102 -20.040 -20.970  0.00  0.00    +0.010 C 
ATOM     26  C   UNL     1      33.775 -21.192 -20.200  0.00  0.00    +0.008 C 
ATOM     27  C   UNL     1      34.891 -21.779 -19.646  0.00  0.00    +0.036 C 
ENDBRANCH  22  24
ENDBRANCH   6  22
TORSDOF 4
ENDMDL
MODEL 4
REMARK VINA RESULT:     -10.9      1.716      2.079
REMARK  Name = 6450813
REMARK  4 active torsions:
REMARK  status: ('A' for Active; 'I' for Inactive)
REMARK    1  A    between atoms: C_4  and  C_10
REMARK    2  A    between atoms: C_6  and  C_22
REMARK    3  A    between atoms: C_12  and  N_17
REMARK    4  A    between atoms: C_22  and  C_24
REMARK                            x       y       z     vdW  Elec       q    Type
REMARK                         _______ _______ _______ _____ _____    ______ ____
ROOT
ATOM      1  N   UNL     1      34.637 -16.673 -23.557  0.00  0.00    -0.191 N 
ATOM      2  N   UNL     1      35.036 -15.791 -22.598  0.00  0.00    -0.179 NA
ATOM      3  N   UNL     1      33.460 -16.691 -25.662  0.00  0.00    -0.231 NA
ATOM      4  C   UNL     1      34.823 -18.066 -23.581  0.00  0.00    +0.143 C 
ATOM      5  C   UNL     1      33.962 -16.016 -24.590  0.00  0.00    +0.141 C 
ATOM      6  C   UNL     1      33.952 -14.679 -24.264  0.00  0.00    +0.161 C 
ATOM      7  C   UNL     1      34.343 -18.771 -24.619  0.00  0.00    +0.020 C 
ATOM      8  C   UNL     1      34.621 -14.603 -23.037  0.00  0.00    +0.106 C 
ATOM      9  C   UNL     1      33.644 -17.975 -25.659  0.00  0.00    +0.097 C 
ENDROOT
BRANCH   4  10
ATOM     10  C   UNL     1      35.544 -18.771 -22.505  0.00  0.00    +0.003 C 
ATOM     11  C   UNL     1      34.858 -19.645 -21.661  0.00  0.00    +0.013 C 
ATOM     12  C   UNL     1      35.539 -20.312 -20.644  0.00  0.00    +0.054 C 
ATOM     13  C   UNL     1      36.912 -18.566 -22.331  0.00  0.00    -0.002 C 
ATOM     14  C   UNL     1      36.907 -20.106 -20.469  0.00  0.00    +0.015 C 
ATOM     15  C   UNL     1      37.595 -19.232 -21.313  0.00  0.00    +0.001 C 
BRANCH  12  17
ATOM     16  O   UNL     1      32.666 -20.632 -20.489  0.00  0.00    -0.275 OA
ATOM     17  N   UNL     1      34.853 -21.186 -19.798  0.00  0.00    -0.257 N 
ATOM     18  C   UNL     1      35.648 -22.090 -18.912  0.00  0.00    +0.120 C 
ATOM     19  C   UNL     1      33.422 -21.321 -19.800  0.00  0.00    +0.230 C 
ATOM     20  C   UNL     1      32.805 -22.396 -18.936  0.00  0.00    +0.095 C 
ENDBRANCH  12  17
ENDBRANCH   4  10
BRANCH   6  22
ATOM     21  O   UNL     1      32.561 -13.857 -25.962  0.00  0.00    -0.290 OA
ATOM     22  C   UNL     1      33.367 -13.627 -25.040  0.00  0.00    +0.191 C 
BRANCH  22  24
ATOM     23  S   UNL     1      33.019 -11.521 -23.371  0.00  0.00    -0.084 S 
ATOM     24  C   UNL     1      33.743 -12.230 -24.718  0.00  0.00    +0.065 C 
ATOM     25  C   UNL     1      34.609 -11.450 -25.387  0.00  0.00    +0.010 C 
ATOM     26  C   UNL     1      34.701 -10.171 -24.767  0.00  0.00    +0.008 C 
ATOM     27  C   UNL     1      33.888 -10.073 -23.659  0.00  0.00    +0.036 C 
ENDBRANCH  22  24
ENDBRANCH   6  22
TORSDOF 4
ENDMDL
MODEL 5
REMARK VINA RESULT:     -10.6      4.615     10.225
REMARK  Name = 6450813
REMARK  4 active torsions:
REMARK  status: ('A' for Active; 'I' for Inactive)
REMARK    1  A    between atoms: C_4  and  C_10
REMARK    2  A    between atoms: C_6  and  C_22
REMARK    3  A    between atoms: C_12  and  N_17
REMARK    4  A    between atoms: C_22  and  C_24
REMARK                            x       y       z     vdW  Elec       q    Type
REMARK                         _______ _______ _______ _____ _____    ______ ____
ROOT
ATOM      1  N   UNL     1      35.500 -21.905 -18.362  0.00  0.00    -0.191 N 
ATOM      2  N   UNL     1      36.779 -21.704 -17.938  0.00  0.00    -0.179 NA
ATOM      3  N   UNL     1      33.512 -23.100 -17.701  0.00  0.00    -0.231 NA
ATOM      4  C   UNL     1      34.880 -21.389 -19.513  0.00  0.00    +0.143 C 
ATOM      5  C   UNL     1      34.810 -22.746 -17.484  0.00  0.00    +0.141 C 
ATOM      6  C   UNL     1      35.691 -23.069 -16.477  0.00  0.00    +0.161 C 
ATOM      7  C   UNL     1      33.601 -21.714 -19.766  0.00  0.00    +0.020 C 
ATOM      8  C   UNL     1      36.876 -22.404 -16.809  0.00  0.00    +0.106 C 
ATOM      9  C   UNL     1      32.964 -22.612 -18.771  0.00  0.00    +0.097 C 
ENDROOT
BRANCH   4  10
ATOM     10  C   UNL     1      35.590 -20.490 -20.441  0.00  0.00    +0.003 C 
ATOM     11  C   UNL     1      34.896 -19.863 -21.476  0.00  0.00    +0.013 C 
ATOM     12  C   UNL     1      35.567 -19.013 -22.353  0.00  0.00    +0.054 C 
ATOM     13  C   UNL     1      36.958 -20.267 -20.285  0.00  0.00    -0.002 C 
ATOM     14  C   UNL     1      36.935 -18.790 -22.197  0.00  0.00    +0.015 C 
ATOM     15  C   UNL     1      37.631 -19.417 -21.163  0.00  0.00    +0.001 C 
BRANCH  12  17
ATOM     16  O   UNL     1      35.464 -16.164 -22.856  0.00  0.00    -0.275 OA
ATOM     17  N   UNL     1      34.873 -18.386 -23.389  0.00  0.00    -0.257 N 
ATOM     18  C   UNL     1      34.146 -19.239 -24.378  0.00  0.00    +0.120 C 
ATOM     19  C   UNL     1      34.896 -16.964 -23.603  0.00  0.00    +0.230 C 
ATOM     20  C   UNL     1      34.216 -16.417 -24.837  0.00  0.00    +0.095 C 
ENDBRANCH  12  17
ENDBRANCH   4  10
BRANCH   6  22
ATOM     21  O   UNL     1      34.368 -23.795 -14.683  0.00  0.00    -0.290 OA
ATOM     22  C   UNL     1      35.413 -23.910 -15.353  0.00  0.00    +0.191 C 
BRANCH  22  24
ATOM     23  S   UNL     1      37.685 -24.486 -13.992  0.00  0.00    -0.084 S 
ATOM     24  C   UNL     1      36.409 -24.948 -14.993  0.00  0.00    +0.065 C 
ATOM     25  C   UNL     1      36.412 -26.235 -15.377  0.00  0.00    +0.010 C 
ATOM     26  C   UNL     1      37.535 -26.912 -14.823  0.00  0.00    +0.008 C 
ATOM     27  C   UNL     1      38.311 -26.079 -14.048  0.00  0.00    +0.036 C 
ENDBRANCH  22  24
ENDBRANCH   6  22
TORSDOF 4
ENDMDL
MODEL 6
REMARK VINA RESULT:     -10.5      3.597      6.035
REMARK  Name = 6450813
REMARK  4 active torsions:
REMARK  status: ('A' for Active; 'I' for Inactive)
REMARK    1  A    between atoms: C_4  and  C_10
REMARK    2  A    between atoms: C_6  and  C_22
REMARK    3  A    between atoms: C_12  and  N_17
REMARK    4  A    between atoms: C_22  and  C_24
REMARK                            x       y       z     vdW  Elec       q    Type
REMARK                         _______ _______ _______ _____ _____    ______ ____
ROOT
ATOM      1  N   UNL     1      33.441 -11.369 -23.455  0.00  0.00    -0.191 N 
ATOM      2  N   UNL     1      34.397 -11.068 -24.378  0.00  0.00    -0.179 NA
ATOM      3  N   UNL     1      32.083 -10.271 -21.792  0.00  0.00    -0.231 NA
ATOM      4  C   UNL     1      32.895 -12.629 -23.157  0.00  0.00    +0.143 C 
ATOM      5  C   UNL     1      33.029 -10.221 -22.772  0.00  0.00    +0.141 C 
ATOM      6  C   UNL     1      33.748  -9.172 -23.297  0.00  0.00    +0.161 C 
ATOM      7  C   UNL     1      31.959 -12.723 -22.196  0.00  0.00    +0.020 C 
ATOM      8  C   UNL     1      34.567  -9.751 -24.273  0.00  0.00    +0.106 C 
ATOM      9  C   UNL     1      31.596 -11.445 -21.535  0.00  0.00    +0.097 C 
ENDROOT
BRANCH   4  10
ATOM     10  C   UNL     1      33.311 -13.846 -23.878  0.00  0.00    +0.003 C 
ATOM     11  C   UNL     1      33.959 -14.876 -23.195  0.00  0.00    +0.013 C 
ATOM     12  C   UNL     1      34.352 -16.027 -23.876  0.00  0.00    +0.054 C 
ATOM     13  C   UNL     1      33.055 -13.969 -25.243  0.00  0.00    -0.002 C 
ATOM     14  C   UNL     1      34.097 -16.149 -25.242  0.00  0.00    +0.015 C 
ATOM     15  C   UNL     1      33.448 -15.120 -25.926  0.00  0.00    +0.001 C 
BRANCH  12  17
ATOM     16  O   UNL     1      35.124 -16.003 -21.086  0.00  0.00    -0.275 OA
ATOM     17  N   UNL     1      35.002 -17.056 -23.194  0.00  0.00    -0.257 N 
ATOM     18  C   UNL     1      35.297 -18.323 -23.931  0.00  0.00    +0.120 C 
ATOM     19  C   UNL     1      35.322 -16.993 -21.794  0.00  0.00    +0.230 C 
ATOM     20  C   UNL     1      35.904 -18.224 -21.139  0.00  0.00    +0.095 C 
ENDBRANCH  12  17
ENDBRANCH   4  10
BRANCH   6  22
ATOM     21  O   UNL     1      33.646  -7.460 -21.699  0.00  0.00    -0.290 OA
ATOM     22  C   UNL     1      33.651  -7.801 -22.898  0.00  0.00    +0.191 C 
BRANCH  22  24
ATOM     23  S   UNL     1      32.015  -6.256 -24.409  0.00  0.00    -0.084 S 
ATOM     24  C   UNL     1      33.556  -6.769 -23.958  0.00  0.00    +0.065 C 
ATOM     25  C   UNL     1      34.575  -6.185 -24.612  0.00  0.00    +0.010 C 
ATOM     26  C   UNL     1      34.077  -5.244 -25.558  0.00  0.00    +0.008 C 
ATOM     27  C   UNL     1      32.702  -5.182 -25.553  0.00  0.00    +0.036 C 
ENDBRANCH  22  24
ENDBRANCH   6  22
TORSDOF 4
ENDMDL
MODEL 7
REMARK VINA RESULT:     -10.5      5.771      9.413
REMARK  Name = 6450813
REMARK  4 active torsions:
REMARK  status: ('A' for Active; 'I' for Inactive)
REMARK    1  A    between atoms: C_4  and  C_10
REMARK    2  A    between atoms: C_6  and  C_22
REMARK    3  A    between atoms: C_12  and  N_17
REMARK    4  A    between atoms: C_22  and  C_24
REMARK                            x       y       z     vdW  Elec       q    Type
REMARK                         _______ _______ _______ _____ _____    ______ ____
ROOT
ATOM      1  N   UNL     1      34.286 -23.185 -16.704  0.00  0.00    -0.191 N 
ATOM      2  N   UNL     1      35.590 -22.956 -17.027  0.00  0.00    -0.179 NA
ATOM      3  N   UNL     1      32.079 -22.816 -17.604  0.00  0.00    -0.231 NA
ATOM      4  C   UNL     1      33.777 -23.800 -15.548  0.00  0.00    +0.143 C 
ATOM      5  C   UNL     1      33.434 -22.708 -17.704  0.00  0.00    +0.141 C 
ATOM      6  C   UNL     1      34.239 -22.172 -18.684  0.00  0.00    +0.161 C 
ATOM      7  C   UNL     1      32.447 -23.927 -15.408  0.00  0.00    +0.020 C 
ATOM      8  C   UNL     1      35.545 -22.352 -18.213  0.00  0.00    +0.106 C 
ATOM      9  C   UNL     1      31.635 -23.385 -16.526  0.00  0.00    +0.097 C 
ENDROOT
BRANCH   4  10
ATOM     10  C   UNL     1      34.664 -24.320 -14.491  0.00  0.00    +0.003 C 
ATOM     11  C   UNL     1      35.883 -24.909 -14.829  0.00  0.00    +0.013 C 
ATOM     12  C   UNL     1      36.722 -25.400 -13.830  0.00  0.00    +0.054 C 
ATOM     13  C   UNL     1      34.285 -24.223 -13.152  0.00  0.00    -0.002 C 
ATOM     14  C   UNL     1      36.343 -25.304 -12.491  0.00  0.00    +0.015 C 
ATOM     15  C   UNL     1      35.124 -24.715 -12.152  0.00  0.00    +0.001 C 
BRANCH  12  17
ATOM     16  O   UNL     1      39.341 -24.518 -12.966  0.00  0.00    -0.275 OA
ATOM     17  N   UNL     1      37.941 -25.990 -14.168  0.00  0.00    -0.257 N 
ATOM     18  C   UNL     1      37.926 -27.224 -15.012  0.00  0.00    +0.120 C 
ATOM     19  C   UNL     1      39.206 -25.521 -13.671  0.00  0.00    +0.230 C 
ATOM     20  C   UNL     1      40.444 -26.324 -13.998  0.00  0.00    +0.095 C 
ENDBRANCH  12  17
ENDBRANCH   4  10
BRANCH   6  22
ATOM     21  O   UNL     1      32.675 -21.816 -20.394  0.00  0.00    -0.290 OA
ATOM     22  C   UNL     1      33.794 -21.567 -19.902  0.00  0.00    +0.191 C 
BRANCH  22  24
ATOM     23  S   UNL     1      34.035 -19.602 -21.753  0.00  0.00    -0.084 S 
ATOM     24  C   UNL     1      34.704 -20.616 -20.584  0.00  0.00    +0.065 C 
ATOM     25  C   UNL     1      36.023 -20.467 -20.375  0.00  0.00    +0.010 C 
ATOM     26  C   UNL     1      36.545 -19.450 -21.225  0.00  0.00    +0.008 C 
ATOM     27  C   UNL     1      35.572 -18.896 -22.027  0.00  0.00    +0.036 C 
ENDBRANCH  22  24
ENDBRANCH   6  22
TORSDOF 4
ENDMDL
MODEL 8
REMARK VINA RESULT:     -10.5      3.267      8.293
REMARK  Name = 6450813
REMARK  4 active torsions:
REMARK  status: ('A' for Active; 'I' for Inactive)
REMARK    1  A    between atoms: C_4  and  C_10
REMARK    2  A    between atoms: C_6  and  C_22
REMARK    3  A    between atoms: C_12  and  N_17
REMARK    4  A    between atoms: C_22  and  C_24
REMARK                            x       y       z     vdW  Elec       q    Type
REMARK                         _______ _______ _______ _____ _____    ______ ____
ROOT
ATOM      1  N   UNL     1      34.188 -14.473 -24.076  0.00  0.00    -0.191 N 
ATOM      2  N   UNL     1      34.753 -14.430 -22.837  0.00  0.00    -0.179 NA
ATOM      3  N   UNL     1      33.600 -16.084 -25.772  0.00  0.00    -0.231 NA
ATOM      4  C   UNL     1      33.718 -13.398 -24.850  0.00  0.00    +0.143 C 
ATOM      5  C   UNL     1      34.121 -15.787 -24.549  0.00  0.00    +0.141 C 
ATOM      6  C   UNL     1      34.656 -16.586 -23.563  0.00  0.00    +0.161 C 
ATOM      7  C   UNL     1      33.197 -13.646 -26.064  0.00  0.00    +0.020 C 
ATOM      8  C   UNL     1      35.025 -15.700 -22.544  0.00  0.00    +0.106 C 
ATOM      9  C   UNL     1      33.176 -15.074 -26.467  0.00  0.00    +0.097 C 
ENDROOT
BRANCH   4  10
ATOM     10  C   UNL     1      33.770 -12.008 -24.360  0.00  0.00    +0.003 C 
ATOM     11  C   UNL     1      32.953 -11.610 -23.301  0.00  0.00    +0.013 C 
ATOM     12  C   UNL     1      33.002 -10.296 -22.837  0.00  0.00    +0.054 C 
ATOM     13  C   UNL     1      34.636 -11.091 -24.954  0.00  0.00    -0.002 C 
ATOM     14  C   UNL     1      33.868  -9.378 -23.432  0.00  0.00    +0.015 C 
ATOM     15  C   UNL     1      34.685  -9.776 -24.491  0.00  0.00    +0.001 C 
BRANCH  12  17
ATOM     16  O   UNL     1      32.015 -11.994 -20.710  0.00  0.00    -0.275 OA
ATOM     17  N   UNL     1      32.185  -9.897 -21.778  0.00  0.00    -0.257 N 
ATOM     18  C   UNL     1      31.806  -8.454 -21.676  0.00  0.00    +0.120 C 
ATOM     19  C   UNL     1      31.761 -10.787 -20.732  0.00  0.00    +0.230 C 
ATOM     20  C   UNL     1      30.991 -10.207 -19.569  0.00  0.00    +0.095 C 
ENDBRANCH  12  17
ENDBRANCH   4  10
BRANCH   6  22
ATOM     21  O   UNL     1      34.360 -18.680 -24.573  0.00  0.00    -0.290 OA
ATOM     22  C   UNL     1      34.790 -18.010 -23.614  0.00  0.00    +0.191 C 
BRANCH  22  24
ATOM     23  S   UNL     1      34.557 -19.782 -21.577  0.00  0.00    -0.084 S 
ATOM     24  C   UNL     1      35.467 -18.689 -22.483  0.00  0.00    +0.065 C 
ATOM     25  C   UNL     1      36.742 -18.533 -22.091  0.00  0.00    +0.010 C 
ATOM     26  C   UNL     1      37.016 -19.360 -20.965  0.00  0.00    +0.008 C 
ATOM     27  C   UNL     1      35.916 -20.093 -20.581  0.00  0.00    +0.036 C 
ENDBRANCH  22  24
ENDBRANCH   6  22
TORSDOF 4
ENDMDL
MODEL 9
REMARK VINA RESULT:     -10.5      3.563      6.316
REMARK  Name = 6450813
REMARK  4 active torsions:
REMARK  status: ('A' for Active; 'I' for Inactive)
REMARK    1  A    between atoms: C_4  and  C_10
REMARK    2  A    between atoms: C_6  and  C_22
REMARK    3  A    between atoms: C_12  and  N_17
REMARK    4  A    between atoms: C_22  and  C_24
REMARK                            x       y       z     vdW  Elec       q    Type
REMARK                         _______ _______ _______ _____ _____    ______ ____
ROOT
ATOM      1  N   UNL     1      33.056 -10.862 -22.981  0.00  0.00    -0.191 N 
ATOM      2  N   UNL     1      32.093 -11.438 -22.209  0.00  0.00    -0.179 NA
ATOM      3  N   UNL     1      34.030  -8.693 -23.388  0.00  0.00    -0.231 NA
ATOM      4  C   UNL     1      33.887 -11.480 -23.931  0.00  0.00    +0.143 C 
ATOM      5  C   UNL     1      33.142  -9.489 -22.730  0.00  0.00    +0.141 C 
ATOM      6  C   UNL     1      32.204  -9.209 -21.761  0.00  0.00    +0.161 C 
ATOM      7  C   UNL     1      34.778 -10.732 -24.604  0.00  0.00    +0.020 C 
ATOM      8  C   UNL     1      31.595 -10.437 -21.484  0.00  0.00    +0.106 C 
ATOM      9  C   UNL     1      34.784  -9.288 -24.260  0.00  0.00    +0.097 C 
ENDROOT
BRANCH   4  10
ATOM     10  C   UNL     1      33.818 -12.928 -24.197  0.00  0.00    +0.003 C 
ATOM     11  C   UNL     1      34.335 -13.835 -23.271  0.00  0.00    +0.013 C 
ATOM     12  C   UNL     1      34.269 -15.205 -23.523  0.00  0.00    +0.054 C 
ATOM     13  C   UNL     1      33.233 -13.393 -25.375  0.00  0.00    -0.002 C 
ATOM     14  C   UNL     1      33.685 -15.669 -24.701  0.00  0.00    +0.015 C 
ATOM     15  C   UNL     1      33.167 -14.764 -25.628  0.00  0.00    +0.001 C 
BRANCH  12  17
ATOM     16  O   UNL     1      35.281 -17.852 -24.114  0.00  0.00    -0.275 OA
ATOM     17  N   UNL     1      34.788 -16.112 -22.598  0.00  0.00    -0.257 N 
ATOM     18  C   UNL     1      34.890 -15.690 -21.167  0.00  0.00    +0.120 C 
ATOM     19  C   UNL     1      35.310 -17.400 -22.967  0.00  0.00    +0.230 C 
ATOM     20  C   UNL     1      35.967 -18.237 -21.895  0.00  0.00    +0.095 C 
ENDBRANCH  12  17
ENDBRANCH   4  10
BRANCH   6  22
ATOM     21  O   UNL     1      31.869  -7.746 -19.960  0.00  0.00    -0.290 OA
ATOM     22  C   UNL     1      31.941  -7.922 -21.192  0.00  0.00    +0.191 C 
BRANCH  22  24
ATOM     23  S   UNL     1      30.791  -7.021 -23.475  0.00  0.00    -0.084 S 
ATOM     24  C   UNL     1      31.753  -6.775 -22.113  0.00  0.00    +0.065 C 
ATOM     25  C   UNL     1      32.270  -5.541 -21.985  0.00  0.00    +0.010 C 
ATOM     26  C   UNL     1      31.860  -4.721 -23.074  0.00  0.00    +0.008 C 
ATOM     27  C   UNL     1      31.052  -5.399 -23.959  0.00  0.00    +0.036 C 
ENDBRANCH  22  24
ENDBRANCH   6  22
TORSDOF 4
ENDMDL
