MODEL 1
REMARK VINA RESULT:     -12.4      0.000      0.000
REMARK  Name = 5288607
REMARK  4 active torsions:
REMARK  status: ('A' for Active; 'I' for Inactive)
REMARK    1  A    between atoms: N_2  and  C_19
REMARK    2  A    between atoms: C_3  and  C_6
REMARK    3  A    between atoms: C_5  and  C_16
REMARK    4  A    between atoms: C_19  and  C_21
REMARK                            x       y       z     vdW  Elec       q    Type
REMARK                         _______ _______ _______ _____ _____    ______ ____
ROOT
ATOM      1  O   UNL     1      34.623 -16.595 -25.977  0.00  0.00    -0.270 OA
ATOM      2  N   UNL     1      33.627 -14.951 -24.671  0.00  0.00    -0.270 N 
ATOM      3  C   UNL     1      34.386 -16.107 -24.872  0.00  0.00    +0.249 C 
ATOM      4  C   UNL     1      33.066 -14.255 -25.822  0.00  0.00    +0.116 C 
ENDROOT
BRANCH   3   6
ATOM      5  C   UNL     1      34.868 -18.127 -23.535  0.00  0.00    +0.006 C 
ATOM      6  C   UNL     1      34.898 -16.778 -23.639  0.00  0.00    +0.058 C 
BRANCH   5  16
ATOM      7  O   UNL     1      36.400 -22.577 -17.437  0.00  0.00    -0.275 OA
ATOM      8  N   UNL     1      36.678 -20.990 -19.073  0.00  0.00    -0.270 N 
ATOM      9  N   UNL     1      37.050 -19.404 -20.788  0.00  0.00    -0.229 NA
ATOM     10  C   UNL     1      33.993 -21.420 -19.876  0.00  0.00    +0.039 C 
ATOM     11  C   UNL     1      34.907 -20.512 -20.643  0.00  0.00    +0.010 C 
ATOM     12  C   UNL     1      34.780 -22.535 -19.204  0.00  0.00    +0.090 C 
ATOM     13  C   UNL     1      36.210 -20.290 -20.202  0.00  0.00    +0.130 C 
ATOM     14  C   UNL     1      34.456 -19.788 -21.749  0.00  0.00    +0.000 C 
ATOM     15  C   UNL     1      36.000 -22.027 -18.464  0.00  0.00    +0.227 C 
ATOM     16  C   UNL     1      35.307 -18.890 -22.380  0.00  0.00    +0.019 C 
ATOM     17  C   UNL     1      36.582 -18.733 -21.864  0.00  0.00    +0.100 C 
ATOM     18  H   UNL     1      37.546 -20.723 -18.694  0.00  0.00    +0.156 HD
ENDBRANCH   5  16
ENDBRANCH   3   6
BRANCH   2  19
ATOM     19  C   UNL     1      33.305 -14.373 -23.368  0.00  0.00    +0.122 C 
BRANCH  19  21
ATOM     20  N   UNL     1      34.024 -10.856 -24.035  0.00  0.00    -0.284 N 
ATOM     21  C   UNL     1      33.400 -12.888 -23.441  0.00  0.00    +0.014 C 
ATOM     22  C   UNL     1      32.653 -11.966 -22.670  0.00  0.00    +0.013 C 
ATOM     23  C   UNL     1      33.064 -10.691 -23.063  0.00  0.00    +0.051 C 
ATOM     24  C   UNL     1      34.234 -12.188 -24.270  0.00  0.00    +0.063 C 
ATOM     25  C   UNL     1      31.662 -12.082 -21.674  0.00  0.00    +0.001 C 
ATOM     26  C   UNL     1      32.532  -9.521 -22.509  0.00  0.00    +0.015 C 
ATOM     27  C   UNL     1      34.720  -9.787 -24.720  0.00  0.00    +0.117 C 
ATOM     28  C   UNL     1      31.122 -10.922 -21.110  0.00  0.00    +0.000 C 
ATOM     29  C   UNL     1      31.551  -9.662 -21.521  0.00  0.00    +0.001 C 
ENDBRANCH  19  21
ENDBRANCH   2  19
TORSDOF 4
ENDMDL
MODEL 2
REMARK VINA RESULT:     -11.5      5.846     12.425
REMARK  Name = 5288607
REMARK  4 active torsions:
REMARK  status: ('A' for Active; 'I' for Inactive)
REMARK    1  A    between atoms: N_2  and  C_19
REMARK    2  A    between atoms: C_3  and  C_6
REMARK    3  A    between atoms: C_5  and  C_16
REMARK    4  A    between atoms: C_19  and  C_21
REMARK                            x       y       z     vdW  Elec       q    Type
REMARK                         _______ _______ _______ _____ _____    ______ ____
ROOT
ATOM      1  O   UNL     1      30.920 -24.671 -16.297  0.00  0.00    -0.270 OA
ATOM      2  N   UNL     1      32.303 -24.253 -14.476  0.00  0.00    -0.270 N 
ATOM      3  C   UNL     1      31.852 -24.051 -15.783  0.00  0.00    +0.249 C 
ATOM      4  C   UNL     1      31.650 -25.254 -13.642  0.00  0.00    +0.116 C 
ENDROOT
BRANCH   3   6
ATOM      5  C   UNL     1      33.491 -23.418 -17.519  0.00  0.00    +0.006 C 
ATOM      6  C   UNL     1      32.594 -23.030 -16.583  0.00  0.00    +0.058 C 
BRANCH   5  16
ATOM      7  O   UNL     1      36.978 -18.445 -22.257  0.00  0.00    -0.275 OA
ATOM      8  N   UNL     1      36.698 -20.018 -20.608  0.00  0.00    -0.270 N 
ATOM      9  N   UNL     1      36.455 -21.575 -18.843  0.00  0.00    -0.229 NA
ATOM     10  C   UNL     1      33.960 -20.203 -21.320  0.00  0.00    +0.039 C 
ATOM     11  C   UNL     1      34.515 -20.936 -20.135  0.00  0.00    +0.010 C 
ATOM     12  C   UNL     1      34.731 -18.915 -21.567  0.00  0.00    +0.090 C 
ATOM     13  C   UNL     1      35.874 -20.857 -19.833  0.00  0.00    +0.130 C 
ATOM     14  C   UNL     1      33.722 -21.793 -19.370  0.00  0.00    +0.000 C 
ATOM     15  C   UNL     1      36.232 -19.117 -21.545  0.00  0.00    +0.227 C 
ATOM     16  C   UNL     1      34.292 -22.523 -18.335  0.00  0.00    +0.019 C 
ATOM     17  C   UNL     1      35.652 -22.382 -18.116  0.00  0.00    +0.100 C 
ATOM     18  H   UNL     1      37.671 -20.077 -20.471  0.00  0.00    +0.156 HD
ENDBRANCH   5  16
ENDBRANCH   3   6
BRANCH   2  19
ATOM     19  C   UNL     1      33.427 -23.554 -13.857  0.00  0.00    +0.122 C 
BRANCH  19  21
ATOM     20  N   UNL     1      36.122 -25.868 -14.702  0.00  0.00    -0.284 N 
ATOM     21  C   UNL     1      34.659 -24.383 -13.977  0.00  0.00    +0.014 C 
ATOM     22  C   UNL     1      35.788 -24.327 -13.125  0.00  0.00    +0.013 C 
ATOM     23  C   UNL     1      36.698 -25.272 -13.603  0.00  0.00    +0.051 C 
ATOM     24  C   UNL     1      34.884 -25.334 -14.935  0.00  0.00    +0.063 C 
ATOM     25  C   UNL     1      36.135 -23.565 -11.991  0.00  0.00    +0.001 C 
ATOM     26  C   UNL     1      37.942 -25.494 -13.002  0.00  0.00    +0.015 C 
ATOM     27  C   UNL     1      36.727 -26.909 -15.506  0.00  0.00    +0.117 C 
ATOM     28  C   UNL     1      37.374 -23.777 -11.379  0.00  0.00    +0.000 C 
ATOM     29  C   UNL     1      38.263 -24.727 -11.877  0.00  0.00    +0.001 C 
ENDBRANCH  19  21
ENDBRANCH   2  19
TORSDOF 4
ENDMDL
MODEL 3
REMARK VINA RESULT:     -11.2      1.110      2.064
REMARK  Name = 5288607
REMARK  4 active torsions:
REMARK  status: ('A' for Active; 'I' for Inactive)
REMARK    1  A    between atoms: N_2  and  C_19
REMARK    2  A    between atoms: C_3  and  C_6
REMARK    3  A    between atoms: C_5  and  C_16
REMARK    4  A    between atoms: C_19  and  C_21
REMARK                            x       y       z     vdW  Elec       q    Type
REMARK                         _______ _______ _______ _____ _____    ______ ____
ROOT
ATOM      1  O   UNL     1      32.940 -16.014 -25.875  0.00  0.00    -0.270 OA
ATOM      2  N   UNL     1      33.769 -14.043 -24.965  0.00  0.00    -0.270 N 
ATOM      3  C   UNL     1      33.539 -15.421 -24.977  0.00  0.00    +0.249 C 
ATOM      4  C   UNL     1      33.282 -13.227 -26.069  0.00  0.00    +0.116 C 
ENDROOT
BRANCH   3   6
ATOM      5  C   UNL     1      34.672 -17.368 -23.964  0.00  0.00    +0.006 C 
ATOM      6  C   UNL     1      34.042 -16.181 -23.794  0.00  0.00    +0.058 C 
BRANCH   5  16
ATOM      7  O   UNL     1      36.537 -22.219 -18.279  0.00  0.00    -0.275 OA
ATOM      8  N   UNL     1      36.736 -20.544 -19.837  0.00  0.00    -0.270 N 
ATOM      9  N   UNL     1      37.022 -18.867 -21.480  0.00  0.00    -0.229 NA
ATOM     10  C   UNL     1      33.984 -20.852 -20.445  0.00  0.00    +0.039 C 
ATOM     11  C   UNL     1      34.863 -19.924 -21.229  0.00  0.00    +0.010 C 
ATOM     12  C   UNL     1      34.786 -22.027 -19.905  0.00  0.00    +0.090 C 
ATOM     13  C   UNL     1      36.203 -19.764 -20.881  0.00  0.00    +0.130 C 
ATOM     14  C   UNL     1      34.350 -19.123 -22.250  0.00  0.00    +0.000 C 
ATOM     15  C   UNL     1      36.075 -21.598 -19.236  0.00  0.00    +0.227 C 
ATOM     16  C   UNL     1      35.176 -18.211 -22.895  0.00  0.00    +0.019 C 
ATOM     17  C   UNL     1      36.492 -18.120 -22.474  0.00  0.00    +0.100 C 
ATOM     18  H   UNL     1      37.639 -20.323 -19.514  0.00  0.00    +0.156 HD
ENDBRANCH   5  16
ENDBRANCH   3   6
BRANCH   2  19
ATOM     19  C   UNL     1      34.447 -13.314 -23.895  0.00  0.00    +0.122 C 
BRANCH  19  21
ATOM     20  N   UNL     1      31.849 -11.340 -22.258  0.00  0.00    -0.284 N 
ATOM     21  C   UNL     1      33.530 -12.284 -23.331  0.00  0.00    +0.014 C 
ATOM     22  C   UNL     1      33.658 -10.883 -23.481  0.00  0.00    +0.013 C 
ATOM     23  C   UNL     1      32.586 -10.308 -22.795  0.00  0.00    +0.051 C 
ATOM     24  C   UNL     1      32.416 -12.543 -22.581  0.00  0.00    +0.063 C 
ATOM     25  C   UNL     1      34.579 -10.037 -24.130  0.00  0.00    +0.001 C 
ATOM     26  C   UNL     1      32.388  -8.924 -22.725  0.00  0.00    +0.015 C 
ATOM     27  C   UNL     1      30.646 -11.189 -21.465  0.00  0.00    +0.117 C 
ATOM     28  C   UNL     1      34.393  -8.651 -24.070  0.00  0.00    +0.000 C 
ATOM     29  C   UNL     1      33.315  -8.106 -23.378  0.00  0.00    +0.001 C 
ENDBRANCH  19  21
ENDBRANCH   2  19
TORSDOF 4
ENDMDL
MODEL 4
REMARK VINA RESULT:     -10.9      6.065     12.212
REMARK  Name = 5288607
REMARK  4 active torsions:
REMARK  status: ('A' for Active; 'I' for Inactive)
REMARK    1  A    between atoms: N_2  and  C_19
REMARK    2  A    between atoms: C_3  and  C_6
REMARK    3  A    between atoms: C_5  and  C_16
REMARK    4  A    between atoms: C_19  and  C_21
REMARK                            x       y       z     vdW  Elec       q    Type
REMARK                         _______ _______ _______ _____ _____    ______ ____
ROOT
ATOM      1  O   UNL     1      32.812  -7.448 -19.512  0.00  0.00    -0.270 OA
ATOM      2  N   UNL     1      31.826  -9.243 -20.610  0.00  0.00    -0.270 N 
ATOM      3  C   UNL     1      32.304  -7.933 -20.523  0.00  0.00    +0.249 C 
ATOM      4  C   UNL     1      31.920 -10.117 -19.448  0.00  0.00    +0.116 C 
ENDROOT
BRANCH   3   6
ATOM      5  C   UNL     1      33.225  -6.740 -22.480  0.00  0.00    +0.006 C 
ATOM      6  C   UNL     1      32.142  -7.093 -21.748  0.00  0.00    +0.058 C 
BRANCH   5  16
ATOM      7  O   UNL     1      33.874  -2.680 -28.994  0.00  0.00    -0.275 OA
ATOM      8  N   UNL     1      33.009  -3.456 -27.014  0.00  0.00    -0.270 N 
ATOM      9  N   UNL     1      32.032  -4.281 -25.023  0.00  0.00    -0.229 NA
ATOM     10  C   UNL     1      35.379  -4.963 -26.627  0.00  0.00    +0.039 C 
ATOM     11  C   UNL     1      34.212  -5.081 -25.694  0.00  0.00    +0.010 C 
ATOM     12  C   UNL     1      34.913  -4.615 -28.033  0.00  0.00    +0.090 C 
ATOM     13  C   UNL     1      33.075  -4.298 -25.887  0.00  0.00    +0.130 C 
ATOM     14  C   UNL     1      34.266  -5.890 -24.557  0.00  0.00    +0.000 C 
ATOM     15  C   UNL     1      33.917  -3.474 -28.054  0.00  0.00    +0.227 C 
ATOM     16  C   UNL     1      33.199  -5.905 -23.668  0.00  0.00    +0.019 C 
ATOM     17  C   UNL     1      32.116  -5.087 -23.942  0.00  0.00    +0.100 C 
ATOM     18  H   UNL     1      32.266  -2.812 -27.063  0.00  0.00    +0.156 HD
ENDBRANCH   5  16
ENDBRANCH   3   6
BRANCH   2  19
ATOM     19  C   UNL     1      31.190  -9.829 -21.788  0.00  0.00    +0.122 C 
BRANCH  19  21
ATOM     20  N   UNL     1      33.690 -11.185 -24.076  0.00  0.00    -0.284 N 
ATOM     21  C   UNL     1      32.191 -10.617 -22.559  0.00  0.00    +0.014 C 
ATOM     22  C   UNL     1      32.597 -11.945 -22.286  0.00  0.00    +0.013 C 
ATOM     23  C   UNL     1      33.543 -12.282 -23.256  0.00  0.00    +0.051 C 
ATOM     24  C   UNL     1      32.871 -10.171 -23.659  0.00  0.00    +0.063 C 
ATOM     25  C   UNL     1      32.258 -12.902 -21.309  0.00  0.00    +0.001 C 
ATOM     26  C   UNL     1      34.171 -13.532 -23.298  0.00  0.00    +0.015 C 
ATOM     27  C   UNL     1      34.578 -11.103 -25.217  0.00  0.00    +0.117 C 
ATOM     28  C   UNL     1      32.875 -14.157 -21.339  0.00  0.00    +0.000 C 
ATOM     29  C   UNL     1      33.817 -14.465 -22.319  0.00  0.00    +0.001 C 
ENDBRANCH  19  21
ENDBRANCH   2  19
TORSDOF 4
ENDMDL
MODEL 5
REMARK VINA RESULT:     -10.7      1.266      2.182
REMARK  Name = 5288607
REMARK  4 active torsions:
REMARK  status: ('A' for Active; 'I' for Inactive)
REMARK    1  A    between atoms: N_2  and  C_19
REMARK    2  A    between atoms: C_3  and  C_6
REMARK    3  A    between atoms: C_5  and  C_16
REMARK    4  A    between atoms: C_19  and  C_21
REMARK                            x       y       z     vdW  Elec       q    Type
REMARK                         _______ _______ _______ _____ _____    ______ ____
ROOT
ATOM      1  O   UNL     1      33.231 -17.856 -25.791  0.00  0.00    -0.270 OA
ATOM      2  N   UNL     1      34.161 -15.821 -25.162  0.00  0.00    -0.270 N 
ATOM      3  C   UNL     1      33.955 -17.198 -25.042  0.00  0.00    +0.249 C 
ATOM      4  C   UNL     1      33.491 -15.088 -26.228  0.00  0.00    +0.116 C 
ENDROOT
BRANCH   3   6
ATOM      5  C   UNL     1      34.023 -18.837 -23.196  0.00  0.00    +0.006 C 
ATOM      6  C   UNL     1      34.652 -17.870 -23.905  0.00  0.00    +0.058 C 
BRANCH   5  16
ATOM      7  O   UNL     1      36.185 -22.934 -17.042  0.00  0.00    -0.275 OA
ATOM      8  N   UNL     1      36.301 -21.470 -18.807  0.00  0.00    -0.270 N 
ATOM      9  N   UNL     1      36.499 -20.016 -20.662  0.00  0.00    -0.229 NA
ATOM     10  C   UNL     1      33.523 -21.845 -19.234  0.00  0.00    +0.039 C 
ATOM     11  C   UNL     1      34.358 -21.026 -20.171  0.00  0.00    +0.010 C 
ATOM     12  C   UNL     1      34.354 -22.944 -18.589  0.00  0.00    +0.090 C 
ATOM     13  C   UNL     1      35.714 -20.827 -19.914  0.00  0.00    +0.130 C 
ATOM     14  C   UNL     1      33.793 -20.359 -21.259  0.00  0.00    +0.000 C 
ATOM     15  C   UNL     1      35.675 -22.437 -18.046  0.00  0.00    +0.227 C 
ATOM     16  C   UNL     1      34.583 -19.539 -22.055  0.00  0.00    +0.019 C 
ATOM     17  C   UNL     1      35.917 -19.399 -21.715  0.00  0.00    +0.100 C 
ATOM     18  H   UNL     1      37.218 -21.213 -18.560  0.00  0.00    +0.156 HD
ENDBRANCH   5  16
ENDBRANCH   3   6
BRANCH   2  19
ATOM     19  C   UNL     1      34.987 -15.014 -24.266  0.00  0.00    +0.122 C 
BRANCH  19  21
ATOM     20  N   UNL     1      32.787 -13.336 -21.885  0.00  0.00    -0.284 N 
ATOM     21  C   UNL     1      34.120 -14.104 -23.468  0.00  0.00    +0.014 C 
ATOM     22  C   UNL     1      33.816 -12.757 -23.778  0.00  0.00    +0.013 C 
ATOM     23  C   UNL     1      32.974 -12.294 -22.765  0.00  0.00    +0.051 C 
ATOM     24  C   UNL     1      33.479 -14.439 -22.306  0.00  0.00    +0.063 C 
ATOM     25  C   UNL     1      34.171 -11.877 -24.819  0.00  0.00    +0.001 C 
ATOM     26  C   UNL     1      32.468 -10.989 -22.741  0.00  0.00    +0.015 C 
ATOM     27  C   UNL     1      31.978 -13.288 -20.685  0.00  0.00    +0.117 C 
ATOM     28  C   UNL     1      33.672 -10.570 -24.809  0.00  0.00    +0.000 C 
ATOM     29  C   UNL     1      32.834 -10.135 -23.786  0.00  0.00    +0.001 C 
ENDBRANCH  19  21
ENDBRANCH   2  19
TORSDOF 4
ENDMDL
MODEL 6
REMARK VINA RESULT:     -10.7      2.332      9.370
REMARK  Name = 5288607
REMARK  4 active torsions:
REMARK  status: ('A' for Active; 'I' for Inactive)
REMARK    1  A    between atoms: N_2  and  C_19
REMARK    2  A    between atoms: C_3  and  C_6
REMARK    3  A    between atoms: C_5  and  C_16
REMARK    4  A    between atoms: C_19  and  C_21
REMARK                            x       y       z     vdW  Elec       q    Type
REMARK                         _______ _______ _______ _____ _____    ______ ____
ROOT
ATOM      1  O   UNL     1      34.497 -17.106 -25.566  0.00  0.00    -0.270 OA
ATOM      2  N   UNL     1      35.101 -17.839 -23.444  0.00  0.00    -0.270 N 
ATOM      3  C   UNL     1      34.714 -16.873 -24.376  0.00  0.00    +0.249 C 
ATOM      4  C   UNL     1      35.270 -19.221 -23.876  0.00  0.00    +0.116 C 
ENDROOT
BRANCH   3   6
ATOM      5  C   UNL     1      33.480 -14.749 -24.113  0.00  0.00    +0.006 C 
ATOM      6  C   UNL     1      34.594 -15.476 -23.861  0.00  0.00    +0.058 C 
BRANCH   5  16
ATOM      7  O   UNL     1      31.820  -7.806 -21.221  0.00  0.00    -0.275 OA
ATOM      8  N   UNL     1      32.697  -9.410 -22.610  0.00  0.00    -0.270 N 
ATOM      9  N   UNL     1      33.695 -11.023 -24.023  0.00  0.00    -0.229 NA
ATOM     10  C   UNL     1      31.270 -11.379 -21.154  0.00  0.00    +0.039 C 
ATOM     11  C   UNL     1      32.235 -11.751 -22.239  0.00  0.00    +0.010 C 
ATOM     12  C   UNL     1      31.689 -10.082 -20.480  0.00  0.00    +0.090 C 
ATOM     13  C   UNL     1      32.893 -10.758 -22.965  0.00  0.00    +0.130 C 
ATOM     14  C   UNL     1      32.425 -13.079 -22.624  0.00  0.00    +0.000 C 
ATOM     15  C   UNL     1      32.036  -8.991 -21.472  0.00  0.00    +0.227 C 
ATOM     16  C   UNL     1      33.260 -13.377 -23.694  0.00  0.00    +0.019 C 
ATOM     17  C   UNL     1      33.863 -12.322 -24.356  0.00  0.00    +0.100 C 
ATOM     18  H   UNL     1      33.056  -8.720 -23.213  0.00  0.00    +0.156 HD
ENDBRANCH   5  16
ENDBRANCH   3   6
BRANCH   2  19
ATOM     19  C   UNL     1      35.397 -17.580 -22.037  0.00  0.00    +0.122 C 
BRANCH  19  21
ATOM     20  N   UNL     1      36.582 -20.582 -20.332  0.00  0.00    -0.284 N 
ATOM     21  C   UNL     1      35.603 -18.870 -21.322  0.00  0.00    +0.014 C 
ATOM     22  C   UNL     1      34.588 -19.761 -20.900  0.00  0.00    +0.013 C 
ATOM     23  C   UNL     1      35.230 -20.833 -20.278  0.00  0.00    +0.051 C 
ATOM     24  C   UNL     1      36.817 -19.392 -20.965  0.00  0.00    +0.063 C 
ATOM     25  C   UNL     1      33.181 -19.768 -20.981  0.00  0.00    +0.001 C 
ATOM     26  C   UNL     1      34.533 -21.917 -19.730  0.00  0.00    +0.015 C 
ATOM     27  C   UNL     1      37.619 -21.442 -19.800  0.00  0.00    +0.117 C 
ATOM     28  C   UNL     1      32.471 -20.845 -20.439  0.00  0.00    +0.000 C 
ATOM     29  C   UNL     1      33.138 -21.901 -19.824  0.00  0.00    +0.001 C 
ENDBRANCH  19  21
ENDBRANCH   2  19
TORSDOF 4
ENDMDL
MODEL 7
REMARK VINA RESULT:     -10.6      4.183      7.404
REMARK  Name = 5288607
REMARK  4 active torsions:
REMARK  status: ('A' for Active; 'I' for Inactive)
REMARK    1  A    between atoms: N_2  and  C_19
REMARK    2  A    between atoms: C_3  and  C_6
REMARK    3  A    between atoms: C_5  and  C_16
REMARK    4  A    between atoms: C_19  and  C_21
REMARK                            x       y       z     vdW  Elec       q    Type
REMARK                         _______ _______ _______ _____ _____    ______ ____
ROOT
ATOM      1  O   UNL     1      32.331 -21.968 -18.991  0.00  0.00    -0.270 OA
ATOM      2  N   UNL     1      33.744 -20.805 -20.424  0.00  0.00    -0.270 N 
ATOM      3  C   UNL     1      33.466 -21.696 -19.385  0.00  0.00    +0.249 C 
ATOM      4  C   UNL     1      32.643 -20.136 -21.105  0.00  0.00    +0.116 C 
ENDROOT
BRANCH   3   6
ATOM      5  C   UNL     1      34.611 -22.611 -17.396  0.00  0.00    +0.006 C 
ATOM      6  C   UNL     1      34.650 -22.316 -18.717  0.00  0.00    +0.058 C 
BRANCH   5  16
ATOM      7  O   UNL     1      39.873 -26.355 -13.198  0.00  0.00    -0.275 OA
ATOM      8  N   UNL     1      38.899 -24.704 -14.462  0.00  0.00    -0.270 N 
ATOM      9  N   UNL     1      37.975 -23.008 -15.828  0.00  0.00    -0.229 NA
ATOM     10  C   UNL     1      36.479 -26.180 -14.435  0.00  0.00    +0.039 C 
ATOM     11  C   UNL     1      36.625 -24.926 -15.243  0.00  0.00    +0.010 C 
ATOM     12  C   UNL     1      37.815 -26.896 -14.302  0.00  0.00    +0.090 C 
ATOM     13  C   UNL     1      37.815 -24.200 -15.205  0.00  0.00    +0.130 C 
ATOM     14  C   UNL     1      35.556 -24.395 -15.967  0.00  0.00    +0.000 C 
ATOM     15  C   UNL     1      38.941 -25.965 -13.902  0.00  0.00    +0.227 C 
ATOM     16  C   UNL     1      35.704 -23.184 -16.632  0.00  0.00    +0.019 C 
ATOM     17  C   UNL     1      36.922 -22.534 -16.529  0.00  0.00    +0.100 C 
ATOM     18  H   UNL     1      39.679 -24.117 -14.333  0.00  0.00    +0.156 HD
ENDBRANCH   5  16
ENDBRANCH   3   6
BRANCH   2  19
ATOM     19  C   UNL     1      35.082 -20.442 -20.885  0.00  0.00    +0.122 C 
BRANCH  19  21
ATOM     20  N   UNL     1      35.094 -16.938 -21.911  0.00  0.00    -0.284 N 
ATOM     21  C   UNL     1      35.037 -19.117 -21.565  0.00  0.00    +0.014 C 
ATOM     22  C   UNL     1      34.805 -18.895 -22.943  0.00  0.00    +0.013 C 
ATOM     23  C   UNL     1      34.847 -17.513 -23.138  0.00  0.00    +0.051 C 
ATOM     24  C   UNL     1      35.210 -17.906 -20.951  0.00  0.00    +0.063 C 
ATOM     25  C   UNL     1      34.565 -19.729 -24.053  0.00  0.00    +0.001 C 
ATOM     26  C   UNL     1      34.660 -16.920 -24.392  0.00  0.00    +0.015 C 
ATOM     27  C   UNL     1      35.217 -15.518 -21.659  0.00  0.00    +0.117 C 
ATOM     28  C   UNL     1      34.375 -19.151 -25.313  0.00  0.00    +0.000 C 
ATOM     29  C   UNL     1      34.422 -17.769 -25.478  0.00  0.00    +0.001 C 
ENDBRANCH  19  21
ENDBRANCH   2  19
TORSDOF 4
ENDMDL
MODEL 8
REMARK VINA RESULT:     -10.6      1.527      2.362
REMARK  Name = 5288607
REMARK  4 active torsions:
REMARK  status: ('A' for Active; 'I' for Inactive)
REMARK    1  A    between atoms: N_2  and  C_19
REMARK    2  A    between atoms: C_3  and  C_6
REMARK    3  A    between atoms: C_5  and  C_16
REMARK    4  A    between atoms: C_19  and  C_21
REMARK                            x       y       z     vdW  Elec       q    Type
REMARK                         _______ _______ _______ _____ _____    ______ ____
ROOT
ATOM      1  O   UNL     1      34.267 -19.086 -24.805  0.00  0.00    -0.270 OA
ATOM      2  N   UNL     1      34.571 -16.926 -24.001  0.00  0.00    -0.270 N 
ATOM      3  C   UNL     1      34.582 -18.320 -23.894  0.00  0.00    +0.249 C 
ATOM      4  C   UNL     1      34.164 -16.310 -25.258  0.00  0.00    +0.116 C 
ENDROOT
BRANCH   3   6
ATOM      5  C   UNL     1      34.578 -20.110 -22.193  0.00  0.00    +0.006 C 
ATOM      6  C   UNL     1      34.981 -18.872 -22.565  0.00  0.00    +0.058 C 
BRANCH   5  16
ATOM      7  O   UNL     1      35.294 -23.720 -15.426  0.00  0.00    -0.275 OA
ATOM      8  N   UNL     1      35.850 -22.488 -17.282  0.00  0.00    -0.270 N 
ATOM      9  N   UNL     1      36.497 -21.285 -19.214  0.00  0.00    -0.229 NA
ATOM     10  C   UNL     1      33.133 -22.573 -18.089  0.00  0.00    +0.039 C 
ATOM     11  C   UNL     1      34.193 -21.971 -18.961  0.00  0.00    +0.010 C 
ATOM     12  C   UNL     1      33.711 -23.684 -17.226  0.00  0.00    +0.090 C 
ATOM     13  C   UNL     1      35.514 -21.908 -18.521  0.00  0.00    +0.130 C 
ATOM     14  C   UNL     1      33.879 -21.367 -20.180  0.00  0.00    +0.000 C 
ATOM     15  C   UNL     1      35.000 -23.281 -16.538  0.00  0.00    +0.227 C 
ATOM     16  C   UNL     1      34.875 -20.742 -20.919  0.00  0.00    +0.019 C 
ATOM     17  C   UNL     1      36.156 -20.725 -20.395  0.00  0.00    +0.100 C 
ATOM     18  H   UNL     1      36.750 -22.316 -16.924  0.00  0.00    +0.156 HD
ENDBRANCH   5  16
ENDBRANCH   3   6
BRANCH   2  19
ATOM     19  C   UNL     1      34.907 -15.998 -22.925  0.00  0.00    +0.122 C 
BRANCH  19  21
ATOM     20  N   UNL     1      33.751 -12.781 -24.208  0.00  0.00    -0.284 N 
ATOM     21  C   UNL     1      34.295 -14.668 -23.200  0.00  0.00    +0.014 C 
ATOM     22  C   UNL     1      33.437 -13.949 -22.334  0.00  0.00    +0.013 C 
ATOM     23  C   UNL     1      33.107 -12.763 -22.992  0.00  0.00    +0.051 C 
ATOM     24  C   UNL     1      34.476 -13.935 -24.341  0.00  0.00    +0.063 C 
ATOM     25  C   UNL     1      32.901 -14.186 -21.052  0.00  0.00    +0.001 C 
ATOM     26  C   UNL     1      32.264 -11.797 -22.430  0.00  0.00    +0.015 C 
ATOM     27  C   UNL     1      33.683 -11.739 -25.211  0.00  0.00    +0.117 C 
ATOM     28  C   UNL     1      32.059 -13.229 -20.477  0.00  0.00    +0.000 C 
ATOM     29  C   UNL     1      31.746 -12.053 -21.156  0.00  0.00    +0.001 C 
ENDBRANCH  19  21
ENDBRANCH   2  19
TORSDOF 4
ENDMDL
MODEL 9
REMARK VINA RESULT:     -10.6      6.002     12.388
REMARK  Name = 5288607
REMARK  4 active torsions:
REMARK  status: ('A' for Active; 'I' for Inactive)
REMARK    1  A    between atoms: N_2  and  C_19
REMARK    2  A    between atoms: C_3  and  C_6
REMARK    3  A    between atoms: C_5  and  C_16
REMARK    4  A    between atoms: C_19  and  C_21
REMARK                            x       y       z     vdW  Elec       q    Type
REMARK                         _______ _______ _______ _____ _____    ______ ____
ROOT
ATOM      1  O   UNL     1      32.680  -7.769 -19.415  0.00  0.00    -0.270 OA
ATOM      2  N   UNL     1      31.681  -9.605 -20.430  0.00  0.00    -0.270 N 
ATOM      3  C   UNL     1      32.144  -8.287 -20.395  0.00  0.00    +0.249 C 
ATOM      4  C   UNL     1      31.826 -10.445 -19.248  0.00  0.00    +0.116 C 
ENDROOT
BRANCH   3   6
ATOM      5  C   UNL     1      32.778  -6.475 -21.949  0.00  0.00    +0.006 C 
ATOM      6  C   UNL     1      31.930  -7.483 -21.635  0.00  0.00    +0.058 C 
BRANCH   5  16
ATOM      7  O   UNL     1      32.817  -2.336 -28.445  0.00  0.00    -0.275 OA
ATOM      8  N   UNL     1      32.220  -3.049 -26.346  0.00  0.00    -0.270 N 
ATOM      9  N   UNL     1      31.510  -3.794 -24.215  0.00  0.00    -0.229 NA
ATOM     10  C   UNL     1      34.382  -4.881 -26.408  0.00  0.00    +0.039 C 
ATOM     11  C   UNL     1      33.398  -4.867 -25.278  0.00  0.00    +0.010 C 
ATOM     12  C   UNL     1      33.725  -4.427 -27.702  0.00  0.00    +0.090 C 
ATOM     13  C   UNL     1      32.368  -3.927 -25.255  0.00  0.00    +0.130 C 
ATOM     14  C   UNL     1      33.540  -5.711 -24.175  0.00  0.00    +0.000 C 
ATOM     15  C   UNL     1      32.914  -3.159 -27.534  0.00  0.00    +0.227 C 
ATOM     16  C   UNL     1      32.658  -5.607 -23.106  0.00  0.00    +0.019 C 
ATOM     17  C   UNL     1      31.671  -4.639 -23.173  0.00  0.00    +0.100 C 
ATOM     18  H   UNL     1      31.580  -2.307 -26.254  0.00  0.00    +0.156 HD
ENDBRANCH   5  16
ENDBRANCH   3   6
BRANCH   2  19
ATOM     19  C   UNL     1      31.013 -10.231 -21.569  0.00  0.00    +0.122 C 
BRANCH  19  21
ATOM     20  N   UNL     1      33.074 -12.871 -23.021  0.00  0.00    -0.284 N 
ATOM     21  C   UNL     1      31.978 -11.095 -22.305  0.00  0.00    +0.014 C 
ATOM     22  C   UNL     1      32.951 -10.654 -23.233  0.00  0.00    +0.013 C 
ATOM     23  C   UNL     1      33.630 -11.793 -23.672  0.00  0.00    +0.051 C 
ATOM     24  C   UNL     1      32.071 -12.455 -22.188  0.00  0.00    +0.063 C 
ATOM     25  C   UNL     1      33.327  -9.399 -23.752  0.00  0.00    +0.001 C 
ATOM     26  C   UNL     1      34.670 -11.740 -24.607  0.00  0.00    +0.015 C 
ATOM     27  C   UNL     1      33.481 -14.251 -23.183  0.00  0.00    +0.117 C 
ATOM     28  C   UNL     1      34.366  -9.330 -24.686  0.00  0.00    +0.000 C 
ATOM     29  C   UNL     1      35.026 -10.483 -25.106  0.00  0.00    +0.001 C 
ENDBRANCH  19  21
ENDBRANCH   2  19
TORSDOF 4
ENDMDL
