MODEL 1
REMARK VINA RESULT:     -11.8      0.000      0.000
REMARK  Name = 11560787
REMARK  5 active torsions:
REMARK  status: ('A' for Active; 'I' for Inactive)
REMARK    1  A    between atoms: N_2  and  C_23
REMARK    2  A    between atoms: C_8  and  C_9
REMARK    3  A    between atoms: C_12  and  N_15
REMARK    4  A    between atoms: C_13  and  O_21
REMARK    5  A    between atoms: C_23  and  C_26
REMARK                            x       y       z     vdW  Elec       q    Type
REMARK                         _______ _______ _______ _____ _____    ______ ____
ROOT
ATOM      1  O   UNL     1      35.010 -16.726 -24.311  0.00  0.00    -0.270 OA
ATOM      2  N   UNL     1      35.262 -17.255 -22.067  0.00  0.00    -0.274 N 
ATOM      3  C   UNL     1      35.049 -16.923 -20.659  0.00  0.00    +0.094 C 
ATOM      4  C   UNL     1      35.109 -15.430 -20.399  0.00  0.00    +0.026 C 
ATOM      5  C   UNL     1      34.110 -14.732 -21.303  0.00  0.00    +0.033 C 
ATOM      6  C   UNL     1      34.383 -15.060 -22.739  0.00  0.00    +0.031 C 
ATOM      7  C   UNL     1      34.906 -16.414 -23.123  0.00  0.00    +0.245 C 
ATOM      8  C   UNL     1      34.202 -14.156 -23.714  0.00  0.00    +0.000 C 
ENDROOT
BRANCH   8   9
ATOM      9  C   UNL     1      33.700 -12.786 -23.530  0.00  0.00    +0.003 C 
ATOM     10  C   UNL     1      32.670 -12.552 -22.631  0.00  0.00    +0.038 C 
ATOM     11  C   UNL     1      34.266 -11.749 -24.258  0.00  0.00    +0.001 C 
ATOM     12  C   UNL     1      32.755 -10.202 -23.181  0.00  0.00    +0.084 C 
ATOM     13  C   UNL     1      32.195 -11.252 -22.455  0.00  0.00    +0.152 C 
ATOM     14  C   UNL     1      33.791 -10.450 -24.083  0.00  0.00    +0.018 C 
BRANCH  12  15
ATOM     15  N   UNL     1      32.295  -8.906 -23.020  0.00  0.00    -0.280 N 
ATOM     16  N   UNL     1      31.076  -7.068 -23.335  0.00  0.00    -0.255 NA
ATOM     17  C   UNL     1      32.771  -7.975 -22.135  0.00  0.00    +0.134 C 
ATOM     18  C   UNL     1      31.276  -8.310 -23.718  0.00  0.00    +0.220 C 
ATOM     19  C   UNL     1      32.004  -6.854 -22.348  0.00  0.00    +0.054 C 
ATOM     20  C   UNL     1      32.086  -5.552 -21.667  0.00  0.00    +0.049 C 
ENDBRANCH  12  15
BRANCH  13  21
ATOM     21  O   UNL     1      31.183 -11.035 -21.569  0.00  0.00    -0.470 OA
ATOM     22  C   UNL     1      31.545 -10.881 -20.199  0.00  0.00    +0.253 C 
ENDBRANCH  13  21
ENDBRANCH   8   9
BRANCH   2  23
ATOM     23  C   UNL     1      35.727 -18.608 -22.341  0.00  0.00    +0.098 C 
ATOM     24  C   UNL     1      37.250 -18.664 -22.191  0.00  0.00    +0.026 C 
BRANCH  23  26
ATOM     25  F   UNL     1      33.165 -22.377 -19.051  0.00  0.00    -0.204 F 
ATOM     26  C   UNL     1      35.036 -19.625 -21.454  0.00  0.00    -0.004 C 
ATOM     27  C   UNL     1      33.655 -19.699 -21.465  0.00  0.00    -0.000 C 
ATOM     28  C   UNL     1      35.804 -20.453 -20.656  0.00  0.00    -0.000 C 
ATOM     29  C   UNL     1      33.019 -20.634 -20.648  0.00  0.00    +0.029 C 
ATOM     30  C   UNL     1      35.168 -21.389 -19.839  0.00  0.00    +0.029 C 
ATOM     31  C   UNL     1      33.776 -21.479 -19.836  0.00  0.00    +0.140 C 
ENDBRANCH  23  26
ENDBRANCH   2  23
TORSDOF 5
ENDMDL
MODEL 2
REMARK VINA RESULT:     -11.2      0.962      1.910
REMARK  Name = 11560787
REMARK  5 active torsions:
REMARK  status: ('A' for Active; 'I' for Inactive)
REMARK    1  A    between atoms: N_2  and  C_23
REMARK    2  A    between atoms: C_8  and  C_9
REMARK    3  A    between atoms: C_12  and  N_15
REMARK    4  A    between atoms: C_13  and  O_21
REMARK    5  A    between atoms: C_23  and  C_26
REMARK                            x       y       z     vdW  Elec       q    Type
REMARK                         _______ _______ _______ _____ _____    ______ ____
ROOT
ATOM      1  O   UNL     1      34.848 -16.938 -24.194  0.00  0.00    -0.270 OA
ATOM      2  N   UNL     1      35.261 -17.446 -21.969  0.00  0.00    -0.274 N 
ATOM      3  C   UNL     1      35.149 -17.101 -20.552  0.00  0.00    +0.094 C 
ATOM      4  C   UNL     1      35.227 -15.606 -20.311  0.00  0.00    +0.026 C 
ATOM      5  C   UNL     1      34.166 -14.915 -21.148  0.00  0.00    +0.033 C 
ATOM      6  C   UNL     1      34.335 -15.257 -22.597  0.00  0.00    +0.031 C 
ATOM      7  C   UNL     1      34.830 -16.615 -23.005  0.00  0.00    +0.245 C 
ATOM      8  C   UNL     1      34.084 -14.363 -23.566  0.00  0.00    +0.000 C 
ENDROOT
BRANCH   8   9
ATOM      9  C   UNL     1      33.596 -12.991 -23.358  0.00  0.00    +0.003 C 
ATOM     10  C   UNL     1      34.220 -11.940 -24.014  0.00  0.00    +0.038 C 
ATOM     11  C   UNL     1      32.519 -12.771 -22.512  0.00  0.00    +0.001 C 
ATOM     12  C   UNL     1      32.675 -10.404 -22.969  0.00  0.00    +0.084 C 
ATOM     13  C   UNL     1      33.756 -10.638 -23.818  0.00  0.00    +0.152 C 
ATOM     14  C   UNL     1      32.056 -11.471 -22.315  0.00  0.00    +0.018 C 
BRANCH  12  15
ATOM     15  N   UNL     1      32.203  -9.119 -22.762  0.00  0.00    -0.280 N 
ATOM     16  N   UNL     1      31.088  -7.222 -23.108  0.00  0.00    -0.255 NA
ATOM     17  C   UNL     1      32.500  -8.302 -21.702  0.00  0.00    +0.134 C 
ATOM     18  C   UNL     1      31.350  -8.422 -23.578  0.00  0.00    +0.220 C 
ATOM     19  C   UNL     1      31.802  -7.142 -21.939  0.00  0.00    +0.054 C 
ATOM     20  C   UNL     1      31.757  -5.923 -21.117  0.00  0.00    +0.049 C 
ENDBRANCH  12  15
BRANCH  13  21
ATOM     21  O   UNL     1      34.376  -9.613 -24.467  0.00  0.00    -0.470 OA
ATOM     22  C   UNL     1      35.355  -9.964 -25.443  0.00  0.00    +0.253 C 
ENDBRANCH  13  21
ENDBRANCH   8   9
BRANCH   2  23
ATOM     23  C   UNL     1      35.706 -18.802 -22.263  0.00  0.00    +0.098 C 
ATOM     24  C   UNL     1      37.233 -18.867 -22.179  0.00  0.00    +0.026 C 
BRANCH  23  26
ATOM     25  F   UNL     1      33.268 -22.556 -18.863  0.00  0.00    -0.204 F 
ATOM     26  C   UNL     1      35.048 -19.815 -21.346  0.00  0.00    -0.004 C 
ATOM     27  C   UNL     1      35.844 -20.623 -20.555  0.00  0.00    -0.000 C 
ATOM     28  C   UNL     1      33.668 -19.906 -21.323  0.00  0.00    -0.000 C 
ATOM     29  C   UNL     1      35.239 -21.554 -19.711  0.00  0.00    +0.029 C 
ATOM     30  C   UNL     1      33.063 -20.837 -20.479  0.00  0.00    +0.029 C 
ATOM     31  C   UNL     1      33.849 -21.661 -19.674  0.00  0.00    +0.140 C 
ENDBRANCH  23  26
ENDBRANCH   2  23
TORSDOF 5
ENDMDL
MODEL 3
REMARK VINA RESULT:      -9.9      5.619     12.268
REMARK  Name = 11560787
REMARK  5 active torsions:
REMARK  status: ('A' for Active; 'I' for Inactive)
REMARK    1  A    between atoms: N_2  and  C_23
REMARK    2  A    between atoms: C_8  and  C_9
REMARK    3  A    between atoms: C_12  and  N_15
REMARK    4  A    between atoms: C_13  and  O_21
REMARK    5  A    between atoms: C_23  and  C_26
REMARK                            x       y       z     vdW  Elec       q    Type
REMARK                         _______ _______ _______ _____ _____    ______ ____
ROOT
ATOM      1  O   UNL     1      37.364 -19.885 -20.996  0.00  0.00    -0.270 OA
ATOM      2  N   UNL     1      35.127 -19.900 -21.608  0.00  0.00    -0.274 N 
ATOM      3  C   UNL     1      33.730 -20.186 -21.284  0.00  0.00    +0.094 C 
ATOM      4  C   UNL     1      33.578 -21.399 -20.388  0.00  0.00    +0.026 C 
ATOM      5  C   UNL     1      34.420 -21.200 -19.141  0.00  0.00    +0.033 C 
ATOM      6  C   UNL     1      35.851 -20.953 -19.509  0.00  0.00    +0.031 C 
ATOM      7  C   UNL     1      36.196 -20.198 -20.760  0.00  0.00    +0.245 C 
ATOM      8  C   UNL     1      36.862 -21.418 -18.757  0.00  0.00    +0.000 C 
ENDROOT
BRANCH   8   9
ATOM      9  C   UNL     1      36.719 -22.175 -17.505  0.00  0.00    +0.003 C 
ATOM     10  C   UNL     1      35.494 -22.740 -17.185  0.00  0.00    +0.038 C 
ATOM     11  C   UNL     1      37.814 -22.313 -16.664  0.00  0.00    +0.001 C 
ATOM     12  C   UNL     1      36.452 -23.604 -15.143  0.00  0.00    +0.084 C 
ATOM     13  C   UNL     1      35.359 -23.459 -15.997  0.00  0.00    +0.152 C 
ATOM     14  C   UNL     1      37.680 -23.031 -15.476  0.00  0.00    +0.018 C 
BRANCH  12  15
ATOM     15  N   UNL     1      36.335 -24.313 -13.959  0.00  0.00    -0.280 N 
ATOM     16  N   UNL     1      36.428 -26.016 -12.526  0.00  0.00    -0.255 NA
ATOM     17  C   UNL     1      35.884 -23.828 -12.760  0.00  0.00    +0.134 C 
ATOM     18  C   UNL     1      36.650 -25.633 -13.764  0.00  0.00    +0.220 C 
ATOM     19  C   UNL     1      35.951 -24.895 -11.895  0.00  0.00    +0.054 C 
ATOM     20  C   UNL     1      35.585 -24.937 -10.471  0.00  0.00    +0.049 C 
ENDBRANCH  12  15
BRANCH  13  21
ATOM     21  O   UNL     1      34.150 -24.009 -15.693  0.00  0.00    -0.470 OA
ATOM     22  C   UNL     1      33.025 -23.551 -16.440  0.00  0.00    +0.253 C 
ENDBRANCH  13  21
ENDBRANCH   8   9
BRANCH   2  23
ATOM     23  C   UNL     1      35.356 -19.122 -22.819  0.00  0.00    +0.098 C 
ATOM     24  C   UNL     1      34.481 -19.670 -23.950  0.00  0.00    +0.026 C 
BRANCH  23  26
ATOM     25  F   UNL     1      34.455 -13.642 -21.953  0.00  0.00    -0.204 F 
ATOM     26  C   UNL     1      35.113 -17.644 -22.586  0.00  0.00    -0.004 C 
ATOM     27  C   UNL     1      34.836 -16.829 -23.668  0.00  0.00    -0.000 C 
ATOM     28  C   UNL     1      35.174 -17.148 -21.296  0.00  0.00    -0.000 C 
ATOM     29  C   UNL     1      34.612 -15.469 -23.453  0.00  0.00    +0.029 C 
ATOM     30  C   UNL     1      34.950 -15.788 -21.082  0.00  0.00    +0.029 C 
ATOM     31  C   UNL     1      34.669 -14.949 -22.159  0.00  0.00    +0.140 C 
ENDBRANCH  23  26
ENDBRANCH   2  23
TORSDOF 5
ENDMDL
MODEL 4
REMARK VINA RESULT:      -9.4      4.545      7.447
REMARK  Name = 11560787
REMARK  5 active torsions:
REMARK  status: ('A' for Active; 'I' for Inactive)
REMARK    1  A    between atoms: N_2  and  C_23
REMARK    2  A    between atoms: C_8  and  C_9
REMARK    3  A    between atoms: C_12  and  N_15
REMARK    4  A    between atoms: C_13  and  O_21
REMARK    5  A    between atoms: C_23  and  C_26
REMARK                            x       y       z     vdW  Elec       q    Type
REMARK                         _______ _______ _______ _____ _____    ______ ____
ROOT
ATOM      1  O   UNL     1      36.793 -21.807 -18.480  0.00  0.00    -0.270 OA
ATOM      2  N   UNL     1      34.696 -22.679 -18.008  0.00  0.00    -0.274 N 
ATOM      3  C   UNL     1      33.284 -22.831 -18.355  0.00  0.00    +0.094 C 
ATOM      4  C   UNL     1      32.711 -21.591 -19.014  0.00  0.00    +0.026 C 
ATOM      5  C   UNL     1      33.557 -21.241 -20.224  0.00  0.00    +0.033 C 
ATOM      6  C   UNL     1      34.989 -21.051 -19.826  0.00  0.00    +0.031 C 
ATOM      7  C   UNL     1      35.587 -21.873 -18.721  0.00  0.00    +0.245 C 
ATOM      8  C   UNL     1      35.767 -20.130 -20.416  0.00  0.00    +0.000 C 
ENDROOT
BRANCH   8   9
ATOM      9  C   UNL     1      35.358 -19.236 -21.510  0.00  0.00    +0.003 C 
ATOM     10  C   UNL     1      35.509 -17.866 -21.363  0.00  0.00    +0.038 C 
ATOM     11  C   UNL     1      34.829 -19.780 -22.672  0.00  0.00    +0.001 C 
ATOM     12  C   UNL     1      34.587 -17.552 -23.574  0.00  0.00    +0.084 C 
ATOM     13  C   UNL     1      35.121 -17.019 -22.402  0.00  0.00    +0.152 C 
ATOM     14  C   UNL     1      34.441 -18.933 -23.709  0.00  0.00    +0.018 C 
BRANCH  12  15
ATOM     15  N   UNL     1      34.196 -16.726 -24.614  0.00  0.00    -0.280 N 
ATOM     16  N   UNL     1      33.661 -16.073 -26.676  0.00  0.00    -0.255 NA
ATOM     17  C   UNL     1      33.888 -15.394 -24.525  0.00  0.00    +0.134 C 
ATOM     18  C   UNL     1      34.044 -17.085 -25.928  0.00  0.00    +0.220 C 
ATOM     19  C   UNL     1      33.562 -15.016 -25.806  0.00  0.00    +0.054 C 
ATOM     20  C   UNL     1      33.150 -13.688 -26.287  0.00  0.00    +0.049 C 
ENDBRANCH  12  15
BRANCH  13  21
ATOM     21  O   UNL     1      35.274 -15.673 -22.246  0.00  0.00    -0.470 OA
ATOM     22  C   UNL     1      34.741 -15.094 -21.058  0.00  0.00    +0.253 C 
ENDBRANCH  13  21
ENDBRANCH   8   9
BRANCH   2  23
ATOM     23  C   UNL     1      35.194 -23.554 -16.954  0.00  0.00    +0.098 C 
ATOM     24  C   UNL     1      36.466 -22.953 -16.351  0.00  0.00    +0.026 C 
BRANCH  23  26
ATOM     25  F   UNL     1      31.275 -24.503 -13.039  0.00  0.00    -0.204 F 
ATOM     26  C   UNL     1      34.136 -23.810 -15.898  0.00  0.00    -0.004 C 
ATOM     27  C   UNL     1      34.528 -24.249 -14.647  0.00  0.00    -0.000 C 
ATOM     28  C   UNL     1      32.807 -23.599 -16.212  0.00  0.00    -0.000 C 
ATOM     29  C   UNL     1      33.556 -24.484 -13.675  0.00  0.00    +0.029 C 
ATOM     30  C   UNL     1      31.834 -23.834 -15.240  0.00  0.00    +0.029 C 
ATOM     31  C   UNL     1      32.209 -24.276 -13.972  0.00  0.00    +0.140 C 
ENDBRANCH  23  26
ENDBRANCH   2  23
TORSDOF 5
ENDMDL
MODEL 5
REMARK VINA RESULT:      -9.4      1.368      1.941
REMARK  Name = 11560787
REMARK  5 active torsions:
REMARK  status: ('A' for Active; 'I' for Inactive)
REMARK    1  A    between atoms: N_2  and  C_23
REMARK    2  A    between atoms: C_8  and  C_9
REMARK    3  A    between atoms: C_12  and  N_15
REMARK    4  A    between atoms: C_13  and  O_21
REMARK    5  A    between atoms: C_23  and  C_26
REMARK                            x       y       z     vdW  Elec       q    Type
REMARK                         _______ _______ _______ _____ _____    ______ ____
ROOT
ATOM      1  O   UNL     1      33.837 -15.749 -24.910  0.00  0.00    -0.270 OA
ATOM      2  N   UNL     1      34.547 -16.522 -22.842  0.00  0.00    -0.274 N 
ATOM      3  C   UNL     1      34.731 -16.306 -21.408  0.00  0.00    +0.094 C 
ATOM      4  C   UNL     1      35.065 -14.865 -21.076  0.00  0.00    +0.026 C 
ATOM      5  C   UNL     1      33.988 -13.964 -21.650  0.00  0.00    +0.033 C 
ATOM      6  C   UNL     1      33.855 -14.181 -23.127  0.00  0.00    +0.031 C 
ATOM      7  C   UNL     1      34.070 -15.545 -23.718  0.00  0.00    +0.245 C 
ATOM      8  C   UNL     1      33.573 -13.171 -23.965  0.00  0.00    +0.000 C 
ENDROOT
BRANCH   8   9
ATOM      9  C   UNL     1      33.332 -11.774 -23.571  0.00  0.00    +0.003 C 
ATOM     10  C   UNL     1      32.330 -11.487 -22.657  0.00  0.00    +0.038 C 
ATOM     11  C   UNL     1      34.113 -10.767 -24.121  0.00  0.00    +0.001 C 
ATOM     12  C   UNL     1      32.880  -9.140 -22.829  0.00  0.00    +0.084 C 
ATOM     13  C   UNL     1      32.103 -10.162 -22.284  0.00  0.00    +0.152 C 
ATOM     14  C   UNL     1      33.885  -9.443 -23.748  0.00  0.00    +0.018 C 
BRANCH  12  15
ATOM     15  N   UNL     1      32.667  -7.821 -22.471  0.00  0.00    -0.280 N 
ATOM     16  N   UNL     1      32.590  -5.983 -21.213  0.00  0.00    -0.255 NA
ATOM     17  C   UNL     1      32.190  -6.823 -23.280  0.00  0.00    +0.134 C 
ATOM     18  C   UNL     1      32.891  -7.263 -21.239  0.00  0.00    +0.220 C 
ATOM     19  C   UNL     1      32.153  -5.703 -22.483  0.00  0.00    +0.054 C 
ATOM     20  C   UNL     1      31.721  -4.343 -22.843  0.00  0.00    +0.049 C 
ENDBRANCH  12  15
BRANCH  13  21
ATOM     21  O   UNL     1      31.115  -9.891 -21.384  0.00  0.00    -0.470 OA
ATOM     22  C   UNL     1      31.283 -10.407 -20.065  0.00  0.00    +0.253 C 
ENDBRANCH  13  21
ENDBRANCH   8   9
BRANCH   2  23
ATOM     23  C   UNL     1      34.733 -17.889 -23.311  0.00  0.00    +0.098 C 
ATOM     24  C   UNL     1      35.605 -17.882 -24.570  0.00  0.00    +0.026 C 
BRANCH  23  26
ATOM     25  F   UNL     1      36.896 -21.174 -19.296  0.00  0.00    -0.204 F 
ATOM     26  C   UNL     1      35.316 -18.776 -22.228  0.00  0.00    -0.004 C 
ATOM     27  C   UNL     1      36.650 -18.634 -21.889  0.00  0.00    -0.000 C 
ATOM     28  C   UNL     1      34.501 -19.703 -21.606  0.00  0.00    -0.000 C 
ATOM     29  C   UNL     1      37.186 -19.449 -20.892  0.00  0.00    +0.029 C 
ATOM     30  C   UNL     1      35.038 -20.518 -20.609  0.00  0.00    +0.029 C 
ATOM     31  C   UNL     1      36.380 -20.391 -20.253  0.00  0.00    +0.140 C 
ENDBRANCH  23  26
ENDBRANCH   2  23
TORSDOF 5
ENDMDL
MODEL 6
REMARK VINA RESULT:      -9.3      3.438     10.401
REMARK  Name = 11560787
REMARK  5 active torsions:
REMARK  status: ('A' for Active; 'I' for Inactive)
REMARK    1  A    between atoms: N_2  and  C_23
REMARK    2  A    between atoms: C_8  and  C_9
REMARK    3  A    between atoms: C_12  and  N_15
REMARK    4  A    between atoms: C_13  and  O_21
REMARK    5  A    between atoms: C_23  and  C_26
REMARK                            x       y       z     vdW  Elec       q    Type
REMARK                         _______ _______ _______ _____ _____    ______ ____
ROOT
ATOM      1  O   UNL     1      33.895 -10.787 -24.198  0.00  0.00    -0.270 OA
ATOM      2  N   UNL     1      32.135 -10.348 -22.752  0.00  0.00    -0.274 N 
ATOM      3  C   UNL     1      31.337 -10.718 -21.584  0.00  0.00    +0.094 C 
ATOM      4  C   UNL     1      31.201 -12.220 -21.426  0.00  0.00    +0.026 C 
ATOM      5  C   UNL     1      32.585 -12.839 -21.386  0.00  0.00    +0.033 C 
ATOM      6  C   UNL     1      33.360 -12.475 -22.616  0.00  0.00    +0.031 C 
ATOM      7  C   UNL     1      33.169 -11.134 -23.265  0.00  0.00    +0.245 C 
ATOM      8  C   UNL     1      34.215 -13.335 -23.190  0.00  0.00    +0.000 C 
ENDROOT
BRANCH   8   9
ATOM      9  C   UNL     1      34.529 -14.686 -22.700  0.00  0.00    +0.003 C 
ATOM     10  C   UNL     1      34.680 -15.722 -23.608  0.00  0.00    +0.038 C 
ATOM     11  C   UNL     1      34.670 -14.900 -21.336  0.00  0.00    +0.001 C 
ATOM     12  C   UNL     1      35.123 -17.232 -21.775  0.00  0.00    +0.084 C 
ATOM     13  C   UNL     1      34.979 -17.003 -23.143  0.00  0.00    +0.152 C 
ATOM     14  C   UNL     1      34.968 -16.180 -20.871  0.00  0.00    +0.018 C 
BRANCH  12  15
ATOM     15  N   UNL     1      35.418 -18.497 -21.297  0.00  0.00    -0.280 N 
ATOM     16  N   UNL     1      36.616 -20.229 -20.570  0.00  0.00    -0.255 NA
ATOM     17  C   UNL     1      34.519 -19.494 -21.021  0.00  0.00    +0.134 C 
ATOM     18  C   UNL     1      36.664 -18.991 -21.008  0.00  0.00    +0.220 C 
ATOM     19  C   UNL     1      35.281 -20.549 -20.575  0.00  0.00    +0.054 C 
ATOM     20  C   UNL     1      34.829 -21.880 -20.141  0.00  0.00    +0.049 C 
ENDBRANCH  12  15
BRANCH  13  21
ATOM     21  O   UNL     1      35.126 -18.014 -24.046  0.00  0.00    -0.470 OA
ATOM     22  C   UNL     1      34.236 -18.021 -25.159  0.00  0.00    +0.253 C 
ENDBRANCH  13  21
ENDBRANCH   8   9
BRANCH   2  23
ATOM     23  C   UNL     1      31.910  -9.009 -23.282  0.00  0.00    +0.098 C 
ATOM     24  C   UNL     1      30.499  -8.923 -23.868  0.00  0.00    +0.026 C 
BRANCH  23  26
ATOM     25  F   UNL     1      32.789  -5.069 -19.370  0.00  0.00    -0.204 F 
ATOM     26  C   UNL     1      32.147  -7.946 -22.226  0.00  0.00    -0.004 C 
ATOM     27  C   UNL     1      33.107  -8.165 -21.255  0.00  0.00    -0.000 C 
ATOM     28  C   UNL     1      31.398  -6.784 -22.262  0.00  0.00    -0.000 C 
ATOM     29  C   UNL     1      33.325  -7.187 -20.284  0.00  0.00    +0.029 C 
ATOM     30  C   UNL     1      31.617  -5.807 -21.291  0.00  0.00    +0.029 C 
ATOM     31  C   UNL     1      32.579  -6.008 -20.303  0.00  0.00    +0.140 C 
ENDBRANCH  23  26
ENDBRANCH   2  23
TORSDOF 5
ENDMDL
MODEL 7
REMARK VINA RESULT:      -9.1      4.184     10.382
REMARK  Name = 11560787
REMARK  5 active torsions:
REMARK  status: ('A' for Active; 'I' for Inactive)
REMARK    1  A    between atoms: N_2  and  C_23
REMARK    2  A    between atoms: C_8  and  C_9
REMARK    3  A    between atoms: C_12  and  N_15
REMARK    4  A    between atoms: C_13  and  O_21
REMARK    5  A    between atoms: C_23  and  C_26
REMARK                            x       y       z     vdW  Elec       q    Type
REMARK                         _______ _______ _______ _____ _____    ______ ____
ROOT
ATOM      1  O   UNL     1      33.712  -9.101 -23.225  0.00  0.00    -0.270 OA
ATOM      2  N   UNL     1      32.007  -9.246 -21.660  0.00  0.00    -0.274 N 
ATOM      3  C   UNL     1      31.135 -10.059 -20.813  0.00  0.00    +0.094 C 
ATOM      4  C   UNL     1      30.768 -11.381 -21.457  0.00  0.00    +0.026 C 
ATOM      5  C   UNL     1      32.041 -12.118 -21.831  0.00  0.00    +0.033 C 
ATOM      6  C   UNL     1      32.890 -11.274 -22.732  0.00  0.00    +0.031 C 
ATOM      7  C   UNL     1      32.921  -9.781 -22.570  0.00  0.00    +0.245 C 
ATOM      8  C   UNL     1      33.618 -11.813 -23.723  0.00  0.00    +0.000 C 
ENDROOT
BRANCH   8   9
ATOM      9  C   UNL     1      33.711 -13.248 -24.033  0.00  0.00    +0.003 C 
ATOM     10  C   UNL     1      34.390 -14.090 -23.166  0.00  0.00    +0.038 C 
ATOM     11  C   UNL     1      33.117 -13.735 -25.188  0.00  0.00    +0.001 C 
ATOM     12  C   UNL     1      33.885 -15.953 -24.618  0.00  0.00    +0.084 C 
ATOM     13  C   UNL     1      34.478 -15.451 -23.460  0.00  0.00    +0.152 C 
ATOM     14  C   UNL     1      33.205 -15.095 -25.482  0.00  0.00    +0.018 C 
BRANCH  12  15
ATOM     15  N   UNL     1      33.964 -17.300 -24.926  0.00  0.00    -0.280 N 
ATOM     16  N   UNL     1      33.528 -19.244 -25.923  0.00  0.00    -0.255 NA
ATOM     17  C   UNL     1      34.799 -18.222 -24.349  0.00  0.00    +0.134 C 
ATOM     18  C   UNL     1      33.222 -17.967 -25.866  0.00  0.00    +0.220 C 
ATOM     19  C   UNL     1      34.511 -19.409 -24.980  0.00  0.00    +0.054 C 
ATOM     20  C   UNL     1      35.115 -20.731 -24.751  0.00  0.00    +0.049 C 
ENDBRANCH  12  15
BRANCH  13  21
ATOM     21  O   UNL     1      35.148 -16.269 -22.600  0.00  0.00    -0.470 OA
ATOM     22  C   UNL     1      34.966 -16.030 -21.206  0.00  0.00    +0.253 C 
ENDBRANCH  13  21
ENDBRANCH   8   9
BRANCH   2  23
ATOM     23  C   UNL     1      32.001  -7.813 -21.395  0.00  0.00    +0.098 C 
ATOM     24  C   UNL     1      33.130  -7.471 -20.419  0.00  0.00    +0.026 C 
BRANCH  23  26
ATOM     25  F   UNL     1      32.372  -4.832 -26.145  0.00  0.00    -0.204 F 
ATOM     26  C   UNL     1      32.101  -7.009 -22.676  0.00  0.00    -0.004 C 
ATOM     27  C   UNL     1      31.047  -7.036 -23.571  0.00  0.00    -0.000 C 
ATOM     28  C   UNL     1      33.244  -6.269 -22.918  0.00  0.00    -0.000 C 
ATOM     29  C   UNL     1      31.139  -6.295 -24.750  0.00  0.00    +0.029 C 
ATOM     30  C   UNL     1      33.335  -5.529 -24.097  0.00  0.00    +0.029 C 
ATOM     31  C   UNL     1      32.284  -5.543 -25.013  0.00  0.00    +0.140 C 
ENDBRANCH  23  26
ENDBRANCH   2  23
TORSDOF 5
ENDMDL
MODEL 8
REMARK VINA RESULT:      -9.0      5.932      9.824
REMARK  Name = 11560787
REMARK  5 active torsions:
REMARK  status: ('A' for Active; 'I' for Inactive)
REMARK    1  A    between atoms: N_2  and  C_23
REMARK    2  A    between atoms: C_8  and  C_9
REMARK    3  A    between atoms: C_12  and  N_15
REMARK    4  A    between atoms: C_13  and  O_21
REMARK    5  A    between atoms: C_23  and  C_26
REMARK                            x       y       z     vdW  Elec       q    Type
REMARK                         _______ _______ _______ _____ _____    ______ ____
ROOT
ATOM      1  O   UNL     1      34.093 -24.604 -17.036  0.00  0.00    -0.270 OA
ATOM      2  N   UNL     1      36.024 -24.164 -15.830  0.00  0.00    -0.274 N 
ATOM      3  C   UNL     1      37.145 -23.278 -15.519  0.00  0.00    +0.094 C 
ATOM      4  C   UNL     1      37.626 -22.503 -16.730  0.00  0.00    +0.026 C 
ATOM      5  C   UNL     1      36.455 -21.746 -17.328  0.00  0.00    +0.033 C 
ATOM      6  C   UNL     1      35.343 -22.688 -17.674  0.00  0.00    +0.031 C 
ATOM      7  C   UNL     1      35.083 -23.901 -16.828  0.00  0.00    +0.245 C 
ATOM      8  C   UNL     1      34.570 -22.499 -18.755  0.00  0.00    +0.000 C 
ENDROOT
BRANCH   8   9
ATOM      9  C   UNL     1      34.676 -21.374 -19.697  0.00  0.00    +0.003 C 
ATOM     10  C   UNL     1      35.888 -20.718 -19.842  0.00  0.00    +0.038 C 
ATOM     11  C   UNL     1      33.560 -20.989 -20.426  0.00  0.00    +0.001 C 
ATOM     12  C   UNL     1      34.874 -19.255 -21.474  0.00  0.00    +0.084 C 
ATOM     13  C   UNL     1      35.988 -19.652 -20.736  0.00  0.00    +0.152 C 
ATOM     14  C   UNL     1      33.659 -19.924 -21.319  0.00  0.00    +0.018 C 
BRANCH  12  15
ATOM     15  N   UNL     1      34.955 -18.198 -22.365  0.00  0.00    -0.280 N 
ATOM     16  N   UNL     1      35.295 -16.135 -23.133  0.00  0.00    -0.255 NA
ATOM     17  C   UNL     1      34.691 -18.242 -23.709  0.00  0.00    +0.134 C 
ATOM     18  C   UNL     1      35.315 -16.908 -22.070  0.00  0.00    +0.220 C 
ATOM     19  C   UNL     1      34.908 -16.960 -24.158  0.00  0.00    +0.054 C 
ATOM     20  C   UNL     1      34.772 -16.440 -25.527  0.00  0.00    +0.049 C 
ENDBRANCH  12  15
BRANCH  13  21
ATOM     21  O   UNL     1      37.186 -19.014 -20.870  0.00  0.00    -0.470 OA
ATOM     22  C   UNL     1      37.851 -19.146 -22.124  0.00  0.00    +0.253 C 
ENDBRANCH  13  21
ENDBRANCH   8   9
BRANCH   2  23
ATOM     23  C   UNL     1      35.827 -25.287 -14.923  0.00  0.00    +0.098 C 
ATOM     24  C   UNL     1      36.739 -26.444 -15.339  0.00  0.00    +0.026 C 
BRANCH  23  26
ATOM     25  F   UNL     1      36.663 -23.791  -9.570  0.00  0.00    -0.204 F 
ATOM     26  C   UNL     1      36.052 -24.884 -13.479  0.00  0.00    -0.004 C 
ATOM     27  C   UNL     1      37.304 -25.061 -12.919  0.00  0.00    -0.000 C 
ATOM     28  C   UNL     1      35.001 -24.349 -12.758  0.00  0.00    -0.000 C 
ATOM     29  C   UNL     1      37.512 -24.689 -11.591  0.00  0.00    +0.029 C 
ATOM     30  C   UNL     1      35.209 -23.977 -11.430  0.00  0.00    +0.029 C 
ATOM     31  C   UNL     1      36.463 -24.148 -10.846  0.00  0.00    +0.140 C 
ENDBRANCH  23  26
ENDBRANCH   2  23
TORSDOF 5
ENDMDL
MODEL 9
REMARK VINA RESULT:      -8.9      4.708     11.384
REMARK  Name = 11560787
REMARK  5 active torsions:
REMARK  status: ('A' for Active; 'I' for Inactive)
REMARK    1  A    between atoms: N_2  and  C_23
REMARK    2  A    between atoms: C_8  and  C_9
REMARK    3  A    between atoms: C_12  and  N_15
REMARK    4  A    between atoms: C_13  and  O_21
REMARK    5  A    between atoms: C_23  and  C_26
REMARK                            x       y       z     vdW  Elec       q    Type
REMARK                         _______ _______ _______ _____ _____    ______ ____
ROOT
ATOM      1  O   UNL     1      30.773  -8.039 -23.385  0.00  0.00    -0.270 OA
ATOM      2  N   UNL     1      32.727  -6.803 -23.566  0.00  0.00    -0.274 N 
ATOM      3  C   UNL     1      34.172  -6.748 -23.781  0.00  0.00    +0.094 C 
ATOM      4  C   UNL     1      34.891  -7.953 -23.206  0.00  0.00    +0.026 C 
ATOM      5  C   UNL     1      34.279  -9.215 -23.786  0.00  0.00    +0.033 C 
ATOM      6  C   UNL     1      32.807  -9.259 -23.512  0.00  0.00    +0.031 C 
ATOM      7  C   UNL     1      32.000  -7.993 -23.484  0.00  0.00    +0.245 C 
ATOM      8  C   UNL     1      32.173 -10.414 -23.253  0.00  0.00    +0.000 C 
ENDROOT
BRANCH   8   9
ATOM      9  C   UNL     1      32.795 -11.746 -23.236  0.00  0.00    +0.003 C 
ATOM     10  C   UNL     1      32.753 -12.502 -22.074  0.00  0.00    +0.038 C 
ATOM     11  C   UNL     1      33.411 -12.226 -24.383  0.00  0.00    +0.001 C 
ATOM     12  C   UNL     1      33.965 -14.260 -23.204  0.00  0.00    +0.084 C 
ATOM     13  C   UNL     1      33.342 -13.767 -22.058  0.00  0.00    +0.152 C 
ATOM     14  C   UNL     1      34.000 -13.489 -24.367  0.00  0.00    +0.018 C 
BRANCH  12  15
ATOM     15  N   UNL     1      34.556 -15.512 -23.205  0.00  0.00    -0.280 N 
ATOM     16  N   UNL     1      35.223 -17.507 -23.939  0.00  0.00    -0.255 NA
ATOM     17  C   UNL     1      35.223 -16.100 -22.162  0.00  0.00    +0.134 C 
ATOM     18  C   UNL     1      34.585 -16.400 -24.249  0.00  0.00    +0.220 C 
ATOM     19  C   UNL     1      35.624 -17.326 -22.640  0.00  0.00    +0.054 C 
ATOM     20  C   UNL     1      36.380 -18.374 -21.937  0.00  0.00    +0.049 C 
ENDBRANCH  12  15
BRANCH  13  21
ATOM     21  O   UNL     1      33.295 -14.501 -20.911  0.00  0.00    -0.470 OA
ATOM     22  C   UNL     1      32.104 -14.410 -20.133  0.00  0.00    +0.253 C 
ENDBRANCH  13  21
ENDBRANCH   8   9
BRANCH   2  23
ATOM     23  C   UNL     1      32.026  -5.525 -23.603  0.00  0.00    +0.098 C 
ATOM     24  C   UNL     1      32.224  -4.797 -22.271  0.00  0.00    +0.026 C 
BRANCH  23  26
ATOM     25  F   UNL     1      33.683  -2.388 -27.962  0.00  0.00    -0.204 F 
ATOM     26  C   UNL     1      32.473  -4.679 -24.779  0.00  0.00    -0.004 C 
ATOM     27  C   UNL     1      33.081  -5.295 -25.858  0.00  0.00    -0.000 C 
ATOM     28  C   UNL     1      32.262  -3.313 -24.743  0.00  0.00    -0.000 C 
ATOM     29  C   UNL     1      33.491  -4.516 -26.940  0.00  0.00    +0.029 C 
ATOM     30  C   UNL     1      32.673  -2.535 -25.825  0.00  0.00    +0.029 C 
ATOM     31  C   UNL     1      33.287  -3.136 -26.923  0.00  0.00    +0.140 C 
ENDBRANCH  23  26
ENDBRANCH   2  23
TORSDOF 5
ENDMDL
