MODEL 1
REMARK VINA RESULT:     -10.9      0.000      0.000
REMARK  Name = 445849
REMARK  5 active torsions:
REMARK  status: ('A' for Active; 'I' for Inactive)
REMARK    1  A    between atoms: C_3  and  C_20
REMARK    2  A    between atoms: C_9  and  C_14
REMARK    3  A    between atoms: C_18  and  O_26
REMARK    4  A    between atoms: C_19  and  O_24
REMARK    5  A    between atoms: O_26  and  C_28
REMARK                            x       y       z     vdW  Elec       q    Type
REMARK                         _______ _______ _______ _____ _____    ______ ____
ROOT
ATOM      1  F   UNL     1      36.059 -18.748 -23.917  0.00  0.00    -0.204 F 
ATOM      2  N   UNL     1      33.754 -14.553 -23.039  0.00  0.00    -0.312 N 
ATOM      3  C   UNL     1      33.493 -13.891 -21.870  0.00  0.00    +0.051 C 
ATOM      4  C   UNL     1      34.624 -15.789 -21.399  0.00  0.00    +0.015 C 
ATOM      5  C   UNL     1      34.443 -15.717 -22.782  0.00  0.00    +0.051 C 
ATOM      6  C   UNL     1      34.020 -14.630 -20.838  0.00  0.00    +0.016 C 
ATOM      7  C   UNL     1      35.311 -16.896 -20.862  0.00  0.00    +0.006 C 
ATOM      8  C   UNL     1      34.916 -16.700 -23.658  0.00  0.00    +0.044 C 
ATOM      9  C   UNL     1      35.788 -17.887 -21.726  0.00  0.00    +0.058 C 
ATOM     10  C   UNL     1      35.593 -17.789 -23.102  0.00  0.00    +0.144 C 
ATOM     11  H   UNL     1      33.486 -14.243 -23.935  0.00  0.00    +0.152 HD
ENDROOT
BRANCH   9  14
ATOM     12  N   UNL     1      35.812 -20.086 -20.571  0.00  0.00    -0.343 N 
ATOM     13  N   UNL     1      37.816 -19.081 -21.234  0.00  0.00    -0.285 NA
ATOM     14  C   UNL     1      36.497 -19.032 -21.174  0.00  0.00    +0.119 C 
ATOM     15  H   UNL     1      36.312 -20.851 -20.204  0.00  0.00    +0.144 HD
ATOM     16  H   UNL     1      34.830 -20.066 -20.514  0.00  0.00    +0.144 HD
ATOM     17  H   UNL     1      38.297 -19.855 -20.861  0.00  0.00    +0.188 HD
ENDBRANCH   9  14
BRANCH   3  20
ATOM     18  C   UNL     1      32.211 -10.513 -22.835  0.00  0.00    +0.172 C 
ATOM     19  C   UNL     1      32.910 -11.715 -22.884  0.00  0.00    +0.169 C 
ATOM     20  C   UNL     1      32.779 -12.636 -21.845  0.00  0.00    +0.050 C 
ATOM     21  C   UNL     1      31.382 -10.223 -21.756  0.00  0.00    +0.040 C 
ATOM     22  C   UNL     1      31.950 -12.350 -20.761  0.00  0.00    +0.004 C 
ATOM     23  C   UNL     1      31.250 -11.144 -20.716  0.00  0.00    +0.003 C 
BRANCH  19  24
ATOM     24  O   UNL     1      33.718 -11.981 -23.952  0.00  0.00    -0.503 OA
ATOM     25  H   UNL     1      33.393 -11.870 -24.824  0.00  0.00    +0.292 HD
ENDBRANCH  19  24
BRANCH  18  26
ATOM     26  O   UNL     1      32.330  -9.599 -23.848  0.00  0.00    -0.476 OA
BRANCH  26  28
ATOM     27  C   UNL     1      32.104  -7.224 -24.245  0.00  0.00    +0.040 C 
ATOM     28  C   UNL     1      32.875  -8.329 -23.502  0.00  0.00    +0.166 C 
ATOM     29  C   UNL     1      32.748  -5.852 -24.006  0.00  0.00    +0.004 C 
ATOM     30  C   UNL     1      34.362  -8.315 -23.860  0.00  0.00    +0.044 C 
ATOM     31  C   UNL     1      34.232  -5.851 -24.365  0.00  0.00    +0.000 C 
ATOM     32  C   UNL     1      34.990  -6.947 -23.624  0.00  0.00    +0.004 C 
ATOM     33  C   UNL     1      30.629  -7.198 -23.834  0.00  0.00    +0.004 C 
ENDBRANCH  26  28
ENDBRANCH  18  26
ENDBRANCH   3  20
TORSDOF 5
ENDMDL
MODEL 2
REMARK VINA RESULT:     -10.9      1.734      2.612
REMARK  Name = 445849
REMARK  5 active torsions:
REMARK  status: ('A' for Active; 'I' for Inactive)
REMARK    1  A    between atoms: C_3  and  C_20
REMARK    2  A    between atoms: C_9  and  C_14
REMARK    3  A    between atoms: C_18  and  O_26
REMARK    4  A    between atoms: C_19  and  O_24
REMARK    5  A    between atoms: O_26  and  C_28
REMARK                            x       y       z     vdW  Elec       q    Type
REMARK                         _______ _______ _______ _____ _____    ______ ____
ROOT
ATOM      1  F   UNL     1      35.328 -19.898 -23.647  0.00  0.00    -0.204 F 
ATOM      2  N   UNL     1      34.193 -15.190 -24.128  0.00  0.00    -0.312 N 
ATOM      3  C   UNL     1      34.218 -14.157 -23.231  0.00  0.00    +0.051 C 
ATOM      4  C   UNL     1      34.904 -16.043 -22.193  0.00  0.00    +0.015 C 
ATOM      5  C   UNL     1      34.606 -16.355 -23.521  0.00  0.00    +0.051 C 
ATOM      6  C   UNL     1      34.654 -14.652 -22.026  0.00  0.00    +0.016 C 
ATOM      7  C   UNL     1      35.357 -17.069 -21.340  0.00  0.00    +0.006 C 
ATOM      8  C   UNL     1      34.739 -17.648 -24.041  0.00  0.00    +0.044 C 
ATOM      9  C   UNL     1      35.494 -18.366 -21.847  0.00  0.00    +0.058 C 
ATOM     10  C   UNL     1      35.190 -18.649 -23.177  0.00  0.00    +0.144 C 
ATOM     11  H   UNL     1      33.917 -15.113 -25.071  0.00  0.00    +0.152 HD
ENDROOT
BRANCH   9  14
ATOM     12  N   UNL     1      35.112 -20.456 -20.560  0.00  0.00    -0.343 N 
ATOM     13  N   UNL     1      37.210 -19.423 -20.536  0.00  0.00    -0.285 NA
ATOM     14  C   UNL     1      35.960 -19.428 -20.967  0.00  0.00    +0.119 C 
ATOM     15  H   UNL     1      35.449 -21.164 -19.964  0.00  0.00    +0.144 HD
ATOM     16  H   UNL     1      34.178 -20.474 -20.868  0.00  0.00    +0.144 HD
ATOM     17  H   UNL     1      37.527 -20.141 -19.941  0.00  0.00    +0.188 HD
ENDBRANCH   9  14
BRANCH   3  20
ATOM     18  C   UNL     1      32.618 -10.777 -23.165  0.00  0.00    +0.172 C 
ATOM     19  C   UNL     1      32.976 -12.068 -22.788  0.00  0.00    +0.169 C 
ATOM     20  C   UNL     1      33.830 -12.815 -23.599  0.00  0.00    +0.050 C 
ATOM     21  C   UNL     1      33.106 -10.227 -24.346  0.00  0.00    +0.040 C 
ATOM     22  C   UNL     1      34.321 -12.268 -24.784  0.00  0.00    +0.004 C 
ATOM     23  C   UNL     1      33.960 -10.974 -25.158  0.00  0.00    +0.003 C 
BRANCH  19  24
ATOM     24  O   UNL     1      32.488 -12.590 -21.624  0.00  0.00    -0.503 OA
ATOM     25  H   UNL     1      32.095 -13.440 -21.620  0.00  0.00    +0.292 HD
ENDBRANCH  19  24
BRANCH  18  26
ATOM     26  O   UNL     1      31.781 -10.032 -22.378  0.00  0.00    -0.476 OA
BRANCH  26  28
ATOM     27  C   UNL     1      31.793  -8.622 -20.413  0.00  0.00    +0.040 C 
ATOM     28  C   UNL     1      32.313  -8.821 -21.847  0.00  0.00    +0.166 C 
ATOM     29  C   UNL     1      32.234  -7.261 -19.855  0.00  0.00    +0.004 C 
ATOM     30  C   UNL     1      31.908  -7.661 -22.758  0.00  0.00    +0.044 C 
ATOM     31  C   UNL     1      31.826  -6.113 -20.774  0.00  0.00    +0.000 C 
ATOM     32  C   UNL     1      32.346  -6.315 -22.193  0.00  0.00    +0.004 C 
ATOM     33  C   UNL     1      32.257  -9.751 -19.489  0.00  0.00    +0.004 C 
ENDBRANCH  26  28
ENDBRANCH  18  26
ENDBRANCH   3  20
TORSDOF 5
ENDMDL
MODEL 3
REMARK VINA RESULT:     -10.7      4.563      9.822
REMARK  Name = 445849
REMARK  5 active torsions:
REMARK  status: ('A' for Active; 'I' for Inactive)
REMARK    1  A    between atoms: C_3  and  C_20
REMARK    2  A    between atoms: C_9  and  C_14
REMARK    3  A    between atoms: C_18  and  O_26
REMARK    4  A    between atoms: C_19  and  O_24
REMARK    5  A    between atoms: O_26  and  C_28
REMARK                            x       y       z     vdW  Elec       q    Type
REMARK                         _______ _______ _______ _____ _____    ______ ____
ROOT
ATOM      1  F   UNL     1      33.242  -4.222 -24.622  0.00  0.00    -0.204 F 
ATOM      2  N   UNL     1      33.179  -8.925 -23.371  0.00  0.00    -0.312 N 
ATOM      3  C   UNL     1      32.264  -9.662 -22.672  0.00  0.00    +0.051 C 
ATOM      4  C   UNL     1      31.529  -7.532 -22.814  0.00  0.00    +0.015 C 
ATOM      5  C   UNL     1      32.757  -7.618 -23.473  0.00  0.00    +0.051 C 
ATOM      6  C   UNL     1      31.231  -8.830 -22.314  0.00  0.00    +0.016 C 
ATOM      7  C   UNL     1      30.869  -6.287 -22.770  0.00  0.00    +0.006 C 
ATOM      8  C   UNL     1      33.361  -6.518 -24.093  0.00  0.00    +0.044 C 
ATOM      9  C   UNL     1      31.461  -5.179 -23.385  0.00  0.00    +0.058 C 
ATOM     10  C   UNL     1      32.688  -5.295 -24.036  0.00  0.00    +0.144 C 
ATOM     11  H   UNL     1      34.020  -9.276 -23.746  0.00  0.00    +0.152 HD
ENDROOT
BRANCH   9  14
ATOM     12  N   UNL     1      30.500  -3.181 -24.504  0.00  0.00    -0.343 N 
ATOM     13  N   UNL     1      30.428  -3.376 -22.176  0.00  0.00    -0.285 NA
ATOM     14  C   UNL     1      30.783  -3.892 -23.340  0.00  0.00    +0.119 C 
ATOM     15  H   UNL     1      30.040  -2.312 -24.451  0.00  0.00    +0.144 HD
ATOM     16  H   UNL     1      30.759  -3.547 -25.380  0.00  0.00    +0.144 HD
ATOM     17  H   UNL     1      29.969  -2.506 -22.143  0.00  0.00    +0.188 HD
ENDBRANCH   9  14
BRANCH   3  20
ATOM     18  C   UNL     1      33.475 -13.192 -22.933  0.00  0.00    +0.172 C 
ATOM     19  C   UNL     1      33.310 -11.836 -23.204  0.00  0.00    +0.169 C 
ATOM     20  C   UNL     1      32.454 -11.071 -22.412  0.00  0.00    +0.050 C 
ATOM     21  C   UNL     1      32.793 -13.788 -21.877  0.00  0.00    +0.040 C 
ATOM     22  C   UNL     1      31.767 -11.664 -21.354  0.00  0.00    +0.004 C 
ATOM     23  C   UNL     1      31.936 -13.022 -21.085  0.00  0.00    +0.003 C 
BRANCH  19  24
ATOM     24  O   UNL     1      33.990 -11.270 -24.244  0.00  0.00    -0.503 OA
ATOM     25  H   UNL     1      33.527 -10.779 -24.894  0.00  0.00    +0.292 HD
ENDBRANCH  19  24
BRANCH  18  26
ATOM     26  O   UNL     1      34.312 -13.955 -23.702  0.00  0.00    -0.476 OA
BRANCH  26  28
ATOM     27  C   UNL     1      35.003 -16.271 -23.588  0.00  0.00    +0.040 C 
ATOM     28  C   UNL     1      33.887 -15.286 -23.980  0.00  0.00    +0.166 C 
ATOM     29  C   UNL     1      34.637 -17.704 -23.999  0.00  0.00    +0.004 C 
ATOM     30  C   UNL     1      33.538 -15.395 -25.466  0.00  0.00    +0.044 C 
ATOM     31  C   UNL     1      34.290 -17.798 -25.483  0.00  0.00    +0.000 C 
ATOM     32  C   UNL     1      33.182 -16.822 -25.864  0.00  0.00    +0.004 C 
ATOM     33  C   UNL     1      35.302 -16.207 -22.088  0.00  0.00    +0.004 C 
ENDBRANCH  26  28
ENDBRANCH  18  26
ENDBRANCH   3  20
TORSDOF 5
ENDMDL
MODEL 4
REMARK VINA RESULT:     -10.6      2.503      3.706
REMARK  Name = 445849
REMARK  5 active torsions:
REMARK  status: ('A' for Active; 'I' for Inactive)
REMARK    1  A    between atoms: C_3  and  C_20
REMARK    2  A    between atoms: C_9  and  C_14
REMARK    3  A    between atoms: C_18  and  O_26
REMARK    4  A    between atoms: C_19  and  O_24
REMARK    5  A    between atoms: O_26  and  C_28
REMARK                            x       y       z     vdW  Elec       q    Type
REMARK                         _______ _______ _______ _____ _____    ______ ____
ROOT
ATOM      1  F   UNL     1      34.979 -18.691 -23.274  0.00  0.00    -0.204 F 
ATOM      2  N   UNL     1      34.563 -13.843 -23.334  0.00  0.00    -0.312 N 
ATOM      3  C   UNL     1      33.902 -13.002 -24.188  0.00  0.00    +0.051 C 
ATOM      4  C   UNL     1      33.589 -15.132 -24.872  0.00  0.00    +0.015 C 
ATOM      5  C   UNL     1      34.389 -15.151 -23.729  0.00  0.00    +0.051 C 
ATOM      6  C   UNL     1      33.289 -13.769 -25.149  0.00  0.00    +0.016 C 
ATOM      7  C   UNL     1      33.254 -16.356 -25.486  0.00  0.00    +0.006 C 
ATOM      8  C   UNL     1      34.874 -16.337 -23.165  0.00  0.00    +0.044 C 
ATOM      9  C   UNL     1      33.732 -17.549 -24.934  0.00  0.00    +0.058 C 
ATOM     10  C   UNL     1      34.530 -17.538 -23.791  0.00  0.00    +0.144 C 
ATOM     11  H   UNL     1      35.088 -13.555 -22.552  0.00  0.00    +0.152 HD
ENDROOT
BRANCH   9  14
ATOM     12  N   UNL     1      34.337 -19.821 -25.735  0.00  0.00    -0.343 N 
ATOM     13  N   UNL     1      32.157 -19.020 -25.999  0.00  0.00    -0.285 NA
ATOM     14  C   UNL     1      33.389 -18.814 -25.567  0.00  0.00    +0.119 C 
ATOM     15  H   UNL     1      34.083 -20.669 -26.166  0.00  0.00    +0.144 HD
ATOM     16  H   UNL     1      35.261 -19.684 -25.423  0.00  0.00    +0.144 HD
ATOM     17  H   UNL     1      31.922 -19.875 -26.428  0.00  0.00    +0.188 HD
ENDBRANCH   9  14
BRANCH   3  20
ATOM     18  C   UNL     1      33.019  -9.556 -23.032  0.00  0.00    +0.172 C 
ATOM     19  C   UNL     1      32.985 -10.940 -23.184  0.00  0.00    +0.169 C 
ATOM     20  C   UNL     1      33.915 -11.569 -24.012  0.00  0.00    +0.050 C 
ATOM     21  C   UNL     1      33.974  -8.797 -23.700  0.00  0.00    +0.040 C 
ATOM     22  C   UNL     1      34.874 -10.812 -24.684  0.00  0.00    +0.004 C 
ATOM     23  C   UNL     1      34.905  -9.426 -24.528  0.00  0.00    +0.003 C 
BRANCH  19  24
ATOM     24  O   UNL     1      32.040 -11.667 -22.519  0.00  0.00    -0.503 OA
ATOM     25  H   UNL     1      31.573 -12.346 -22.964  0.00  0.00    +0.292 HD
ENDBRANCH  19  24
BRANCH  18  26
ATOM     26  O   UNL     1      32.113  -8.926 -22.223  0.00  0.00    -0.476 OA
BRANCH  26  28
ATOM     27  C   UNL     1      31.769  -6.910 -20.931  0.00  0.00    +0.040 C 
ATOM     28  C   UNL     1      32.048  -7.505 -22.322  0.00  0.00    +0.166 C 
ATOM     29  C   UNL     1      31.556  -5.392 -21.018  0.00  0.00    +0.004 C 
ATOM     30  C   UNL     1      30.956  -7.128 -23.324  0.00  0.00    +0.044 C 
ATOM     31  C   UNL     1      30.466  -5.028 -22.023  0.00  0.00    +0.000 C 
ATOM     32  C   UNL     1      30.750  -5.620 -23.399  0.00  0.00    +0.004 C 
ATOM     33  C   UNL     1      32.897  -7.233 -19.948  0.00  0.00    +0.004 C 
ENDBRANCH  26  28
ENDBRANCH  18  26
ENDBRANCH   3  20
TORSDOF 5
ENDMDL
MODEL 5
REMARK VINA RESULT:     -10.2      7.995     13.560
REMARK  Name = 445849
REMARK  5 active torsions:
REMARK  status: ('A' for Active; 'I' for Inactive)
REMARK    1  A    between atoms: C_3  and  C_20
REMARK    2  A    between atoms: C_9  and  C_14
REMARK    3  A    between atoms: C_18  and  O_26
REMARK    4  A    between atoms: C_19  and  O_24
REMARK    5  A    between atoms: O_26  and  C_28
REMARK                            x       y       z     vdW  Elec       q    Type
REMARK                         _______ _______ _______ _____ _____    ______ ____
ROOT
ATOM      1  F   UNL     1      37.577 -18.384 -22.780  0.00  0.00    -0.204 F 
ATOM      2  N   UNL     1      36.109 -21.262 -19.142  0.00  0.00    -0.312 N 
ATOM      3  C   UNL     1      34.878 -21.772 -18.832  0.00  0.00    +0.051 C 
ATOM      4  C   UNL     1      34.699 -20.516 -20.701  0.00  0.00    +0.015 C 
ATOM      5  C   UNL     1      36.030 -20.490 -20.279  0.00  0.00    +0.051 C 
ATOM      6  C   UNL     1      33.985 -21.329 -19.777  0.00  0.00    +0.016 C 
ATOM      7  C   UNL     1      34.340 -19.798 -21.859  0.00  0.00    +0.006 C 
ATOM      8  C   UNL     1      37.025 -19.779 -20.960  0.00  0.00    +0.044 C 
ATOM      9  C   UNL     1      35.324 -19.082 -22.550  0.00  0.00    +0.058 C 
ATOM     10  C   UNL     1      36.645 -19.074 -22.106  0.00  0.00    +0.144 C 
ATOM     11  H   UNL     1      36.933 -21.423 -18.625  0.00  0.00    +0.152 HD
ENDROOT
BRANCH   9  14
ATOM     12  N   UNL     1      35.312 -17.002 -23.906  0.00  0.00    -0.343 N 
ATOM     13  N   UNL     1      34.265 -18.934 -24.703  0.00  0.00    -0.285 NA
ATOM     14  C   UNL     1      34.956 -18.339 -23.746  0.00  0.00    +0.119 C 
ATOM     15  H   UNL     1      35.053 -16.518 -24.723  0.00  0.00    +0.144 HD
ATOM     16  H   UNL     1      35.824 -16.541 -23.202  0.00  0.00    +0.144 HD
ATOM     17  H   UNL     1      34.015 -18.433 -25.513  0.00  0.00    +0.188 HD
ENDBRANCH   9  14
BRANCH   3  20
ATOM     18  C   UNL     1      35.352 -23.455 -15.525  0.00  0.00    +0.172 C 
ATOM     19  C   UNL     1      35.577 -22.628 -16.622  0.00  0.00    +0.169 C 
ATOM     20  C   UNL     1      34.669 -22.620 -17.681  0.00  0.00    +0.050 C 
ATOM     21  C   UNL     1      34.228 -24.273 -15.478  0.00  0.00    +0.040 C 
ATOM     22  C   UNL     1      33.541 -23.439 -17.638  0.00  0.00    +0.004 C 
ATOM     23  C   UNL     1      33.319 -24.265 -16.537  0.00  0.00    +0.003 C 
BRANCH  19  24
ATOM     24  O   UNL     1      36.686 -21.832 -16.649  0.00  0.00    -0.503 OA
ATOM     25  H   UNL     1      36.603 -20.921 -16.850  0.00  0.00    +0.292 HD
ENDBRANCH  19  24
BRANCH  18  26
ATOM     26  O   UNL     1      36.234 -23.473 -14.478  0.00  0.00    -0.476 OA
BRANCH  26  28
ATOM     27  C   UNL     1      37.192 -24.863 -12.746  0.00  0.00    +0.040 C 
ATOM     28  C   UNL     1      36.932 -24.695 -14.253  0.00  0.00    +0.166 C 
ATOM     29  C   UNL     1      38.062 -26.099 -12.475  0.00  0.00    +0.004 C 
ATOM     30  C   UNL     1      38.239 -24.673 -15.050  0.00  0.00    +0.044 C 
ATOM     31  C   UNL     1      39.360 -26.066 -13.277  0.00  0.00    +0.000 C 
ATOM     32  C   UNL     1      39.096 -25.901 -14.769  0.00  0.00    +0.004 C 
ATOM     33  C   UNL     1      35.882 -24.952 -11.959  0.00  0.00    +0.004 C 
ENDBRANCH  26  28
ENDBRANCH  18  26
ENDBRANCH   3  20
TORSDOF 5
ENDMDL
MODEL 6
REMARK VINA RESULT:     -10.1      8.068     13.180
REMARK  Name = 445849
REMARK  5 active torsions:
REMARK  status: ('A' for Active; 'I' for Inactive)
REMARK    1  A    between atoms: C_3  and  C_20
REMARK    2  A    between atoms: C_9  and  C_14
REMARK    3  A    between atoms: C_18  and  O_26
REMARK    4  A    between atoms: C_19  and  O_24
REMARK    5  A    between atoms: O_26  and  C_28
REMARK                            x       y       z     vdW  Elec       q    Type
REMARK                         _______ _______ _______ _____ _____    ______ ____
ROOT
ATOM      1  F   UNL     1      37.413 -18.643 -22.519  0.00  0.00    -0.204 F 
ATOM      2  N   UNL     1      35.373 -21.427 -19.088  0.00  0.00    -0.312 N 
ATOM      3  C   UNL     1      34.077 -21.821 -18.896  0.00  0.00    +0.051 C 
ATOM      4  C   UNL     1      34.179 -20.524 -20.742  0.00  0.00    +0.015 C 
ATOM      5  C   UNL     1      35.465 -20.632 -20.209  0.00  0.00    +0.051 C 
ATOM      6  C   UNL     1      33.314 -21.280 -19.903  0.00  0.00    +0.016 C 
ATOM      7  C   UNL     1      33.991 -19.757 -21.909  0.00  0.00    +0.006 C 
ATOM      8  C   UNL     1      36.577 -20.009 -20.786  0.00  0.00    +0.044 C 
ATOM      9  C   UNL     1      35.094 -19.127 -22.497  0.00  0.00    +0.058 C 
ATOM     10  C   UNL     1      36.366 -19.252 -21.943  0.00  0.00    +0.144 C 
ATOM     11  H   UNL     1      36.130 -21.674 -18.508  0.00  0.00    +0.152 HD
ENDROOT
BRANCH   9  14
ATOM     12  N   UNL     1      35.324 -17.007 -23.769  0.00  0.00    -0.343 N 
ATOM     13  N   UNL     1      34.310 -18.868 -24.754  0.00  0.00    -0.285 NA
ATOM     14  C   UNL     1      34.902 -18.332 -23.701  0.00  0.00    +0.119 C 
ATOM     15  H   UNL     1      35.185 -16.487 -24.594  0.00  0.00    +0.144 HD
ATOM     16  H   UNL     1      35.764 -16.589 -22.993  0.00  0.00    +0.144 HD
ATOM     17  H   UNL     1      34.179 -18.332 -25.570  0.00  0.00    +0.188 HD
ENDBRANCH   9  14
BRANCH   3  20
ATOM     18  C   UNL     1      34.251 -24.119 -15.950  0.00  0.00    +0.172 C 
ATOM     19  C   UNL     1      34.651 -23.312 -17.012  0.00  0.00    +0.169 C 
ATOM     20  C   UNL     1      33.690 -22.664 -17.788  0.00  0.00    +0.050 C 
ATOM     21  C   UNL     1      32.901 -24.283 -15.658  0.00  0.00    +0.040 C 
ATOM     22  C   UNL     1      32.336 -22.826 -17.500  0.00  0.00    +0.004 C 
ATOM     23  C   UNL     1      31.940 -23.635 -16.435  0.00  0.00    +0.003 C 
BRANCH  19  24
ATOM     24  O   UNL     1      35.981 -23.163 -17.281  0.00  0.00    -0.503 OA
ATOM     25  H   UNL     1      36.257 -22.620 -17.992  0.00  0.00    +0.292 HD
ENDBRANCH  19  24
BRANCH  18  26
ATOM     26  O   UNL     1      35.183 -24.761 -15.179  0.00  0.00    -0.476 OA
BRANCH  26  28
ATOM     27  C   UNL     1      37.167 -24.358 -13.855  0.00  0.00    +0.040 C 
ATOM     28  C   UNL     1      35.670 -24.052 -14.043  0.00  0.00    +0.166 C 
ATOM     29  C   UNL     1      37.697 -23.722 -12.562  0.00  0.00    +0.004 C 
ATOM     30  C   UNL     1      34.854 -24.463 -12.815  0.00  0.00    +0.044 C 
ATOM     31  C   UNL     1      36.873 -24.137 -11.346  0.00  0.00    +0.000 C 
ATOM     32  C   UNL     1      35.392 -23.830 -11.538  0.00  0.00    +0.004 C 
ATOM     33  C   UNL     1      37.989 -23.884 -15.057  0.00  0.00    +0.004 C 
ENDBRANCH  26  28
ENDBRANCH  18  26
ENDBRANCH   3  20
TORSDOF 5
ENDMDL
MODEL 7
REMARK VINA RESULT:     -10.0      3.807      9.553
REMARK  Name = 445849
REMARK  5 active torsions:
REMARK  status: ('A' for Active; 'I' for Inactive)
REMARK    1  A    between atoms: C_3  and  C_20
REMARK    2  A    between atoms: C_9  and  C_14
REMARK    3  A    between atoms: C_18  and  O_26
REMARK    4  A    between atoms: C_19  and  O_24
REMARK    5  A    between atoms: O_26  and  C_28
REMARK                            x       y       z     vdW  Elec       q    Type
REMARK                         _______ _______ _______ _____ _____    ______ ____
ROOT
ATOM      1  F   UNL     1      34.009  -8.131 -23.850  0.00  0.00    -0.204 F 
ATOM      2  N   UNL     1      34.312 -12.943 -24.504  0.00  0.00    -0.312 N 
ATOM      3  C   UNL     1      33.666 -13.982 -23.892  0.00  0.00    +0.051 C 
ATOM      4  C   UNL     1      32.943 -12.040 -22.993  0.00  0.00    +0.015 C 
ATOM      5  C   UNL     1      33.891 -11.744 -23.974  0.00  0.00    +0.051 C 
ATOM      6  C   UNL     1      32.811 -13.456 -22.953  0.00  0.00    +0.016 C 
ATOM      7  C   UNL     1      32.343 -10.978 -22.287  0.00  0.00    +0.006 C 
ATOM      8  C   UNL     1      34.272 -10.434 -24.287  0.00  0.00    +0.044 C 
ATOM      9  C   UNL     1      32.715  -9.663 -22.588  0.00  0.00    +0.058 C 
ATOM     10  C   UNL     1      33.664  -9.397 -23.573  0.00  0.00    +0.144 C 
ATOM     11  H   UNL     1      34.983 -13.039 -25.219  0.00  0.00    +0.152 HD
ENDROOT
BRANCH   9  14
ATOM     12  N   UNL     1      31.286  -7.634 -22.503  0.00  0.00    -0.343 N 
ATOM     13  N   UNL     1      32.312  -8.434 -20.561  0.00  0.00    -0.285 NA
ATOM     14  C   UNL     1      32.099  -8.564 -21.859  0.00  0.00    +0.119 C 
ATOM     15  H   UNL     1      30.879  -6.898 -21.990  0.00  0.00    +0.144 HD
ATOM     16  H   UNL     1      31.117  -7.712 -23.470  0.00  0.00    +0.144 HD
ATOM     17  H   UNL     1      31.897  -7.691 -20.066  0.00  0.00    +0.188 HD
ENDBRANCH   9  14
BRANCH   3  20
ATOM     18  C   UNL     1      34.960 -17.491 -23.831  0.00  0.00    +0.172 C 
ATOM     19  C   UNL     1      34.733 -16.168 -23.462  0.00  0.00    +0.169 C 
ATOM     20  C   UNL     1      33.917 -15.358 -24.252  0.00  0.00    +0.050 C 
ATOM     21  C   UNL     1      34.378 -18.011 -24.983  0.00  0.00    +0.040 C 
ATOM     22  C   UNL     1      33.333 -15.875 -25.408  0.00  0.00    +0.004 C 
ATOM     23  C   UNL     1      33.562 -17.201 -25.774  0.00  0.00    +0.003 C 
BRANCH  19  24
ATOM     24  O   UNL     1      35.312 -15.677 -22.326  0.00  0.00    -0.503 OA
ATOM     25  H   UNL     1      35.028 -14.858 -21.972  0.00  0.00    +0.292 HD
ENDBRANCH  19  24
BRANCH  18  26
ATOM     26  O   UNL     1      35.757 -18.298 -23.064  0.00  0.00    -0.476 OA
BRANCH  26  28
ATOM     27  C   UNL     1      36.126 -19.885 -21.277  0.00  0.00    +0.040 C 
ATOM     28  C   UNL     1      35.168 -18.848 -21.889  0.00  0.00    +0.166 C 
ATOM     29  C   UNL     1      35.470 -20.600 -20.087  0.00  0.00    +0.004 C 
ATOM     30  C   UNL     1      33.822 -19.474 -22.257  0.00  0.00    +0.044 C 
ATOM     31  C   UNL     1      34.127 -21.218 -20.466  0.00  0.00    +0.000 C 
ATOM     32  C   UNL     1      33.183 -20.185 -21.070  0.00  0.00    +0.004 C 
ATOM     33  C   UNL     1      37.447 -19.241 -20.848  0.00  0.00    +0.004 C 
ENDBRANCH  26  28
ENDBRANCH  18  26
ENDBRANCH   3  20
TORSDOF 5
ENDMDL
MODEL 8
REMARK VINA RESULT:      -9.8      1.535      2.289
REMARK  Name = 445849
REMARK  5 active torsions:
REMARK  status: ('A' for Active; 'I' for Inactive)
REMARK    1  A    between atoms: C_3  and  C_20
REMARK    2  A    between atoms: C_9  and  C_14
REMARK    3  A    between atoms: C_18  and  O_26
REMARK    4  A    between atoms: C_19  and  O_24
REMARK    5  A    between atoms: O_26  and  C_28
REMARK                            x       y       z     vdW  Elec       q    Type
REMARK                         _______ _______ _______ _____ _____    ______ ____
ROOT
ATOM      1  F   UNL     1      34.549 -17.841 -25.783  0.00  0.00    -0.204 F 
ATOM      2  N   UNL     1      33.207 -13.439 -24.203  0.00  0.00    -0.312 N 
ATOM      3  C   UNL     1      33.347 -12.834 -22.983  0.00  0.00    +0.051 C 
ATOM      4  C   UNL     1      34.250 -14.902 -22.880  0.00  0.00    +0.015 C 
ATOM      5  C   UNL     1      33.750 -14.704 -24.169  0.00  0.00    +0.051 C 
ATOM      6  C   UNL     1      33.989 -13.713 -22.144  0.00  0.00    +0.016 C 
ATOM      7  C   UNL     1      34.868 -16.131 -22.574  0.00  0.00    +0.006 C 
ATOM      8  C   UNL     1      33.836 -15.677 -25.171  0.00  0.00    +0.044 C 
ATOM      9  C   UNL     1      34.960 -17.113 -23.566  0.00  0.00    +0.058 C 
ATOM     10  C   UNL     1      34.452 -16.889 -24.843  0.00  0.00    +0.144 C 
ATOM     11  H   UNL     1      32.779 -13.029 -24.990  0.00  0.00    +0.152 HD
ENDROOT
BRANCH   9  14
ATOM     12  N   UNL     1      34.939 -19.595 -23.462  0.00  0.00    -0.343 N 
ATOM     13  N   UNL     1      36.819 -18.401 -22.750  0.00  0.00    -0.285 NA
ATOM     14  C   UNL     1      35.596 -18.384 -23.251  0.00  0.00    +0.119 C 
ATOM     15  H   UNL     1      35.388 -20.443 -23.242  0.00  0.00    +0.144 HD
ATOM     16  H   UNL     1      34.027 -19.602 -23.831  0.00  0.00    +0.144 HD
ATOM     17  H   UNL     1      37.251 -19.260 -22.536  0.00  0.00    +0.188 HD
ENDBRANCH   9  14
BRANCH   3  20
ATOM     18  C   UNL     1      33.026  -9.107 -23.019  0.00  0.00    +0.172 C 
ATOM     19  C   UNL     1      33.512 -10.386 -23.275  0.00  0.00    +0.169 C 
ATOM     20  C   UNL     1      32.863 -11.496 -22.733  0.00  0.00    +0.050 C 
ATOM     21  C   UNL     1      31.898  -8.928 -22.225  0.00  0.00    +0.040 C 
ATOM     22  C   UNL     1      31.733 -11.321 -21.936  0.00  0.00    +0.004 C 
ATOM     23  C   UNL     1      31.249 -10.038 -21.682  0.00  0.00    +0.003 C 
BRANCH  19  24
ATOM     24  O   UNL     1      34.621 -10.541 -24.058  0.00  0.00    -0.503 OA
ATOM     25  H   UNL     1      34.959 -11.398 -24.227  0.00  0.00    +0.292 HD
ENDBRANCH  19  24
BRANCH  18  26
ATOM     26  O   UNL     1      33.652  -8.009 -23.545  0.00  0.00    -0.476 OA
BRANCH  26  28
ATOM     27  C   UNL     1      33.675  -5.743 -24.389  0.00  0.00    +0.040 C 
ATOM     28  C   UNL     1      32.812  -6.963 -24.023  0.00  0.00    +0.166 C 
ATOM     29  C   UNL     1      32.795  -4.547 -24.778  0.00  0.00    +0.004 C 
ATOM     30  C   UNL     1      31.784  -6.620 -22.942  0.00  0.00    +0.044 C 
ATOM     31  C   UNL     1      31.773  -4.217 -23.694  0.00  0.00    +0.000 C 
ATOM     32  C   UNL     1      30.920  -5.429 -23.337  0.00  0.00    +0.004 C 
ATOM     33  C   UNL     1      34.656  -6.071 -25.518  0.00  0.00    +0.004 C 
ENDBRANCH  26  28
ENDBRANCH  18  26
ENDBRANCH   3  20
TORSDOF 5
ENDMDL
MODEL 9
REMARK VINA RESULT:      -9.5      7.221     12.194
REMARK  Name = 445849
REMARK  5 active torsions:
REMARK  status: ('A' for Active; 'I' for Inactive)
REMARK    1  A    between atoms: C_3  and  C_20
REMARK    2  A    between atoms: C_9  and  C_14
REMARK    3  A    between atoms: C_18  and  O_26
REMARK    4  A    between atoms: C_19  and  O_24
REMARK    5  A    between atoms: O_26  and  C_28
REMARK                            x       y       z     vdW  Elec       q    Type
REMARK                         _______ _______ _______ _____ _____    ______ ____
ROOT
ATOM      1  F   UNL     1      35.694 -16.083 -23.759  0.00  0.00    -0.204 F 
ATOM      2  N   UNL     1      35.819 -19.477 -20.274  0.00  0.00    -0.312 N 
ATOM      3  C   UNL     1      35.249 -20.719 -20.200  0.00  0.00    +0.051 C 
ATOM      4  C   UNL     1      34.696 -19.779 -22.178  0.00  0.00    +0.015 C 
ATOM      5  C   UNL     1      35.497 -18.879 -21.472  0.00  0.00    +0.051 C 
ATOM      6  C   UNL     1      34.549 -20.935 -21.362  0.00  0.00    +0.016 C 
ATOM      7  C   UNL     1      34.224 -19.411 -23.454  0.00  0.00    +0.006 C 
ATOM      8  C   UNL     1      35.851 -17.624 -21.979  0.00  0.00    +0.044 C 
ATOM      9  C   UNL     1      34.570 -18.158 -23.973  0.00  0.00    +0.058 C 
ATOM     10  C   UNL     1      35.371 -17.280 -23.246  0.00  0.00    +0.144 C 
ATOM     11  H   UNL     1      36.377 -19.069 -19.572  0.00  0.00    +0.152 HD
ENDROOT
BRANCH   9  14
ATOM     12  N   UNL     1      33.688 -16.467 -25.564  0.00  0.00    -0.343 N 
ATOM     13  N   UNL     1      34.003 -18.679 -26.250  0.00  0.00    -0.285 NA
ATOM     14  C   UNL     1      34.083 -17.775 -25.290  0.00  0.00    +0.119 C 
ATOM     15  H   UNL     1      33.361 -16.229 -26.462  0.00  0.00    +0.144 HD
ATOM     16  H   UNL     1      33.737 -15.780 -24.860  0.00  0.00    +0.144 HD
ATOM     17  H   UNL     1      33.674 -18.422 -27.142  0.00  0.00    +0.188 HD
ENDBRANCH   9  14
BRANCH   3  20
ATOM     18  C   UNL     1      34.566 -23.179 -17.466  0.00  0.00    +0.172 C 
ATOM     19  C   UNL     1      34.374 -22.366 -18.579  0.00  0.00    +0.169 C 
ATOM     20  C   UNL     1      35.422 -21.572 -19.047  0.00  0.00    +0.050 C 
ATOM     21  C   UNL     1      35.796 -23.205 -16.816  0.00  0.00    +0.040 C 
ATOM     22  C   UNL     1      36.656 -21.594 -18.398  0.00  0.00    +0.004 C 
ATOM     23  C   UNL     1      36.844 -22.411 -17.283  0.00  0.00    +0.003 C 
BRANCH  19  24
ATOM     24  O   UNL     1      33.160 -22.355 -19.204  0.00  0.00    -0.503 OA
ATOM     25  H   UNL     1      32.494 -22.962 -18.945  0.00  0.00    +0.292 HD
ENDBRANCH  19  24
BRANCH  18  26
ATOM     26  O   UNL     1      33.547 -23.963 -16.997  0.00  0.00    -0.476 OA
BRANCH  26  28
ATOM     27  C   UNL     1      32.799 -24.286 -14.719  0.00  0.00    +0.040 C 
ATOM     28  C   UNL     1      32.726 -23.401 -15.976  0.00  0.00    +0.166 C 
ATOM     29  C   UNL     1      31.822 -23.789 -13.644  0.00  0.00    +0.004 C 
ATOM     30  C   UNL     1      31.293 -23.286 -16.500  0.00  0.00    +0.044 C 
ATOM     31  C   UNL     1      30.397 -23.677 -14.180  0.00  0.00    +0.000 C 
ATOM     32  C   UNL     1      30.332 -22.798 -15.424  0.00  0.00    +0.004 C 
ATOM     33  C   UNL     1      34.222 -24.344 -14.158  0.00  0.00    +0.004 C 
ENDBRANCH  26  28
ENDBRANCH  18  26
ENDBRANCH   3  20
TORSDOF 5
ENDMDL
