MODEL 1
REMARK VINA RESULT:     -11.5      0.000      0.000
REMARK  Name = 447994
REMARK  10 active torsions:
REMARK  status: ('A' for Active; 'I' for Inactive)
REMARK    1  A    between atoms: C_2  and  C_10
REMARK    2  A    between atoms: C_3  and  C_17
REMARK    3  A    between atoms: C_12  and  C_14
REMARK    4  A    between atoms: C_14  and  O_15
REMARK    5  A    between atoms: C_18  and  C_19
REMARK    6  A    between atoms: C_19  and  O_20
REMARK    7  A    between atoms: O_20  and  C_21
REMARK    8  A    between atoms: C_22  and  C_30
REMARK    9  A    between atoms: C_23  and  O_27
REMARK   10  A    between atoms: C_30  and  O_31
REMARK                            x       y       z     vdW  Elec       q    Type
REMARK                         _______ _______ _______ _____ _____    ______ ____
ROOT
ATOM      1  F   UNL     1      32.084 -20.457 -21.332  0.00  0.00    -0.204 F 
ATOM      2  C   UNL     1      34.428 -20.375 -20.944  0.00  0.00    +0.065 C 
ATOM      3  C   UNL     1      35.359 -21.659 -19.121  0.00  0.00    +0.000 C 
ATOM      4  C   UNL     1      35.531 -20.784 -20.193  0.00  0.00    +0.005 C 
ATOM      5  C   UNL     1      33.153 -20.841 -20.621  0.00  0.00    +0.143 C 
ATOM      6  C   UNL     1      34.084 -22.125 -18.799  0.00  0.00    +0.002 C 
ATOM      7  C   UNL     1      32.981 -21.716 -19.549  0.00  0.00    +0.030 C 
ENDROOT
BRANCH   2  10
ATOM      8  O   UNL     1      35.383 -18.388 -21.795  0.00  0.00    -0.353 OA
ATOM      9  N   UNL     1      35.469 -17.612 -22.945  0.00  0.00    -0.070 NA
ATOM     10  C   UNL     1      34.610 -19.470 -22.052  0.00  0.00    +0.179 C 
ATOM     11  C   UNL     1      34.175 -19.443 -23.344  0.00  0.00    +0.069 C 
ATOM     12  C   UNL     1      34.740 -18.263 -23.856  0.00  0.00    +0.198 C 
BRANCH  12  14
ATOM     13  O   UNL     1      34.875 -16.565 -25.514  0.00  0.00    -0.243 OA
ATOM     14  C   UNL     1      34.612 -17.732 -25.182  0.00  0.00    +0.359 C 
BRANCH  14  15
ATOM     15  O   UNL     1      34.159 -18.623 -26.123  0.00  0.00    -0.476 OA
ATOM     16  H   UNL     1      34.573 -18.670 -26.963  0.00  0.00    +0.295 HD
ENDBRANCH  14  15
ENDBRANCH  12  14
ENDBRANCH   2  10
BRANCH   3  17
ATOM     17  C   UNL     1      36.509 -22.087 -18.339  0.00  0.00    -0.001 C 
ATOM     18  C   UNL     1      36.556 -22.189 -16.991  0.00  0.00    +0.021 C 
BRANCH  18  19
ATOM     19  C   UNL     1      37.759 -22.648 -16.231  0.00  0.00    +0.232 C 
BRANCH  19  20
ATOM     20  O   UNL     1      37.567 -24.002 -15.848  0.00  0.00    -0.470 OA
BRANCH  20  21
ATOM     21  C   UNL     1      37.273 -24.237 -14.529  0.00  0.00    +0.148 C 
ATOM     22  C   UNL     1      37.321 -25.526 -14.010  0.00  0.00    +0.143 C 
ATOM     23  C   UNL     1      37.020 -25.742 -12.666  0.00  0.00    +0.143 C 
ATOM     24  C   UNL     1      36.928 -23.161 -13.719  0.00  0.00    +0.037 C 
ATOM     25  C   UNL     1      36.673 -24.667 -11.847  0.00  0.00    +0.037 C 
ATOM     26  C   UNL     1      36.627 -23.377 -12.375  0.00  0.00    +0.006 C 
BRANCH  23  27
ATOM     27  O   UNL     1      37.060 -26.995 -12.131  0.00  0.00    -0.505 OA
ATOM     28  H   UNL     1      36.481 -27.225 -11.431  0.00  0.00    +0.292 HD
ENDBRANCH  23  27
BRANCH  22  30
ATOM     29  O   UNL     1      36.963 -27.108 -15.759  0.00  0.00    -0.245 OA
ATOM     30  C   UNL     1      37.685 -26.651 -14.866  0.00  0.00    +0.347 C 
BRANCH  30  31
ATOM     31  O   UNL     1      38.925 -27.133 -14.554  0.00  0.00    -0.441 OA
ATOM     32  C   UNL     1      40.022 -26.226 -14.699  0.00  0.00    +0.256 C 
ENDBRANCH  30  31
ENDBRANCH  22  30
ENDBRANCH  20  21
ENDBRANCH  19  20
ENDBRANCH  18  19
ENDBRANCH   3  17
TORSDOF 10
ENDMDL
MODEL 2
REMARK VINA RESULT:     -11.5      5.909      6.865
REMARK  Name = 447994
REMARK  10 active torsions:
REMARK  status: ('A' for Active; 'I' for Inactive)
REMARK    1  A    between atoms: C_2  and  C_10
REMARK    2  A    between atoms: C_3  and  C_17
REMARK    3  A    between atoms: C_12  and  C_14
REMARK    4  A    between atoms: C_14  and  O_15
REMARK    5  A    between atoms: C_18  and  C_19
REMARK    6  A    between atoms: C_19  and  O_20
REMARK    7  A    between atoms: O_20  and  C_21
REMARK    8  A    between atoms: C_22  and  C_30
REMARK    9  A    between atoms: C_23  and  O_27
REMARK   10  A    between atoms: C_30  and  O_31
REMARK                            x       y       z     vdW  Elec       q    Type
REMARK                         _______ _______ _______ _____ _____    ______ ____
ROOT
ATOM      1  F   UNL     1      28.591 -25.533 -14.333  0.00  0.00    -0.204 F 
ATOM      2  C   UNL     1      29.903 -23.819 -15.332  0.00  0.00    +0.065 C 
ATOM      3  C   UNL     1      32.292 -23.814 -14.975  0.00  0.00    +0.000 C 
ATOM      4  C   UNL     1      31.155 -23.243 -15.545  0.00  0.00    +0.005 C 
ATOM      5  C   UNL     1      29.787 -24.967 -14.548  0.00  0.00    +0.143 C 
ATOM      6  C   UNL     1      32.177 -24.963 -14.191  0.00  0.00    +0.002 C 
ATOM      7  C   UNL     1      30.924 -25.539 -13.977  0.00  0.00    +0.030 C 
ENDROOT
BRANCH   2  10
ATOM      8  O   UNL     1      27.694 -23.019 -15.076  0.00  0.00    -0.353 OA
ATOM      9  N   UNL     1      26.642 -22.446 -15.780  0.00  0.00    -0.070 NA
ATOM     10  C   UNL     1      28.729 -23.225 -15.924  0.00  0.00    +0.179 C 
ATOM     11  C   UNL     1      28.402 -22.804 -17.179  0.00  0.00    +0.069 C 
ATOM     12  C   UNL     1      27.088 -22.327 -17.033  0.00  0.00    +0.198 C 
BRANCH  12  14
ATOM     13  O   UNL     1      25.843 -22.355 -19.057  0.00  0.00    -0.243 OA
ATOM     14  C   UNL     1      26.243 -21.760 -18.044  0.00  0.00    +0.359 C 
BRANCH  14  15
ATOM     15  O   UNL     1      25.875 -20.455 -17.829  0.00  0.00    -0.476 OA
ATOM     16  H   UNL     1      25.637 -19.910 -18.553  0.00  0.00    +0.295 HD
ENDBRANCH  14  15
ENDBRANCH  12  14
ENDBRANCH   2  10
BRANCH   3  17
ATOM     17  C   UNL     1      33.598 -23.214 -15.197  0.00  0.00    -0.001 C 
ATOM     18  C   UNL     1      34.579 -23.717 -15.982  0.00  0.00    +0.021 C 
BRANCH  18  19
ATOM     19  C   UNL     1      35.902 -23.055 -16.191  0.00  0.00    +0.232 C 
BRANCH  19  20
ATOM     20  O   UNL     1      36.922 -23.908 -15.691  0.00  0.00    -0.470 OA
BRANCH  20  21
ATOM     21  C   UNL     1      36.905 -24.172 -14.346  0.00  0.00    +0.148 C 
ATOM     22  C   UNL     1      36.994 -25.478 -13.877  0.00  0.00    +0.143 C 
ATOM     23  C   UNL     1      36.975 -25.723 -12.505  0.00  0.00    +0.143 C 
ATOM     24  C   UNL     1      36.799 -23.107 -13.456  0.00  0.00    +0.037 C 
ATOM     25  C   UNL     1      36.870 -24.661 -11.607  0.00  0.00    +0.037 C 
ATOM     26  C   UNL     1      36.782 -23.353 -12.084  0.00  0.00    +0.006 C 
BRANCH  23  27
ATOM     27  O   UNL     1      37.062 -26.994 -12.018  0.00  0.00    -0.505 OA
ATOM     28  H   UNL     1      37.576 -27.169 -11.255  0.00  0.00    +0.292 HD
ENDBRANCH  23  27
BRANCH  22  30
ATOM     29  O   UNL     1      36.221 -26.919 -15.614  0.00  0.00    -0.245 OA
ATOM     30  C   UNL     1      37.105 -26.590 -14.816  0.00  0.00    +0.347 C 
BRANCH  30  31
ATOM     31  O   UNL     1      38.312 -27.220 -14.700  0.00  0.00    -0.441 OA
ATOM     32  C   UNL     1      39.478 -26.394 -14.779  0.00  0.00    +0.256 C 
ENDBRANCH  30  31
ENDBRANCH  22  30
ENDBRANCH  20  21
ENDBRANCH  19  20
ENDBRANCH  18  19
ENDBRANCH   3  17
TORSDOF 10
ENDMDL
MODEL 3
REMARK VINA RESULT:     -11.2      2.639      3.563
REMARK  Name = 447994
REMARK  10 active torsions:
REMARK  status: ('A' for Active; 'I' for Inactive)
REMARK    1  A    between atoms: C_2  and  C_10
REMARK    2  A    between atoms: C_3  and  C_17
REMARK    3  A    between atoms: C_12  and  C_14
REMARK    4  A    between atoms: C_14  and  O_15
REMARK    5  A    between atoms: C_18  and  C_19
REMARK    6  A    between atoms: C_19  and  O_20
REMARK    7  A    between atoms: O_20  and  C_21
REMARK    8  A    between atoms: C_22  and  C_30
REMARK    9  A    between atoms: C_23  and  O_27
REMARK   10  A    between atoms: C_30  and  O_31
REMARK                            x       y       z     vdW  Elec       q    Type
REMARK                         _______ _______ _______ _____ _____    ______ ____
ROOT
ATOM      1  F   UNL     1      37.447 -18.054 -22.638  0.00  0.00    -0.204 F 
ATOM      2  C   UNL     1      35.276 -18.986 -22.366  0.00  0.00    +0.065 C 
ATOM      3  C   UNL     1      34.900 -20.578 -20.589  0.00  0.00    +0.000 C 
ATOM      4  C   UNL     1      34.421 -19.840 -21.670  0.00  0.00    +0.005 C 
ATOM      5  C   UNL     1      36.612 -18.870 -21.980  0.00  0.00    +0.143 C 
ATOM      6  C   UNL     1      36.236 -20.463 -20.203  0.00  0.00    +0.002 C 
ATOM      7  C   UNL     1      37.092 -19.609 -20.898  0.00  0.00    +0.030 C 
ENDROOT
BRANCH   2  10
ATOM      8  O   UNL     1      34.487 -18.944 -24.593  0.00  0.00    -0.353 OA
ATOM      9  N   UNL     1      34.019 -18.085 -25.580  0.00  0.00    -0.070 NA
ATOM     10  C   UNL     1      34.776 -18.223 -23.484  0.00  0.00    +0.179 C 
ATOM     11  C   UNL     1      34.515 -16.902 -23.698  0.00  0.00    +0.069 C 
ATOM     12  C   UNL     1      34.045 -16.871 -25.022  0.00  0.00    +0.198 C 
BRANCH  12  14
ATOM     13  O   UNL     1      33.808 -15.560 -26.990  0.00  0.00    -0.243 OA
ATOM     14  C   UNL     1      33.618 -15.728 -25.775  0.00  0.00    +0.359 C 
BRANCH  14  15
ATOM     15  O   UNL     1      32.952 -14.771 -25.050  0.00  0.00    -0.476 OA
ATOM     16  H   UNL     1      33.206 -14.591 -24.166  0.00  0.00    +0.295 HD
ENDBRANCH  14  15
ENDBRANCH  12  14
ENDBRANCH   2  10
BRANCH   3  17
ATOM     17  C   UNL     1      34.008 -21.469 -19.863  0.00  0.00    -0.001 C 
ATOM     18  C   UNL     1      34.362 -22.294 -18.851  0.00  0.00    +0.021 C 
BRANCH  18  19
ATOM     19  C   UNL     1      33.405 -23.183 -18.125  0.00  0.00    +0.232 C 
BRANCH  19  20
ATOM     20  O   UNL     1      34.114 -23.892 -17.119  0.00  0.00    -0.470 OA
BRANCH  20  21
ATOM     21  C   UNL     1      33.565 -23.901 -15.863  0.00  0.00    +0.148 C 
ATOM     22  C   UNL     1      34.283 -24.389 -14.777  0.00  0.00    +0.143 C 
ATOM     23  C   UNL     1      33.705 -24.388 -13.508  0.00  0.00    +0.143 C 
ATOM     24  C   UNL     1      32.273 -23.412 -15.694  0.00  0.00    +0.037 C 
ATOM     25  C   UNL     1      32.411 -23.899 -13.331  0.00  0.00    +0.037 C 
ATOM     26  C   UNL     1      31.696 -23.411 -14.425  0.00  0.00    +0.006 C 
BRANCH  23  27
ATOM     27  O   UNL     1      34.388 -24.858 -12.426  0.00  0.00    -0.505 OA
ATOM     28  H   UNL     1      34.485 -25.781 -12.298  0.00  0.00    +0.292 HD
ENDBRANCH  23  27
BRANCH  22  30
ATOM     29  O   UNL     1      35.905 -26.005 -15.445  0.00  0.00    -0.245 OA
ATOM     30  C   UNL     1      35.638 -24.899 -14.961  0.00  0.00    +0.347 C 
BRANCH  30  31
ATOM     31  O   UNL     1      36.572 -24.000 -14.533  0.00  0.00    -0.441 OA
ATOM     32  C   UNL     1      37.302 -23.299 -15.546  0.00  0.00    +0.256 C 
ENDBRANCH  30  31
ENDBRANCH  22  30
ENDBRANCH  20  21
ENDBRANCH  19  20
ENDBRANCH  18  19
ENDBRANCH   3  17
TORSDOF 10
ENDMDL
MODEL 4
REMARK VINA RESULT:     -11.1      3.503      4.447
REMARK  Name = 447994
REMARK  10 active torsions:
REMARK  status: ('A' for Active; 'I' for Inactive)
REMARK    1  A    between atoms: C_2  and  C_10
REMARK    2  A    between atoms: C_3  and  C_17
REMARK    3  A    between atoms: C_12  and  C_14
REMARK    4  A    between atoms: C_14  and  O_15
REMARK    5  A    between atoms: C_18  and  C_19
REMARK    6  A    between atoms: C_19  and  O_20
REMARK    7  A    between atoms: O_20  and  C_21
REMARK    8  A    between atoms: C_22  and  C_30
REMARK    9  A    between atoms: C_23  and  O_27
REMARK   10  A    between atoms: C_30  and  O_31
REMARK                            x       y       z     vdW  Elec       q    Type
REMARK                         _______ _______ _______ _____ _____    ______ ____
ROOT
ATOM      1  F   UNL     1      37.773 -18.646 -21.830  0.00  0.00    -0.204 F 
ATOM      2  C   UNL     1      35.534 -19.430 -21.670  0.00  0.00    +0.065 C 
ATOM      3  C   UNL     1      35.005 -21.139 -20.045  0.00  0.00    +0.000 C 
ATOM      4  C   UNL     1      34.604 -20.275 -21.063  0.00  0.00    +0.005 C 
ATOM      5  C   UNL     1      36.867 -19.451 -21.258  0.00  0.00    +0.143 C 
ATOM      6  C   UNL     1      36.338 -21.160 -19.634  0.00  0.00    +0.002 C 
ATOM      7  C   UNL     1      37.269 -20.316 -20.240  0.00  0.00    +0.030 C 
ENDROOT
BRANCH   2  10
ATOM      8  O   UNL     1      35.398 -17.229 -22.518  0.00  0.00    -0.353 OA
ATOM      9  N   UNL     1      34.939 -16.494 -23.605  0.00  0.00    -0.070 NA
ATOM     10  C   UNL     1      35.114 -18.537 -22.722  0.00  0.00    +0.179 C 
ATOM     11  C   UNL     1      34.478 -18.702 -23.917  0.00  0.00    +0.069 C 
ATOM     12  C   UNL     1      34.395 -17.395 -24.427  0.00  0.00    +0.198 C 
BRANCH  12  14
ATOM     13  O   UNL     1      34.094 -15.922 -26.267  0.00  0.00    -0.243 OA
ATOM     14  C   UNL     1      33.816 -16.974 -25.669  0.00  0.00    +0.359 C 
BRANCH  14  15
ATOM     15  O   UNL     1      32.885 -17.833 -26.198  0.00  0.00    -0.476 OA
ATOM     16  H   UNL     1      31.971 -17.683 -26.052  0.00  0.00    +0.295 HD
ENDBRANCH  14  15
ENDBRANCH  12  14
ENDBRANCH   2  10
BRANCH   3  17
ATOM     17  C   UNL     1      34.035 -22.019 -19.413  0.00  0.00    -0.001 C 
ATOM     18  C   UNL     1      34.202 -22.668 -18.238  0.00  0.00    +0.021 C 
BRANCH  18  19
ATOM     19  C   UNL     1      33.168 -23.553 -17.619  0.00  0.00    +0.232 C 
BRANCH  19  20
ATOM     20  O   UNL     1      32.828 -23.034 -16.342  0.00  0.00    -0.470 OA
BRANCH  20  21
ATOM     21  C   UNL     1      31.725 -23.568 -15.729  0.00  0.00    +0.148 C 
ATOM     22  C   UNL     1      31.838 -24.225 -14.509  0.00  0.00    +0.143 C 
ATOM     23  C   UNL     1      30.702 -24.760 -13.903  0.00  0.00    +0.143 C 
ATOM     24  C   UNL     1      30.487 -23.440 -16.351  0.00  0.00    +0.037 C 
ATOM     25  C   UNL     1      29.458 -24.635 -14.520  0.00  0.00    +0.037 C 
ATOM     26  C   UNL     1      29.351 -23.975 -15.744  0.00  0.00    +0.006 C 
BRANCH  23  27
ATOM     27  O   UNL     1      30.785 -25.408 -12.706  0.00  0.00    -0.505 OA
ATOM     28  H   UNL     1      30.141 -25.251 -12.043  0.00  0.00    +0.292 HD
ENDBRANCH  23  27
BRANCH  22  30
ATOM     29  O   UNL     1      33.424 -23.861 -12.765  0.00  0.00    -0.245 OA
ATOM     30  C   UNL     1      33.140 -24.355 -13.862  0.00  0.00    +0.347 C 
BRANCH  30  31
ATOM     31  O   UNL     1      34.002 -25.093 -14.622  0.00  0.00    -0.441 OA
ATOM     32  C   UNL     1      35.377 -24.694 -14.603  0.00  0.00    +0.256 C 
ENDBRANCH  30  31
ENDBRANCH  22  30
ENDBRANCH  20  21
ENDBRANCH  19  20
ENDBRANCH  18  19
ENDBRANCH   3  17
TORSDOF 10
ENDMDL
MODEL 5
REMARK VINA RESULT:     -11.0      1.249      2.289
REMARK  Name = 447994
REMARK  10 active torsions:
REMARK  status: ('A' for Active; 'I' for Inactive)
REMARK    1  A    between atoms: C_2  and  C_10
REMARK    2  A    between atoms: C_3  and  C_17
REMARK    3  A    between atoms: C_12  and  C_14
REMARK    4  A    between atoms: C_14  and  O_15
REMARK    5  A    between atoms: C_18  and  C_19
REMARK    6  A    between atoms: C_19  and  O_20
REMARK    7  A    between atoms: O_20  and  C_21
REMARK    8  A    between atoms: C_22  and  C_30
REMARK    9  A    between atoms: C_23  and  O_27
REMARK   10  A    between atoms: C_30  and  O_31
REMARK                            x       y       z     vdW  Elec       q    Type
REMARK                         _______ _______ _______ _____ _____    ______ ____
ROOT
ATOM      1  F   UNL     1      32.120 -20.431 -21.309  0.00  0.00    -0.204 F 
ATOM      2  C   UNL     1      34.473 -20.357 -20.969  0.00  0.00    +0.065 C 
ATOM      3  C   UNL     1      35.437 -21.654 -19.173  0.00  0.00    +0.000 C 
ATOM      4  C   UNL     1      35.589 -20.774 -20.243  0.00  0.00    +0.005 C 
ATOM      5  C   UNL     1      33.203 -20.822 -20.623  0.00  0.00    +0.143 C 
ATOM      6  C   UNL     1      34.168 -22.118 -18.827  0.00  0.00    +0.002 C 
ATOM      7  C   UNL     1      33.051 -21.702 -19.552  0.00  0.00    +0.030 C 
ENDROOT
BRANCH   2  10
ATOM      8  O   UNL     1      35.373 -18.342 -21.814  0.00  0.00    -0.353 OA
ATOM      9  N   UNL     1      35.443 -17.564 -22.963  0.00  0.00    -0.070 NA
ATOM     10  C   UNL     1      34.634 -19.447 -22.076  0.00  0.00    +0.179 C 
ATOM     11  C   UNL     1      34.206 -19.433 -23.371  0.00  0.00    +0.069 C 
ATOM     12  C   UNL     1      34.739 -18.236 -23.879  0.00  0.00    +0.198 C 
BRANCH  12  14
ATOM     13  O   UNL     1      34.827 -16.532 -25.534  0.00  0.00    -0.243 OA
ATOM     14  C   UNL     1      34.604 -17.709 -25.205  0.00  0.00    +0.359 C 
BRANCH  14  15
ATOM     15  O   UNL     1      34.191 -18.614 -26.151  0.00  0.00    -0.476 OA
ATOM     16  H   UNL     1      34.807 -19.209 -26.532  0.00  0.00    +0.295 HD
ENDBRANCH  14  15
ENDBRANCH  12  14
ENDBRANCH   2  10
BRANCH   3  17
ATOM     17  C   UNL     1      36.601 -22.089 -18.417  0.00  0.00    -0.001 C 
ATOM     18  C   UNL     1      36.687 -22.166 -17.069  0.00  0.00    +0.021 C 
BRANCH  18  19
ATOM     19  C   UNL     1      37.903 -22.633 -16.336  0.00  0.00    +0.232 C 
BRANCH  19  20
ATOM     20  O   UNL     1      37.553 -22.879 -14.982  0.00  0.00    -0.470 OA
BRANCH  20  21
ATOM     21  C   UNL     1      37.896 -24.102 -14.465  0.00  0.00    +0.148 C 
ATOM     22  C   UNL     1      37.147 -24.677 -13.445  0.00  0.00    +0.143 C 
ATOM     23  C   UNL     1      37.513 -25.922 -12.935  0.00  0.00    +0.143 C 
ATOM     24  C   UNL     1      39.007 -24.759 -14.983  0.00  0.00    +0.037 C 
ATOM     25  C   UNL     1      38.626 -26.586 -13.449  0.00  0.00    +0.037 C 
ATOM     26  C   UNL     1      39.373 -26.004 -14.473  0.00  0.00    +0.006 C 
BRANCH  23  27
ATOM     27  O   UNL     1      36.795 -26.510 -11.936  0.00  0.00    -0.505 OA
ATOM     28  H   UNL     1      36.575 -27.419 -11.989  0.00  0.00    +0.292 HD
ENDBRANCH  23  27
BRANCH  22  30
ATOM     29  O   UNL     1      35.901 -23.547 -11.754  0.00  0.00    -0.245 OA
ATOM     30  C   UNL     1      35.980 -23.983 -12.907  0.00  0.00    +0.347 C 
BRANCH  30  31
ATOM     31  O   UNL     1      34.989 -23.877 -13.841  0.00  0.00    -0.441 OA
ATOM     32  C   UNL     1      33.689 -24.334 -13.453  0.00  0.00    +0.256 C 
ENDBRANCH  30  31
ENDBRANCH  22  30
ENDBRANCH  20  21
ENDBRANCH  19  20
ENDBRANCH  18  19
ENDBRANCH   3  17
TORSDOF 10
ENDMDL
MODEL 6
REMARK VINA RESULT:     -10.7      6.093      7.219
REMARK  Name = 447994
REMARK  10 active torsions:
REMARK  status: ('A' for Active; 'I' for Inactive)
REMARK    1  A    between atoms: C_2  and  C_10
REMARK    2  A    between atoms: C_3  and  C_17
REMARK    3  A    between atoms: C_12  and  C_14
REMARK    4  A    between atoms: C_14  and  O_15
REMARK    5  A    between atoms: C_18  and  C_19
REMARK    6  A    between atoms: C_19  and  O_20
REMARK    7  A    between atoms: O_20  and  C_21
REMARK    8  A    between atoms: C_22  and  C_30
REMARK    9  A    between atoms: C_23  and  O_27
REMARK   10  A    between atoms: C_30  and  O_31
REMARK                            x       y       z     vdW  Elec       q    Type
REMARK                         _______ _______ _______ _____ _____    ______ ____
ROOT
ATOM      1  F   UNL     1      28.453 -25.659 -14.511  0.00  0.00    -0.204 F 
ATOM      2  C   UNL     1      29.798 -23.878 -15.332  0.00  0.00    +0.065 C 
ATOM      3  C   UNL     1      32.170 -23.894 -14.871  0.00  0.00    +0.000 C 
ATOM      4  C   UNL     1      31.056 -23.287 -15.450  0.00  0.00    +0.005 C 
ATOM      5  C   UNL     1      29.655 -25.078 -14.633  0.00  0.00    +0.143 C 
ATOM      6  C   UNL     1      32.026 -25.093 -14.172  0.00  0.00    +0.002 C 
ATOM      7  C   UNL     1      30.769 -25.685 -14.054  0.00  0.00    +0.030 C 
ENDROOT
BRANCH   2  10
ATOM      8  O   UNL     1      27.616 -23.004 -15.091  0.00  0.00    -0.353 OA
ATOM      9  N   UNL     1      26.588 -22.398 -15.803  0.00  0.00    -0.070 NA
ATOM     10  C   UNL     1      28.649 -23.248 -15.933  0.00  0.00    +0.179 C 
ATOM     11  C   UNL     1      28.343 -22.821 -17.191  0.00  0.00    +0.069 C 
ATOM     12  C   UNL     1      27.045 -22.299 -17.054  0.00  0.00    +0.198 C 
BRANCH  12  14
ATOM     13  O   UNL     1      25.810 -22.294 -19.085  0.00  0.00    -0.243 OA
ATOM     14  C   UNL     1      26.225 -21.709 -18.072  0.00  0.00    +0.359 C 
BRANCH  14  15
ATOM     15  O   UNL     1      25.901 -20.391 -17.865  0.00  0.00    -0.476 OA
ATOM     16  H   UNL     1      25.817 -19.808 -18.594  0.00  0.00    +0.295 HD
ENDBRANCH  14  15
ENDBRANCH  12  14
ENDBRANCH   2  10
BRANCH   3  17
ATOM     17  C   UNL     1      33.482 -23.277 -14.994  0.00  0.00    -0.001 C 
ATOM     18  C   UNL     1      34.477 -23.689 -15.812  0.00  0.00    +0.021 C 
BRANCH  18  19
ATOM     19  C   UNL     1      35.806 -23.012 -15.914  0.00  0.00    +0.232 C 
BRANCH  19  20
ATOM     20  O   UNL     1      36.425 -23.026 -14.636  0.00  0.00    -0.470 OA
BRANCH  20  21
ATOM     21  C   UNL     1      37.134 -24.151 -14.303  0.00  0.00    +0.148 C 
ATOM     22  C   UNL     1      36.822 -24.876 -13.158  0.00  0.00    +0.143 C 
ATOM     23  C   UNL     1      37.556 -26.017 -12.839  0.00  0.00    +0.143 C 
ATOM     24  C   UNL     1      38.175 -24.555 -15.133  0.00  0.00    +0.037 C 
ATOM     25  C   UNL     1      38.600 -26.429 -13.668  0.00  0.00    +0.037 C 
ATOM     26  C   UNL     1      38.909 -25.697 -14.815  0.00  0.00    +0.006 C 
BRANCH  23  27
ATOM     27  O   UNL     1      37.270 -26.747 -11.724  0.00  0.00    -0.505 OA
ATOM     28  H   UNL     1      37.963 -27.131 -11.225  0.00  0.00    +0.292 HD
ENDBRANCH  23  27
BRANCH  22  30
ATOM     29  O   UNL     1      34.704 -25.105 -12.085  0.00  0.00    -0.245 OA
ATOM     30  C   UNL     1      35.729 -24.446 -12.291  0.00  0.00    +0.347 C 
BRANCH  30  31
ATOM     31  O   UNL     1      35.983 -23.224 -11.737  0.00  0.00    -0.441 OA
ATOM     32  C   UNL     1      37.148 -23.123 -10.911  0.00  0.00    +0.256 C 
ENDBRANCH  30  31
ENDBRANCH  22  30
ENDBRANCH  20  21
ENDBRANCH  19  20
ENDBRANCH  18  19
ENDBRANCH   3  17
TORSDOF 10
ENDMDL
MODEL 7
REMARK VINA RESULT:     -10.6      1.510      2.015
REMARK  Name = 447994
REMARK  10 active torsions:
REMARK  status: ('A' for Active; 'I' for Inactive)
REMARK    1  A    between atoms: C_2  and  C_10
REMARK    2  A    between atoms: C_3  and  C_17
REMARK    3  A    between atoms: C_12  and  C_14
REMARK    4  A    between atoms: C_14  and  O_15
REMARK    5  A    between atoms: C_18  and  C_19
REMARK    6  A    between atoms: C_19  and  O_20
REMARK    7  A    between atoms: O_20  and  C_21
REMARK    8  A    between atoms: C_22  and  C_30
REMARK    9  A    between atoms: C_23  and  O_27
REMARK   10  A    between atoms: C_30  and  O_31
REMARK                            x       y       z     vdW  Elec       q    Type
REMARK                         _______ _______ _______ _____ _____    ______ ____
ROOT
ATOM      1  F   UNL     1      32.166 -20.484 -21.278  0.00  0.00    -0.204 F 
ATOM      2  C   UNL     1      34.496 -20.364 -20.823  0.00  0.00    +0.065 C 
ATOM      3  C   UNL     1      35.409 -21.698 -19.027  0.00  0.00    +0.000 C 
ATOM      4  C   UNL     1      35.587 -20.778 -20.059  0.00  0.00    +0.005 C 
ATOM      5  C   UNL     1      33.225 -20.871 -20.554  0.00  0.00    +0.143 C 
ATOM      6  C   UNL     1      34.137 -22.206 -18.758  0.00  0.00    +0.002 C 
ATOM      7  C   UNL     1      33.045 -21.792 -19.522  0.00  0.00    +0.030 C 
ENDROOT
BRANCH   2  10
ATOM      8  O   UNL     1      35.316 -18.266 -21.537  0.00  0.00    -0.353 OA
ATOM      9  N   UNL     1      35.429 -17.451 -22.657  0.00  0.00    -0.070 NA
ATOM     10  C   UNL     1      34.686 -19.412 -21.889  0.00  0.00    +0.179 C 
ATOM     11  C   UNL     1      34.372 -19.389 -23.216  0.00  0.00    +0.069 C 
ATOM     12  C   UNL     1      34.858 -18.143 -23.647  0.00  0.00    +0.198 C 
BRANCH  12  14
ATOM     13  O   UNL     1      34.330 -18.160 -25.964  0.00  0.00    -0.243 OA
ATOM     14  C   UNL     1      34.800 -17.588 -24.968  0.00  0.00    +0.359 C 
BRANCH  14  15
ATOM     15  O   UNL     1      35.319 -16.322 -25.089  0.00  0.00    -0.476 OA
ATOM     16  H   UNL     1      35.553 -15.990 -25.934  0.00  0.00    +0.295 HD
ENDBRANCH  14  15
ENDBRANCH  12  14
ENDBRANCH   2  10
BRANCH   3  17
ATOM     17  C   UNL     1      36.546 -22.130 -18.230  0.00  0.00    -0.001 C 
ATOM     18  C   UNL     1      36.532 -22.392 -16.903  0.00  0.00    +0.021 C 
BRANCH  18  19
ATOM     19  C   UNL     1      37.726 -22.848 -16.129  0.00  0.00    +0.232 C 
BRANCH  19  20
ATOM     20  O   UNL     1      37.424 -24.093 -15.516  0.00  0.00    -0.470 OA
BRANCH  20  21
ATOM     21  C   UNL     1      36.259 -24.161 -14.795  0.00  0.00    +0.148 C 
ATOM     22  C   UNL     1      36.280 -24.129 -13.406  0.00  0.00    +0.143 C 
ATOM     23  C   UNL     1      35.084 -24.200 -12.694  0.00  0.00    +0.143 C 
ATOM     24  C   UNL     1      35.053 -24.263 -15.482  0.00  0.00    +0.037 C 
ATOM     25  C   UNL     1      33.871 -24.301 -13.375  0.00  0.00    +0.037 C 
ATOM     26  C   UNL     1      33.857 -24.332 -14.770  0.00  0.00    +0.006 C 
BRANCH  23  27
ATOM     27  O   UNL     1      35.076 -24.169 -11.331  0.00  0.00    -0.505 OA
ATOM     28  H   UNL     1      35.632 -23.570 -10.872  0.00  0.00    +0.292 HD
ENDBRANCH  23  27
BRANCH  22  30
ATOM     29  O   UNL     1      38.157 -22.962 -12.508  0.00  0.00    -0.245 OA
ATOM     30  C   UNL     1      37.549 -24.022 -12.692  0.00  0.00    +0.347 C 
BRANCH  30  31
ATOM     31  O   UNL     1      37.978 -25.242 -12.252  0.00  0.00    -0.441 OA
ATOM     32  C   UNL     1      38.956 -25.908 -13.057  0.00  0.00    +0.256 C 
ENDBRANCH  30  31
ENDBRANCH  22  30
ENDBRANCH  20  21
ENDBRANCH  19  20
ENDBRANCH  18  19
ENDBRANCH   3  17
TORSDOF 10
ENDMDL
MODEL 8
REMARK VINA RESULT:     -10.6      2.950     10.918
REMARK  Name = 447994
REMARK  10 active torsions:
REMARK  status: ('A' for Active; 'I' for Inactive)
REMARK    1  A    between atoms: C_2  and  C_10
REMARK    2  A    between atoms: C_3  and  C_17
REMARK    3  A    between atoms: C_12  and  C_14
REMARK    4  A    between atoms: C_14  and  O_15
REMARK    5  A    between atoms: C_18  and  C_19
REMARK    6  A    between atoms: C_19  and  O_20
REMARK    7  A    between atoms: O_20  and  C_21
REMARK    8  A    between atoms: C_22  and  C_30
REMARK    9  A    between atoms: C_23  and  O_27
REMARK   10  A    between atoms: C_30  and  O_31
REMARK                            x       y       z     vdW  Elec       q    Type
REMARK                         _______ _______ _______ _____ _____    ______ ____
ROOT
ATOM      1  F   UNL     1      33.629 -23.908 -16.334  0.00  0.00    -0.204 F 
ATOM      2  C   UNL     1      35.564 -22.751 -17.091  0.00  0.00    +0.065 C 
ATOM      3  C   UNL     1      35.520 -21.692 -19.262  0.00  0.00    +0.000 C 
ATOM      4  C   UNL     1      36.197 -22.003 -18.083  0.00  0.00    +0.005 C 
ATOM      5  C   UNL     1      34.252 -23.188 -17.277  0.00  0.00    +0.143 C 
ATOM      6  C   UNL     1      34.208 -22.130 -19.449  0.00  0.00    +0.002 C 
ATOM      7  C   UNL     1      33.574 -22.878 -18.456  0.00  0.00    +0.030 C 
ENDROOT
BRANCH   2  10
ATOM      8  O   UNL     1      37.529 -23.532 -16.037  0.00  0.00    -0.353 OA
ATOM      9  N   UNL     1      38.079 -23.795 -14.788  0.00  0.00    -0.070 NA
ATOM     10  C   UNL     1      36.267 -23.070 -15.873  0.00  0.00    +0.179 C 
ATOM     11  C   UNL     1      35.954 -23.013 -14.546  0.00  0.00    +0.069 C 
ATOM     12  C   UNL     1      37.121 -23.477 -13.914  0.00  0.00    +0.198 C 
BRANCH  12  14
ATOM     13  O   UNL     1      36.852 -24.505 -11.788  0.00  0.00    -0.243 OA
ATOM     14  C   UNL     1      37.356 -23.628 -12.508  0.00  0.00    +0.359 C 
BRANCH  14  15
ATOM     15  O   UNL     1      38.211 -22.704 -11.960  0.00  0.00    -0.476 OA
ATOM     16  H   UNL     1      39.056 -22.563 -12.340  0.00  0.00    +0.295 HD
ENDBRANCH  14  15
ENDBRANCH  12  14
ENDBRANCH   2  10
BRANCH   3  17
ATOM     17  C   UNL     1      36.180 -20.913 -20.297  0.00  0.00    -0.001 C 
ATOM     18  C   UNL     1      35.749 -19.732 -20.796  0.00  0.00    +0.021 C 
BRANCH  18  19
ATOM     19  C   UNL     1      36.472 -18.958 -21.852  0.00  0.00    +0.232 C 
BRANCH  19  20
ATOM     20  O   UNL     1      35.526 -18.496 -22.806  0.00  0.00    -0.470 OA
BRANCH  20  21
ATOM     21  C   UNL     1      35.123 -17.190 -22.696  0.00  0.00    +0.148 C 
ATOM     22  C   UNL     1      34.539 -16.534 -23.774  0.00  0.00    +0.143 C 
ATOM     23  C   UNL     1      34.137 -15.206 -23.639  0.00  0.00    +0.143 C 
ATOM     24  C   UNL     1      35.309 -16.533 -21.484  0.00  0.00    +0.037 C 
ATOM     25  C   UNL     1      34.319 -14.541 -22.427  0.00  0.00    +0.037 C 
ATOM     26  C   UNL     1      34.905 -15.205 -21.350  0.00  0.00    +0.006 C 
BRANCH  23  27
ATOM     27  O   UNL     1      33.560 -14.539 -24.679  0.00  0.00    -0.505 OA
ATOM     28  H   UNL     1      33.415 -13.615 -24.621  0.00  0.00    +0.292 HD
ENDBRANCH  23  27
BRANCH  22  30
ATOM     29  O   UNL     1      34.906 -16.917 -26.099  0.00  0.00    -0.245 OA
ATOM     30  C   UNL     1      34.347 -17.230 -25.042  0.00  0.00    +0.347 C 
BRANCH  30  31
ATOM     31  O   UNL     1      33.472 -18.270 -24.912  0.00  0.00    -0.441 OA
ATOM     32  C   UNL     1      33.791 -19.471 -25.624  0.00  0.00    +0.256 C 
ENDBRANCH  30  31
ENDBRANCH  22  30
ENDBRANCH  20  21
ENDBRANCH  19  20
ENDBRANCH  18  19
ENDBRANCH   3  17
TORSDOF 10
ENDMDL
MODEL 9
REMARK VINA RESULT:     -10.6      2.988     11.254
REMARK  Name = 447994
REMARK  10 active torsions:
REMARK  status: ('A' for Active; 'I' for Inactive)
REMARK    1  A    between atoms: C_2  and  C_10
REMARK    2  A    between atoms: C_3  and  C_17
REMARK    3  A    between atoms: C_12  and  C_14
REMARK    4  A    between atoms: C_14  and  O_15
REMARK    5  A    between atoms: C_18  and  C_19
REMARK    6  A    between atoms: C_19  and  O_20
REMARK    7  A    between atoms: O_20  and  C_21
REMARK    8  A    between atoms: C_22  and  C_30
REMARK    9  A    between atoms: C_23  and  O_27
REMARK   10  A    between atoms: C_30  and  O_31
REMARK                            x       y       z     vdW  Elec       q    Type
REMARK                         _______ _______ _______ _____ _____    ______ ____
ROOT
ATOM      1  F   UNL     1      33.727 -24.120 -15.696  0.00  0.00    -0.204 F 
ATOM      2  C   UNL     1      35.608 -22.986 -16.608  0.00  0.00    +0.065 C 
ATOM      3  C   UNL     1      35.425 -21.992 -18.802  0.00  0.00    +0.000 C 
ATOM      4  C   UNL     1      36.176 -22.268 -17.660  0.00  0.00    +0.005 C 
ATOM      5  C   UNL     1      34.287 -23.428 -16.698  0.00  0.00    +0.143 C 
ATOM      6  C   UNL     1      34.105 -22.434 -18.892  0.00  0.00    +0.002 C 
ATOM      7  C   UNL     1      33.536 -23.152 -17.840  0.00  0.00    +0.030 C 
ENDROOT
BRANCH   2  10
ATOM      8  O   UNL     1      37.558 -23.914 -15.649  0.00  0.00    -0.353 OA
ATOM      9  N   UNL     1      38.197 -24.118 -14.431  0.00  0.00    -0.070 NA
ATOM     10  C   UNL     1      36.388 -23.270 -15.428  0.00  0.00    +0.179 C 
ATOM     11  C   UNL     1      36.223 -23.034 -14.095  0.00  0.00    +0.069 C 
ATOM     12  C   UNL     1      37.381 -23.584 -13.519  0.00  0.00    +0.198 C 
BRANCH  12  14
ATOM     13  O   UNL     1      37.583 -24.591 -11.376  0.00  0.00    -0.243 OA
ATOM     14  C   UNL     1      37.739 -23.618 -12.131  0.00  0.00    +0.359 C 
BRANCH  14  15
ATOM     15  O   UNL     1      38.293 -22.460 -11.645  0.00  0.00    -0.476 OA
ATOM     16  H   UNL     1      38.702 -22.453 -10.801  0.00  0.00    +0.295 HD
ENDBRANCH  14  15
ENDBRANCH  12  14
ENDBRANCH   2  10
BRANCH   3  17
ATOM     17  C   UNL     1      36.017 -21.243 -19.899  0.00  0.00    -0.001 C 
ATOM     18  C   UNL     1      35.440 -20.211 -20.557  0.00  0.00    +0.021 C 
BRANCH  18  19
ATOM     19  C   UNL     1      36.096 -19.461 -21.672  0.00  0.00    +0.232 C 
BRANCH  19  20
ATOM     20  O   UNL     1      35.236 -18.408 -22.081  0.00  0.00    -0.470 OA
BRANCH  20  21
ATOM     21  C   UNL     1      34.809 -18.427 -23.383  0.00  0.00    +0.148 C 
ATOM     22  C   UNL     1      34.560 -17.242 -24.067  0.00  0.00    +0.143 C 
ATOM     23  C   UNL     1      34.128 -17.285 -25.392  0.00  0.00    +0.143 C 
ATOM     24  C   UNL     1      34.629 -19.656 -24.010  0.00  0.00    +0.037 C 
ATOM     25  C   UNL     1      33.946 -18.513 -26.027  0.00  0.00    +0.037 C 
ATOM     26  C   UNL     1      34.197 -19.699 -25.335  0.00  0.00    +0.006 C 
BRANCH  23  27
ATOM     27  O   UNL     1      33.879 -16.139 -26.086  0.00  0.00    -0.505 OA
ATOM     28  H   UNL     1      33.649 -15.354 -25.628  0.00  0.00    +0.292 HD
ENDBRANCH  23  27
BRANCH  22  30
ATOM     29  O   UNL     1      35.690 -15.700 -22.640  0.00  0.00    -0.245 OA
ATOM     30  C   UNL     1      34.752 -15.956 -23.403  0.00  0.00    +0.347 C 
BRANCH  30  31
ATOM     31  O   UNL     1      33.764 -15.073 -23.734  0.00  0.00    -0.441 OA
ATOM     32  C   UNL     1      33.996 -13.698 -23.408  0.00  0.00    +0.256 C 
ENDBRANCH  30  31
ENDBRANCH  22  30
ENDBRANCH  20  21
ENDBRANCH  19  20
ENDBRANCH  18  19
ENDBRANCH   3  17
TORSDOF 10
ENDMDL
