MODEL 1
REMARK VINA RESULT:     -12.0      0.000      0.000
REMARK  Name = 5497056
REMARK  11 active torsions:
REMARK  status: ('A' for Active; 'I' for Inactive)
REMARK    1  A    between atoms: N_2  and  C_22
REMARK    2  A    between atoms: C_3  and  C_5
REMARK    3  A    between atoms: C_8  and  C_11
REMARK    4  A    between atoms: C_13  and  C_17
REMARK    5  A    between atoms: C_17  and  N_18
REMARK    6  A    between atoms: C_22  and  C_24
REMARK    7  A    between atoms: C_24  and  C_26
REMARK    8  A    between atoms: C_24  and  C_29
REMARK    9  A    between atoms: C_26  and  O_27
REMARK   10  A    between atoms: C_29  and  C_30
REMARK   11  A    between atoms: C_33  and  C_38
REMARK                            x       y       z     vdW  Elec       q    Type
REMARK                         _______ _______ _______ _____ _____    ______ ____
ROOT
ATOM      1  O   UNL     1      33.765 -24.498 -18.822  0.00  0.00    -0.270 OA
ATOM      2  N   UNL     1      33.687 -23.012 -17.043  0.00  0.00    -0.302 N 
ATOM      3  C   UNL     1      33.814 -23.353 -18.381  0.00  0.00    +0.246 C 
ATOM      4  H   UNL     1      33.741 -22.063 -16.789  0.00  0.00    +0.150 HD
ENDROOT
BRANCH   3   5
ATOM      5  C   UNL     1      34.053 -22.225 -19.317  0.00  0.00    +0.053 C 
ATOM      6  C   UNL     1      35.357 -21.871 -19.665  0.00  0.00    +0.005 C 
ATOM      7  C   UNL     1      32.974 -21.519 -19.850  0.00  0.00    +0.005 C 
ATOM      8  C   UNL     1      34.503 -20.106 -21.076  0.00  0.00    -0.000 C 
ATOM      9  C   UNL     1      35.582 -20.811 -20.544  0.00  0.00    +0.000 C 
ATOM     10  C   UNL     1      33.199 -20.460 -20.729  0.00  0.00    +0.000 C 
BRANCH   8  11
ATOM     11  C   UNL     1      34.737 -19.008 -21.989  0.00  0.00    -0.000 C 
ATOM     12  C   UNL     1      34.308 -19.097 -23.313  0.00  0.00    -0.006 C 
ATOM     13  C   UNL     1      34.534 -18.038 -24.192  0.00  0.00    -0.044 C 
ATOM     14  C   UNL     1      35.393 -17.860 -21.543  0.00  0.00    -0.000 C 
ATOM     15  C   UNL     1      35.190 -16.890 -23.747  0.00  0.00    -0.006 C 
ATOM     16  C   UNL     1      35.619 -16.801 -22.422  0.00  0.00    -0.000 C 
BRANCH  13  17
ATOM     17  C   UNL     1      34.074 -18.132 -25.607  0.00  0.00    -0.059 C 
BRANCH  17  18
ATOM     18  N   UNL     1      32.738 -18.720 -25.722  0.00  0.00    +0.383 N 
ATOM     19  H   UNL     1      32.064 -17.989 -25.947  0.00  0.00    -0.089 HD
ATOM     20  H   UNL     1      32.482 -19.159 -24.838  0.00  0.00    -0.089 HD
ATOM     21  H   UNL     1      32.739 -19.422 -26.462  0.00  0.00    -0.089 HD
ENDBRANCH  17  18
ENDBRANCH  13  17
ENDBRANCH   8  11
ENDBRANCH   3   5
BRANCH   2  22
ATOM     22  C   UNL     1      33.476 -23.999 -16.009  0.00  0.00    +0.083 C 
ATOM     23  C   UNL     1      32.182 -23.701 -15.255  0.00  0.00    +0.022 C 
BRANCH  22  24
ATOM     24  C   UNL     1      34.690 -24.134 -15.063  0.00  0.00    +0.121 C 
BRANCH  24  26
ATOM     25  O   UNL     1      35.860 -22.053 -14.575  0.00  0.00    -0.250 OA
ATOM     26  C   UNL     1      35.708 -23.025 -15.304  0.00  0.00    +0.319 C 
BRANCH  26  27
ATOM     27  O   UNL     1      36.410 -23.285 -16.445  0.00  0.00    -0.444 OA
ATOM     28  C   UNL     1      37.483 -22.381 -16.728  0.00  0.00    +0.256 C 
ENDBRANCH  26  27
ENDBRANCH  24  26
BRANCH  24  29
ATOM     29  C   UNL     1      35.373 -25.511 -15.191  0.00  0.00    +0.039 C 
BRANCH  29  30
ATOM     30  C   UNL     1      36.604 -25.638 -14.323  0.00  0.00    -0.021 C 
ATOM     31  C   UNL     1      37.835 -25.946 -14.900  0.00  0.00    -0.002 C 
ATOM     32  C   UNL     1      36.507 -25.449 -12.945  0.00  0.00    -0.004 C 
ATOM     33  C   UNL     1      38.971 -26.065 -14.099  0.00  0.00    +0.030 C 
ATOM     34  C   UNL     1      37.643 -25.568 -12.143  0.00  0.00    -0.000 C 
ATOM     35  C   UNL     1      38.875 -25.876 -12.719  0.00  0.00    +0.003 C 
BRANCH  33  38
ATOM     36  N   UNL     1      41.227 -27.097 -13.996  0.00  0.00    -0.343 N 
ATOM     37  N   UNL     1      40.518 -26.004 -15.936  0.00  0.00    -0.285 NA
ATOM     38  C   UNL     1      40.255 -26.388 -14.700  0.00  0.00    +0.117 C 
ATOM     39  H   UNL     1      42.090 -27.304 -14.422  0.00  0.00    +0.144 HD
ATOM     40  H   UNL     1      41.052 -27.389 -13.072  0.00  0.00    +0.144 HD
ATOM     41  H   UNL     1      41.387 -26.222 -16.344  0.00  0.00    +0.188 HD
ENDBRANCH  33  38
ENDBRANCH  29  30
ENDBRANCH  24  29
ENDBRANCH  22  24
ENDBRANCH   2  22
TORSDOF 11
ENDMDL
MODEL 2
REMARK VINA RESULT:     -11.4      1.766      2.879
REMARK  Name = 5497056
REMARK  11 active torsions:
REMARK  status: ('A' for Active; 'I' for Inactive)
REMARK    1  A    between atoms: N_2  and  C_22
REMARK    2  A    between atoms: C_3  and  C_5
REMARK    3  A    between atoms: C_8  and  C_11
REMARK    4  A    between atoms: C_13  and  C_17
REMARK    5  A    between atoms: C_17  and  N_18
REMARK    6  A    between atoms: C_22  and  C_24
REMARK    7  A    between atoms: C_24  and  C_26
REMARK    8  A    between atoms: C_24  and  C_29
REMARK    9  A    between atoms: C_26  and  O_27
REMARK   10  A    between atoms: C_29  and  C_30
REMARK   11  A    between atoms: C_33  and  C_38
REMARK                            x       y       z     vdW  Elec       q    Type
REMARK                         _______ _______ _______ _____ _____    ______ ____
ROOT
ATOM      1  O   UNL     1      33.817 -24.420 -18.260  0.00  0.00    -0.270 OA
ATOM      2  N   UNL     1      32.437 -22.935 -17.134  0.00  0.00    -0.302 N 
ATOM      3  C   UNL     1      33.319 -23.304 -18.139  0.00  0.00    +0.246 C 
ATOM      4  H   UNL     1      32.091 -22.013 -17.122  0.00  0.00    +0.150 HD
ENDROOT
BRANCH   3   5
ATOM      5  C   UNL     1      33.683 -22.237 -19.106  0.00  0.00    +0.053 C 
ATOM      6  C   UNL     1      32.683 -21.504 -19.744  0.00  0.00    +0.005 C 
ATOM      7  C   UNL     1      35.025 -21.968 -19.375  0.00  0.00    +0.005 C 
ATOM      8  C   UNL     1      34.366 -20.232 -20.921  0.00  0.00    -0.000 C 
ATOM      9  C   UNL     1      33.025 -20.502 -20.653  0.00  0.00    +0.000 C 
ATOM     10  C   UNL     1      35.367 -20.965 -20.283  0.00  0.00    +0.000 C 
BRANCH   8  11
ATOM     11  C   UNL     1      34.720 -19.191 -21.863  0.00  0.00    -0.000 C 
ATOM     12  C   UNL     1      34.306 -19.282 -23.191  0.00  0.00    -0.006 C 
ATOM     13  C   UNL     1      34.646 -18.278 -24.098  0.00  0.00    -0.044 C 
ATOM     14  C   UNL     1      35.474 -18.097 -21.440  0.00  0.00    -0.000 C 
ATOM     15  C   UNL     1      35.401 -17.184 -23.675  0.00  0.00    -0.006 C 
ATOM     16  C   UNL     1      35.815 -17.093 -22.346  0.00  0.00    -0.000 C 
BRANCH  13  17
ATOM     17  C   UNL     1      34.203 -18.375 -25.518  0.00  0.00    -0.059 C 
BRANCH  17  18
ATOM     18  N   UNL     1      32.761 -18.599 -25.639  0.00  0.00    +0.383 N 
ATOM     19  H   UNL     1      32.571 -19.601 -25.622  0.00  0.00    -0.089 HD
ATOM     20  H   UNL     1      32.428 -18.204 -26.518  0.00  0.00    -0.089 HD
ATOM     21  H   UNL     1      32.282 -18.147 -24.860  0.00  0.00    -0.089 HD
ENDBRANCH  17  18
ENDBRANCH  13  17
ENDBRANCH   8  11
ENDBRANCH   3   5
BRANCH   2  22
ATOM     22  C   UNL     1      32.007 -23.853 -16.105  0.00  0.00    +0.083 C 
ATOM     23  C   UNL     1      30.631 -23.446 -15.580  0.00  0.00    +0.022 C 
BRANCH  22  24
ATOM     24  C   UNL     1      33.047 -24.004 -14.972  0.00  0.00    +0.121 C 
BRANCH  24  26
ATOM     25  O   UNL     1      32.314 -23.107 -12.828  0.00  0.00    -0.250 OA
ATOM     26  C   UNL     1      32.374 -24.052 -13.604  0.00  0.00    +0.319 C 
BRANCH  26  27
ATOM     27  O   UNL     1      31.860 -25.298 -13.388  0.00  0.00    -0.444 OA
ATOM     28  C   UNL     1      30.485 -25.336 -12.993  0.00  0.00    +0.256 C 
ENDBRANCH  26  27
ENDBRANCH  24  26
BRANCH  24  29
ATOM     29  C   UNL     1      34.101 -22.878 -15.000  0.00  0.00    +0.039 C 
BRANCH  29  30
ATOM     30  C   UNL     1      35.517 -23.403 -15.048  0.00  0.00    -0.021 C 
ATOM     31  C   UNL     1      35.841 -24.595 -14.402  0.00  0.00    -0.002 C 
ATOM     32  C   UNL     1      36.501 -22.693 -15.736  0.00  0.00    -0.004 C 
ATOM     33  C   UNL     1      37.149 -25.079 -14.444  0.00  0.00    +0.030 C 
ATOM     34  C   UNL     1      37.809 -23.176 -15.778  0.00  0.00    -0.000 C 
ATOM     35  C   UNL     1      38.134 -24.368 -15.132  0.00  0.00    +0.003 C 
BRANCH  33  38
ATOM     36  N   UNL     1      38.322 -27.266 -14.365  0.00  0.00    -0.343 N 
ATOM     37  N   UNL     1      36.999 -26.573 -12.568  0.00  0.00    -0.285 NA
ATOM     38  C   UNL     1      37.488 -26.321 -13.769  0.00  0.00    +0.117 C 
ATOM     39  H   UNL     1      38.538 -28.101 -13.890  0.00  0.00    +0.144 HD
ATOM     40  H   UNL     1      38.695 -27.099 -15.261  0.00  0.00    +0.144 HD
ATOM     41  H   UNL     1      37.227 -27.413 -12.110  0.00  0.00    +0.188 HD
ENDBRANCH  33  38
ENDBRANCH  29  30
ENDBRANCH  24  29
ENDBRANCH  22  24
ENDBRANCH   2  22
TORSDOF 11
ENDMDL
MODEL 3
REMARK VINA RESULT:     -10.9      7.877     14.584
REMARK  Name = 5497056
REMARK  11 active torsions:
REMARK  status: ('A' for Active; 'I' for Inactive)
REMARK    1  A    between atoms: N_2  and  C_22
REMARK    2  A    between atoms: C_3  and  C_5
REMARK    3  A    between atoms: C_8  and  C_11
REMARK    4  A    between atoms: C_13  and  C_17
REMARK    5  A    between atoms: C_17  and  N_18
REMARK    6  A    between atoms: C_22  and  C_24
REMARK    7  A    between atoms: C_24  and  C_26
REMARK    8  A    between atoms: C_24  and  C_29
REMARK    9  A    between atoms: C_26  and  O_27
REMARK   10  A    between atoms: C_29  and  C_30
REMARK   11  A    between atoms: C_33  and  C_38
REMARK                            x       y       z     vdW  Elec       q    Type
REMARK                         _______ _______ _______ _____ _____    ______ ____
ROOT
ATOM      1  O   UNL     1      33.425 -14.058 -25.294  0.00  0.00    -0.270 OA
ATOM      2  N   UNL     1      34.039 -12.780 -23.459  0.00  0.00    -0.302 N 
ATOM      3  C   UNL     1      33.900 -13.965 -24.166  0.00  0.00    +0.246 C 
ATOM      4  H   UNL     1      34.432 -12.810 -22.557  0.00  0.00    +0.150 HD
ENDROOT
BRANCH   3   5
ATOM      5  C   UNL     1      34.344 -15.195 -23.463  0.00  0.00    +0.053 C 
ATOM      6  C   UNL     1      34.589 -15.164 -22.089  0.00  0.00    +0.005 C 
ATOM      7  C   UNL     1      34.518 -16.383 -24.174  0.00  0.00    +0.005 C 
ATOM      8  C   UNL     1      35.179 -17.506 -22.140  0.00  0.00    -0.000 C 
ATOM      9  C   UNL     1      35.007 -16.319 -21.429  0.00  0.00    +0.000 C 
ATOM     10  C   UNL     1      34.935 -17.538 -23.514  0.00  0.00    +0.000 C 
BRANCH   8  11
ATOM     11  C   UNL     1      35.612 -18.704 -21.453  0.00  0.00    -0.000 C 
ATOM     12  C   UNL     1      34.670 -19.629 -21.003  0.00  0.00    -0.006 C 
ATOM     13  C   UNL     1      35.087 -20.783 -20.341  0.00  0.00    -0.044 C 
ATOM     14  C   UNL     1      36.971 -18.933 -21.242  0.00  0.00    -0.000 C 
ATOM     15  C   UNL     1      36.447 -21.012 -20.129  0.00  0.00    -0.006 C 
ATOM     16  C   UNL     1      37.389 -20.088 -20.580  0.00  0.00    -0.000 C 
BRANCH  13  17
ATOM     17  C   UNL     1      34.080 -21.773 -19.860  0.00  0.00    -0.059 C 
BRANCH  17  18
ATOM     18  N   UNL     1      32.712 -21.259 -19.938  0.00  0.00    +0.383 N 
ATOM     19  H   UNL     1      32.072 -22.026 -20.142  0.00  0.00    -0.089 HD
ATOM     20  H   UNL     1      32.652 -20.559 -20.678  0.00  0.00    -0.089 HD
ATOM     21  H   UNL     1      32.459 -20.832 -19.046  0.00  0.00    -0.089 HD
ENDBRANCH  17  18
ENDBRANCH  13  17
ENDBRANCH   8  11
ENDBRANCH   3   5
BRANCH   2  22
ATOM     22  C   UNL     1      33.629 -11.504 -23.997  0.00  0.00    +0.083 C 
ATOM     23  C   UNL     1      34.805 -10.828 -24.699  0.00  0.00    +0.022 C 
BRANCH  22  24
ATOM     24  C   UNL     1      32.977 -10.593 -22.933  0.00  0.00    +0.121 C 
BRANCH  24  26
ATOM     25  O   UNL     1      30.766 -11.243 -22.140  0.00  0.00    -0.250 OA
ATOM     26  C   UNL     1      31.983 -11.366 -22.074  0.00  0.00    +0.319 C 
BRANCH  26  27
ATOM     27  O   UNL     1      32.657 -12.203 -21.233  0.00  0.00    -0.444 OA
ATOM     28  C   UNL     1      31.921 -13.346 -20.782  0.00  0.00    +0.256 C 
ENDBRANCH  26  27
ENDBRANCH  24  26
BRANCH  24  29
ATOM     29  C   UNL     1      32.284  -9.369 -23.566  0.00  0.00    +0.039 C 
BRANCH  29  30
ATOM     30  C   UNL     1      32.212  -8.186 -22.628  0.00  0.00    -0.021 C 
ATOM     31  C   UNL     1      31.543  -7.027 -23.018  0.00  0.00    -0.002 C 
ATOM     32  C   UNL     1      32.815  -8.254 -21.372  0.00  0.00    -0.004 C 
ATOM     33  C   UNL     1      31.477  -5.934 -22.153  0.00  0.00    +0.030 C 
ATOM     34  C   UNL     1      32.750  -7.161 -20.507  0.00  0.00    -0.000 C 
ATOM     35  C   UNL     1      32.081  -6.002 -20.896  0.00  0.00    +0.003 C 
BRANCH  33  38
ATOM     36  N   UNL     1      30.824  -4.271 -23.877  0.00  0.00    -0.343 N 
ATOM     37  N   UNL     1      30.093  -4.030 -21.671  0.00  0.00    -0.285 NA
ATOM     38  C   UNL     1      30.781  -4.724 -22.560  0.00  0.00    +0.117 C 
ATOM     39  H   UNL     1      30.346  -3.448 -24.131  0.00  0.00    +0.144 HD
ATOM     40  H   UNL     1      31.335  -4.772 -24.554  0.00  0.00    +0.144 HD
ATOM     41  H   UNL     1      29.622  -3.211 -21.944  0.00  0.00    +0.188 HD
ENDBRANCH  33  38
ENDBRANCH  29  30
ENDBRANCH  24  29
ENDBRANCH  22  24
ENDBRANCH   2  22
TORSDOF 11
ENDMDL
MODEL 4
REMARK VINA RESULT:     -10.8      4.042     10.936
REMARK  Name = 5497056
REMARK  11 active torsions:
REMARK  status: ('A' for Active; 'I' for Inactive)
REMARK    1  A    between atoms: N_2  and  C_22
REMARK    2  A    between atoms: C_3  and  C_5
REMARK    3  A    between atoms: C_8  and  C_11
REMARK    4  A    between atoms: C_13  and  C_17
REMARK    5  A    between atoms: C_17  and  N_18
REMARK    6  A    between atoms: C_22  and  C_24
REMARK    7  A    between atoms: C_24  and  C_26
REMARK    8  A    between atoms: C_24  and  C_29
REMARK    9  A    between atoms: C_26  and  O_27
REMARK   10  A    between atoms: C_29  and  C_30
REMARK   11  A    between atoms: C_33  and  C_38
REMARK                            x       y       z     vdW  Elec       q    Type
REMARK                         _______ _______ _______ _____ _____    ______ ____
ROOT
ATOM      1  O   UNL     1      36.929 -22.038 -20.048  0.00  0.00    -0.270 OA
ATOM      2  N   UNL     1      35.332 -20.432 -20.545  0.00  0.00    -0.302 N 
ATOM      3  C   UNL     1      35.832 -21.524 -19.851  0.00  0.00    +0.246 C 
ATOM      4  H   UNL     1      34.437 -20.093 -20.313  0.00  0.00    +0.150 HD
ENDROOT
BRANCH   3   5
ATOM      5  C   UNL     1      34.934 -22.102 -18.819  0.00  0.00    +0.053 C 
ATOM      6  C   UNL     1      35.469 -22.613 -17.636  0.00  0.00    +0.005 C 
ATOM      7  C   UNL     1      33.555 -22.136 -19.032  0.00  0.00    +0.005 C 
ATOM      8  C   UNL     1      33.247 -23.189 -16.879  0.00  0.00    -0.000 C 
ATOM      9  C   UNL     1      34.626 -23.156 -16.667  0.00  0.00    +0.000 C 
ATOM     10  C   UNL     1      32.712 -22.679 -18.062  0.00  0.00    +0.000 C 
BRANCH   8  11
ATOM     11  C   UNL     1      32.374 -23.752 -15.872  0.00  0.00    -0.000 C 
ATOM     12  C   UNL     1      31.002 -23.836 -16.107  0.00  0.00    -0.006 C 
ATOM     13  C   UNL     1      30.161 -24.379 -15.135  0.00  0.00    -0.044 C 
ATOM     14  C   UNL     1      32.906 -24.211 -14.667  0.00  0.00    -0.000 C 
ATOM     15  C   UNL     1      30.693 -24.837 -13.930  0.00  0.00    -0.006 C 
ATOM     16  C   UNL     1      32.065 -24.754 -13.696  0.00  0.00    -0.000 C 
BRANCH  13  17
ATOM     17  C   UNL     1      28.694 -24.470 -15.386  0.00  0.00    -0.059 C 
BRANCH  17  18
ATOM     18  N   UNL     1      28.356 -24.286 -16.798  0.00  0.00    +0.383 N 
ATOM     19  H   UNL     1      28.828 -23.455 -17.155  0.00  0.00    -0.089 HD
ATOM     20  H   UNL     1      27.348 -24.173 -16.896  0.00  0.00    -0.089 HD
ATOM     21  H   UNL     1      28.659 -25.104 -17.328  0.00  0.00    -0.089 HD
ENDBRANCH  17  18
ENDBRANCH  13  17
ENDBRANCH   8  11
ENDBRANCH   3   5
BRANCH   2  22
ATOM     22  C   UNL     1      36.074 -19.775 -21.595  0.00  0.00    +0.083 C 
ATOM     23  C   UNL     1      37.322 -19.109 -21.018  0.00  0.00    +0.022 C 
BRANCH  22  24
ATOM     24  C   UNL     1      35.206 -18.790 -22.409  0.00  0.00    +0.121 C 
BRANCH  24  26
ATOM     25  O   UNL     1      35.207 -20.387 -24.249  0.00  0.00    -0.250 OA
ATOM     26  C   UNL     1      34.679 -19.438 -23.685  0.00  0.00    +0.319 C 
BRANCH  26  27
ATOM     27  O   UNL     1      33.544 -18.798 -24.090  0.00  0.00    -0.444 OA
ATOM     28  C   UNL     1      33.486 -18.470 -25.482  0.00  0.00    +0.256 C 
ENDBRANCH  26  27
ENDBRANCH  24  26
BRANCH  24  29
ATOM     29  C   UNL     1      35.970 -17.495 -22.754  0.00  0.00    +0.039 C 
BRANCH  29  30
ATOM     30  C   UNL     1      35.161 -16.247 -22.481  0.00  0.00    -0.021 C 
ATOM     31  C   UNL     1      34.671 -15.488 -23.542  0.00  0.00    -0.002 C 
ATOM     32  C   UNL     1      34.908 -15.854 -21.167  0.00  0.00    -0.004 C 
ATOM     33  C   UNL     1      33.926 -14.335 -23.291  0.00  0.00    +0.030 C 
ATOM     34  C   UNL     1      34.163 -14.701 -20.915  0.00  0.00    -0.000 C 
ATOM     35  C   UNL     1      33.672 -13.942 -21.976  0.00  0.00    +0.003 C 
BRANCH  33  38
ATOM     36  N   UNL     1      32.779 -14.139 -25.484  0.00  0.00    -0.343 N 
ATOM     37  N   UNL     1      33.556 -12.229 -24.385  0.00  0.00    -0.285 NA
ATOM     38  C   UNL     1      33.416 -13.542 -24.397  0.00  0.00    +0.117 C 
ATOM     39  H   UNL     1      32.442 -13.583 -26.223  0.00  0.00    +0.144 HD
ATOM     40  H   UNL     1      32.668 -15.117 -25.514  0.00  0.00    +0.144 HD
ATOM     41  H   UNL     1      33.211 -11.690 -25.134  0.00  0.00    +0.188 HD
ENDBRANCH  33  38
ENDBRANCH  29  30
ENDBRANCH  24  29
ENDBRANCH  22  24
ENDBRANCH   2  22
TORSDOF 11
ENDMDL
MODEL 5
REMARK VINA RESULT:     -10.2      9.076     16.007
REMARK  Name = 5497056
REMARK  11 active torsions:
REMARK  status: ('A' for Active; 'I' for Inactive)
REMARK    1  A    between atoms: N_2  and  C_22
REMARK    2  A    between atoms: C_3  and  C_5
REMARK    3  A    between atoms: C_8  and  C_11
REMARK    4  A    between atoms: C_13  and  C_17
REMARK    5  A    between atoms: C_17  and  N_18
REMARK    6  A    between atoms: C_22  and  C_24
REMARK    7  A    between atoms: C_24  and  C_26
REMARK    8  A    between atoms: C_24  and  C_29
REMARK    9  A    between atoms: C_26  and  O_27
REMARK   10  A    between atoms: C_29  and  C_30
REMARK   11  A    between atoms: C_33  and  C_38
REMARK                            x       y       z     vdW  Elec       q    Type
REMARK                         _______ _______ _______ _____ _____    ______ ____
ROOT
ATOM      1  O   UNL     1      33.065 -11.158 -25.754  0.00  0.00    -0.270 OA
ATOM      2  N   UNL     1      33.567 -10.640 -23.551  0.00  0.00    -0.302 N 
ATOM      3  C   UNL     1      33.433 -11.496 -24.633  0.00  0.00    +0.246 C 
ATOM      4  H   UNL     1      33.868 -11.008 -22.689  0.00  0.00    +0.150 HD
ENDROOT
BRANCH   3   5
ATOM      5  C   UNL     1      33.740 -12.925 -24.370  0.00  0.00    +0.053 C 
ATOM      6  C   UNL     1      34.298 -13.305 -23.150  0.00  0.00    +0.005 C 
ATOM      7  C   UNL     1      33.471 -13.888 -25.344  0.00  0.00    +0.005 C 
ATOM      8  C   UNL     1      34.318 -15.610 -23.876  0.00  0.00    -0.000 C 
ATOM      9  C   UNL     1      34.588 -14.648 -22.903  0.00  0.00    +0.000 C 
ATOM     10  C   UNL     1      33.760 -15.229 -25.097  0.00  0.00    +0.000 C 
BRANCH   8  11
ATOM     11  C   UNL     1      34.617 -17.002 -23.618  0.00  0.00    -0.000 C 
ATOM     12  C   UNL     1      35.398 -17.355 -22.518  0.00  0.00    -0.006 C 
ATOM     13  C   UNL     1      35.686 -18.697 -22.270  0.00  0.00    -0.044 C 
ATOM     14  C   UNL     1      34.124 -17.990 -24.470  0.00  0.00    -0.000 C 
ATOM     15  C   UNL     1      35.193 -19.685 -23.123  0.00  0.00    -0.006 C 
ATOM     16  C   UNL     1      34.411 -19.332 -24.223  0.00  0.00    -0.000 C 
BRANCH  13  17
ATOM     17  C   UNL     1      36.520 -19.076 -21.093  0.00  0.00    -0.059 C 
BRANCH  17  18
ATOM     18  N   UNL     1      35.989 -20.242 -20.385  0.00  0.00    +0.383 N 
ATOM     19  H   UNL     1      36.706 -20.966 -20.335  0.00  0.00    -0.089 HD
ATOM     20  H   UNL     1      35.175 -20.603 -20.884  0.00  0.00    -0.089 HD
ATOM     21  H   UNL     1      35.714 -19.969 -19.441  0.00  0.00    -0.089 HD
ENDBRANCH  17  18
ENDBRANCH  13  17
ENDBRANCH   8  11
ENDBRANCH   3   5
BRANCH   2  22
ATOM     22  C   UNL     1      33.280  -9.227 -23.640  0.00  0.00    +0.083 C 
ATOM     23  C   UNL     1      34.575  -8.421 -23.547  0.00  0.00    +0.022 C 
BRANCH  22  24
ATOM     24  C   UNL     1      32.227  -8.768 -22.607  0.00  0.00    +0.121 C 
BRANCH  24  26
ATOM     25  O   UNL     1      30.933 -10.781 -22.147  0.00  0.00    -0.250 OA
ATOM     26  C   UNL     1      31.732  -9.937 -21.762  0.00  0.00    +0.319 C 
BRANCH  26  27
ATOM     27  O   UNL     1      32.314  -9.891 -20.529  0.00  0.00    -0.444 OA
ATOM     28  C   UNL     1      31.503 -10.362 -19.447  0.00  0.00    +0.256 C 
ENDBRANCH  26  27
ENDBRANCH  24  26
BRANCH  24  29
ATOM     29  C   UNL     1      31.031  -8.060 -23.276  0.00  0.00    +0.039 C 
BRANCH  29  30
ATOM     30  C   UNL     1      31.227  -6.566 -23.397  0.00  0.00    -0.021 C 
ATOM     31  C   UNL     1      31.877  -6.036 -24.510  0.00  0.00    -0.002 C 
ATOM     32  C   UNL     1      30.758  -5.718 -22.393  0.00  0.00    -0.004 C 
ATOM     33  C   UNL     1      32.059  -4.658 -24.622  0.00  0.00    +0.030 C 
ATOM     34  C   UNL     1      30.941  -4.339 -22.504  0.00  0.00    -0.000 C 
ATOM     35  C   UNL     1      31.591  -3.809 -23.618  0.00  0.00    +0.003 C 
BRANCH  33  38
ATOM     36  N   UNL     1      33.683  -4.845 -26.492  0.00  0.00    -0.343 N 
ATOM     37  N   UNL     1      32.467  -2.874 -26.180  0.00  0.00    -0.285 NA
ATOM     38  C   UNL     1      32.739  -4.105 -25.782  0.00  0.00    +0.117 C 
ATOM     39  H   UNL     1      34.132  -4.451 -27.274  0.00  0.00    +0.144 HD
ATOM     40  H   UNL     1      33.902  -5.763 -26.209  0.00  0.00    +0.144 HD
ATOM     41  H   UNL     1      32.926  -2.498 -26.965  0.00  0.00    +0.188 HD
ENDBRANCH  33  38
ENDBRANCH  29  30
ENDBRANCH  24  29
ENDBRANCH  22  24
ENDBRANCH   2  22
TORSDOF 11
ENDMDL
MODEL 6
REMARK VINA RESULT:     -10.2      2.312      4.829
REMARK  Name = 5497056
REMARK  11 active torsions:
REMARK  status: ('A' for Active; 'I' for Inactive)
REMARK    1  A    between atoms: N_2  and  C_22
REMARK    2  A    between atoms: C_3  and  C_5
REMARK    3  A    between atoms: C_8  and  C_11
REMARK    4  A    between atoms: C_13  and  C_17
REMARK    5  A    between atoms: C_17  and  N_18
REMARK    6  A    between atoms: C_22  and  C_24
REMARK    7  A    between atoms: C_24  and  C_26
REMARK    8  A    between atoms: C_24  and  C_29
REMARK    9  A    between atoms: C_26  and  O_27
REMARK   10  A    between atoms: C_29  and  C_30
REMARK   11  A    between atoms: C_33  and  C_38
REMARK                            x       y       z     vdW  Elec       q    Type
REMARK                         _______ _______ _______ _____ _____    ______ ____
ROOT
ATOM      1  O   UNL     1      34.185 -24.235 -17.374  0.00  0.00    -0.270 OA
ATOM      2  N   UNL     1      36.016 -23.203 -16.395  0.00  0.00    -0.302 N 
ATOM      3  C   UNL     1      35.031 -23.346 -17.361  0.00  0.00    +0.246 C 
ATOM      4  H   UNL     1      36.651 -22.455 -16.472  0.00  0.00    +0.150 HD
ENDROOT
BRANCH   3   5
ATOM      5  C   UNL     1      35.050 -22.346 -18.458  0.00  0.00    +0.053 C 
ATOM      6  C   UNL     1      36.258 -21.777 -18.863  0.00  0.00    +0.005 C 
ATOM      7  C   UNL     1      33.861 -21.975 -19.086  0.00  0.00    +0.005 C 
ATOM      8  C   UNL     1      35.087 -20.467 -20.521  0.00  0.00    -0.000 C 
ATOM      9  C   UNL     1      36.277 -20.837 -19.893  0.00  0.00    +0.000 C 
ATOM     10  C   UNL     1      33.879 -21.036 -20.117  0.00  0.00    +0.000 C 
BRANCH   8  11
ATOM     11  C   UNL     1      35.108 -19.493 -21.591  0.00  0.00    -0.000 C 
ATOM     12  C   UNL     1      34.636 -19.838 -22.857  0.00  0.00    -0.006 C 
ATOM     13  C   UNL     1      34.656 -18.898 -23.888  0.00  0.00    -0.044 C 
ATOM     14  C   UNL     1      35.601 -18.210 -21.355  0.00  0.00    -0.000 C 
ATOM     15  C   UNL     1      35.149 -17.615 -23.653  0.00  0.00    -0.006 C 
ATOM     16  C   UNL     1      35.621 -17.270 -22.386  0.00  0.00    -0.000 C 
BRANCH  13  17
ATOM     17  C   UNL     1      34.150 -19.266 -25.242  0.00  0.00    -0.059 C 
BRANCH  17  18
ATOM     18  N   UNL     1      32.841 -18.676 -25.528  0.00  0.00    +0.383 N 
ATOM     19  H   UNL     1      32.937 -17.664 -25.616  0.00  0.00    -0.089 HD
ATOM     20  H   UNL     1      32.197 -18.892 -24.767  0.00  0.00    -0.089 HD
ATOM     21  H   UNL     1      32.479 -19.061 -26.400  0.00  0.00    -0.089 HD
ENDBRANCH  17  18
ENDBRANCH  13  17
ENDBRANCH   8  11
ENDBRANCH   3   5
BRANCH   2  22
ATOM     22  C   UNL     1      36.144 -24.111 -15.279  0.00  0.00    +0.083 C 
ATOM     23  C   UNL     1      36.100 -25.557 -15.770  0.00  0.00    +0.022 C 
BRANCH  22  24
ATOM     24  C   UNL     1      35.105 -23.837 -14.168  0.00  0.00    +0.121 C 
BRANCH  24  26
ATOM     25  O   UNL     1      36.827 -22.810 -12.780  0.00  0.00    -0.250 OA
ATOM     26  C   UNL     1      35.784 -23.447 -12.858  0.00  0.00    +0.319 C 
BRANCH  26  27
ATOM     27  O   UNL     1      35.053 -23.916 -11.805  0.00  0.00    -0.444 OA
ATOM     28  C   UNL     1      35.807 -24.554 -10.769  0.00  0.00    +0.256 C 
ENDBRANCH  26  27
ENDBRANCH  24  26
BRANCH  24  29
ATOM     29  C   UNL     1      34.172 -25.043 -13.937  0.00  0.00    +0.039 C 
BRANCH  29  30
ATOM     30  C   UNL     1      32.713 -24.701 -14.135  0.00  0.00    -0.021 C 
ATOM     31  C   UNL     1      32.304 -24.031 -15.287  0.00  0.00    -0.002 C 
ATOM     32  C   UNL     1      31.777 -25.053 -13.163  0.00  0.00    -0.004 C 
ATOM     33  C   UNL     1      30.957 -23.714 -15.469  0.00  0.00    +0.030 C 
ATOM     34  C   UNL     1      30.430 -24.735 -13.344  0.00  0.00    -0.000 C 
ATOM     35  C   UNL     1      30.020 -24.066 -14.497  0.00  0.00    +0.003 C 
BRANCH  33  38
ATOM     36  N   UNL     1      31.447 -22.609 -17.638  0.00  0.00    -0.343 N 
ATOM     37  N   UNL     1      29.249 -22.750 -16.857  0.00  0.00    -0.285 NA
ATOM     38  C   UNL     1      30.530 -23.015 -16.670  0.00  0.00    +0.117 C 
ATOM     39  H   UNL     1      31.136 -22.135 -18.443  0.00  0.00    +0.144 HD
ATOM     40  H   UNL     1      32.407 -22.793 -17.516  0.00  0.00    +0.144 HD
ATOM     41  H   UNL     1      28.958 -22.277 -17.669  0.00  0.00    +0.188 HD
ENDBRANCH  33  38
ENDBRANCH  29  30
ENDBRANCH  24  29
ENDBRANCH  22  24
ENDBRANCH   2  22
TORSDOF 11
ENDMDL
MODEL 7
REMARK VINA RESULT:     -10.1      9.716     16.632
REMARK  Name = 5497056
REMARK  11 active torsions:
REMARK  status: ('A' for Active; 'I' for Inactive)
REMARK    1  A    between atoms: N_2  and  C_22
REMARK    2  A    between atoms: C_3  and  C_5
REMARK    3  A    between atoms: C_8  and  C_11
REMARK    4  A    between atoms: C_13  and  C_17
REMARK    5  A    between atoms: C_17  and  N_18
REMARK    6  A    between atoms: C_22  and  C_24
REMARK    7  A    between atoms: C_24  and  C_26
REMARK    8  A    between atoms: C_24  and  C_29
REMARK    9  A    between atoms: C_26  and  O_27
REMARK   10  A    between atoms: C_29  and  C_30
REMARK   11  A    between atoms: C_33  and  C_38
REMARK                            x       y       z     vdW  Elec       q    Type
REMARK                         _______ _______ _______ _____ _____    ______ ____
ROOT
ATOM      1  O   UNL     1      33.805  -9.199 -23.779  0.00  0.00    -0.270 OA
ATOM      2  N   UNL     1      31.781  -9.733 -22.782  0.00  0.00    -0.302 N 
ATOM      3  C   UNL     1      32.992 -10.031 -23.388  0.00  0.00    +0.246 C 
ATOM      4  H   UNL     1      31.195 -10.474 -22.503  0.00  0.00    +0.150 HD
ENDROOT
BRANCH   3   5
ATOM      5  C   UNL     1      33.281 -11.475 -23.583  0.00  0.00    +0.053 C 
ATOM      6  C   UNL     1      33.767 -11.929 -24.809  0.00  0.00    +0.005 C 
ATOM      7  C   UNL     1      33.066 -12.378 -22.541  0.00  0.00    +0.005 C 
ATOM      8  C   UNL     1      33.824 -14.188 -23.951  0.00  0.00    -0.000 C 
ATOM      9  C   UNL     1      34.037 -13.286 -24.993  0.00  0.00    +0.000 C 
ATOM     10  C   UNL     1      33.337 -13.733 -22.725  0.00  0.00    +0.000 C 
BRANCH   8  11
ATOM     11  C   UNL     1      34.106 -15.594 -24.144  0.00  0.00    -0.000 C 
ATOM     12  C   UNL     1      34.877 -16.284 -23.209  0.00  0.00    -0.006 C 
ATOM     13  C   UNL     1      35.149 -17.640 -23.395  0.00  0.00    -0.044 C 
ATOM     14  C   UNL     1      33.607 -16.257 -25.264  0.00  0.00    -0.000 C 
ATOM     15  C   UNL     1      34.650 -18.304 -24.516  0.00  0.00    -0.006 C 
ATOM     16  C   UNL     1      33.879 -17.613 -25.450  0.00  0.00    -0.000 C 
BRANCH  13  17
ATOM     17  C   UNL     1      35.972 -18.379 -22.395  0.00  0.00    -0.059 C 
BRANCH  17  18
ATOM     18  N   UNL     1      35.653 -17.998 -21.018  0.00  0.00    +0.383 N 
ATOM     19  H   UNL     1      35.625 -18.832 -20.432  0.00  0.00    -0.089 HD
ATOM     20  H   UNL     1      34.745 -17.534 -20.994  0.00  0.00    -0.089 HD
ATOM     21  H   UNL     1      36.369 -17.360 -20.669  0.00  0.00    -0.089 HD
ENDBRANCH  17  18
ENDBRANCH  13  17
ENDBRANCH   8  11
ENDBRANCH   3   5
BRANCH   2  22
ATOM     22  C   UNL     1      31.346  -8.376 -22.545  0.00  0.00    +0.083 C 
ATOM     23  C   UNL     1      30.801  -7.767 -23.836  0.00  0.00    +0.022 C 
BRANCH  22  24
ATOM     24  C   UNL     1      32.448  -7.504 -21.903  0.00  0.00    +0.121 C 
BRANCH  24  26
ATOM     25  O   UNL     1      33.215  -7.064 -19.632  0.00  0.00    -0.250 OA
ATOM     26  C   UNL     1      32.520  -7.721 -20.395  0.00  0.00    +0.319 C 
BRANCH  26  27
ATOM     27  O   UNL     1      31.698  -8.752 -20.041  0.00  0.00    -0.444 OA
ATOM     28  C   UNL     1      32.318  -9.804 -19.294  0.00  0.00    +0.256 C 
ENDBRANCH  26  27
ENDBRANCH  24  26
BRANCH  24  29
ATOM     29  C   UNL     1      32.250  -6.005 -22.209  0.00  0.00    +0.039 C 
BRANCH  29  30
ATOM     30  C   UNL     1      32.903  -5.579 -23.504  0.00  0.00    -0.021 C 
ATOM     31  C   UNL     1      32.326  -4.573 -24.277  0.00  0.00    -0.002 C 
ATOM     32  C   UNL     1      34.081  -6.195 -23.926  0.00  0.00    -0.004 C 
ATOM     33  C   UNL     1      32.927  -4.181 -25.473  0.00  0.00    +0.030 C 
ATOM     34  C   UNL     1      34.682  -5.804 -25.123  0.00  0.00    -0.000 C 
ATOM     35  C   UNL     1      34.106  -4.797 -25.897  0.00  0.00    +0.003 C 
BRANCH  33  38
ATOM     36  N   UNL     1      32.647  -2.980 -27.629  0.00  0.00    -0.343 N 
ATOM     37  N   UNL     1      31.458  -2.298 -25.737  0.00  0.00    -0.285 NA
ATOM     38  C   UNL     1      32.326  -3.132 -26.281  0.00  0.00    +0.117 C 
ATOM     39  H   UNL     1      32.229  -2.263 -28.157  0.00  0.00    +0.144 HD
ATOM     40  H   UNL     1      33.295  -3.590 -28.053  0.00  0.00    +0.144 HD
ATOM     41  H   UNL     1      31.050  -1.587 -26.282  0.00  0.00    +0.188 HD
ENDBRANCH  33  38
ENDBRANCH  29  30
ENDBRANCH  24  29
ENDBRANCH  22  24
ENDBRANCH   2  22
TORSDOF 11
ENDMDL
MODEL 8
REMARK VINA RESULT:      -9.9      9.071     13.395
REMARK  Name = 5497056
REMARK  11 active torsions:
REMARK  status: ('A' for Active; 'I' for Inactive)
REMARK    1  A    between atoms: N_2  and  C_22
REMARK    2  A    between atoms: C_3  and  C_5
REMARK    3  A    between atoms: C_8  and  C_11
REMARK    4  A    between atoms: C_13  and  C_17
REMARK    5  A    between atoms: C_17  and  N_18
REMARK    6  A    between atoms: C_22  and  C_24
REMARK    7  A    between atoms: C_24  and  C_26
REMARK    8  A    between atoms: C_24  and  C_29
REMARK    9  A    between atoms: C_26  and  O_27
REMARK   10  A    between atoms: C_29  and  C_30
REMARK   11  A    between atoms: C_33  and  C_38
REMARK                            x       y       z     vdW  Elec       q    Type
REMARK                         _______ _______ _______ _____ _____    ______ ____
ROOT
ATOM      1  O   UNL     1      35.446 -10.733 -24.500  0.00  0.00    -0.270 OA
ATOM      2  N   UNL     1      33.384 -11.765 -24.256  0.00  0.00    -0.302 N 
ATOM      3  C   UNL     1      34.241 -10.675 -24.276  0.00  0.00    +0.246 C 
ATOM      4  H   UNL     1      32.430 -11.615 -24.065  0.00  0.00    +0.150 HD
ENDROOT
BRANCH   3   5
ATOM      5  C   UNL     1      33.622  -9.359 -23.973  0.00  0.00    +0.053 C 
ATOM      6  C   UNL     1      34.402  -8.203 -23.981  0.00  0.00    +0.005 C 
ATOM      7  C   UNL     1      32.260  -9.279 -23.682  0.00  0.00    +0.005 C 
ATOM      8  C   UNL     1      32.459  -6.887 -23.406  0.00  0.00    -0.000 C 
ATOM      9  C   UNL     1      33.821  -6.967 -23.696  0.00  0.00    +0.000 C 
ATOM     10  C   UNL     1      31.679  -8.043 -23.398  0.00  0.00    +0.000 C 
BRANCH   8  11
ATOM     11  C   UNL     1      31.858  -5.604 -23.112  0.00  0.00    -0.000 C 
ATOM     12  C   UNL     1      32.174  -4.490 -23.890  0.00  0.00    -0.006 C 
ATOM     13  C   UNL     1      31.594  -3.254 -23.606  0.00  0.00    -0.044 C 
ATOM     14  C   UNL     1      30.960  -5.482 -22.051  0.00  0.00    -0.000 C 
ATOM     15  C   UNL     1      30.697  -3.132 -22.544  0.00  0.00    -0.006 C 
ATOM     16  C   UNL     1      30.380  -4.246 -21.767  0.00  0.00    -0.000 C 
BRANCH  13  17
ATOM     17  C   UNL     1      31.932  -2.063 -24.438  0.00  0.00    -0.059 C 
BRANCH  17  18
ATOM     18  N   UNL     1      32.142  -2.407 -25.845  0.00  0.00    +0.383 N 
ATOM     19  H   UNL     1      31.753  -1.673 -26.436  0.00  0.00    -0.089 HD
ATOM     20  H   UNL     1      31.680  -3.292 -26.052  0.00  0.00    -0.089 HD
ATOM     21  H   UNL     1      33.143  -2.496 -26.026  0.00  0.00    -0.089 HD
ENDBRANCH  17  18
ENDBRANCH  13  17
ENDBRANCH   8  11
ENDBRANCH   3   5
BRANCH   2  22
ATOM     22  C   UNL     1      33.840 -13.113 -24.506  0.00  0.00    +0.083 C 
ATOM     23  C   UNL     1      33.293 -13.614 -25.842  0.00  0.00    +0.022 C 
BRANCH  22  24
ATOM     24  C   UNL     1      33.515 -14.075 -23.341  0.00  0.00    +0.121 C 
BRANCH  24  26
ATOM     25  O   UNL     1      31.756 -12.625 -22.478  0.00  0.00    -0.250 OA
ATOM     26  C   UNL     1      32.695 -13.378 -22.259  0.00  0.00    +0.319 C 
BRANCH  26  27
ATOM     27  O   UNL     1      33.172 -13.724 -21.028  0.00  0.00    -0.444 OA
ATOM     28  C   UNL     1      32.247 -14.415 -20.181  0.00  0.00    +0.256 C 
ENDBRANCH  26  27
ENDBRANCH  24  26
BRANCH  24  29
ATOM     29  C   UNL     1      34.789 -14.686 -22.723  0.00  0.00    +0.039 C 
BRANCH  29  30
ATOM     30  C   UNL     1      34.903 -16.173 -22.969  0.00  0.00    -0.021 C 
ATOM     31  C   UNL     1      35.347 -17.016 -21.950  0.00  0.00    -0.002 C 
ATOM     32  C   UNL     1      34.568 -16.702 -24.215  0.00  0.00    -0.004 C 
ATOM     33  C   UNL     1      35.454 -18.388 -22.177  0.00  0.00    +0.030 C 
ATOM     34  C   UNL     1      34.676 -18.074 -24.442  0.00  0.00    -0.000 C 
ATOM     35  C   UNL     1      35.119 -18.918 -23.424  0.00  0.00    +0.003 C 
BRANCH  33  38
ATOM     36  N   UNL     1      35.102 -20.272 -20.598  0.00  0.00    -0.343 N 
ATOM     37  N   UNL     1      37.134 -19.119 -20.622  0.00  0.00    -0.285 NA
ATOM     38  C   UNL     1      35.918 -19.267 -21.116  0.00  0.00    +0.117 C 
ATOM     39  H   UNL     1      35.436 -20.855 -19.878  0.00  0.00    +0.144 HD
ATOM     40  H   UNL     1      34.190 -20.396 -20.950  0.00  0.00    +0.144 HD
ATOM     41  H   UNL     1      37.450 -19.713 -19.904  0.00  0.00    +0.188 HD
ENDBRANCH  33  38
ENDBRANCH  29  30
ENDBRANCH  24  29
ENDBRANCH  22  24
ENDBRANCH   2  22
TORSDOF 11
ENDMDL
MODEL 9
REMARK VINA RESULT:      -9.8      4.075     11.114
REMARK  Name = 5497056
REMARK  11 active torsions:
REMARK  status: ('A' for Active; 'I' for Inactive)
REMARK    1  A    between atoms: N_2  and  C_22
REMARK    2  A    between atoms: C_3  and  C_5
REMARK    3  A    between atoms: C_8  and  C_11
REMARK    4  A    between atoms: C_13  and  C_17
REMARK    5  A    between atoms: C_17  and  N_18
REMARK    6  A    between atoms: C_22  and  C_24
REMARK    7  A    between atoms: C_24  and  C_26
REMARK    8  A    between atoms: C_24  and  C_29
REMARK    9  A    between atoms: C_26  and  O_27
REMARK   10  A    between atoms: C_29  and  C_30
REMARK   11  A    between atoms: C_33  and  C_38
REMARK                            x       y       z     vdW  Elec       q    Type
REMARK                         _______ _______ _______ _____ _____    ______ ____
ROOT
ATOM      1  O   UNL     1      36.864 -21.978 -20.143  0.00  0.00    -0.270 OA
ATOM      2  N   UNL     1      35.265 -20.334 -20.486  0.00  0.00    -0.302 N 
ATOM      3  C   UNL     1      35.786 -21.460 -19.867  0.00  0.00    +0.246 C 
ATOM      4  H   UNL     1      34.389 -19.994 -20.192  0.00  0.00    +0.150 HD
ENDROOT
BRANCH   3   5
ATOM      5  C   UNL     1      34.936 -22.072 -18.814  0.00  0.00    +0.053 C 
ATOM      6  C   UNL     1      35.519 -22.565 -17.646  0.00  0.00    +0.005 C 
ATOM      7  C   UNL     1      33.555 -22.154 -18.991  0.00  0.00    +0.005 C 
ATOM      8  C   UNL     1      33.340 -23.221 -16.834  0.00  0.00    -0.000 C 
ATOM      9  C   UNL     1      34.721 -23.140 -16.657  0.00  0.00    +0.000 C 
ATOM     10  C   UNL     1      32.757 -22.728 -18.002  0.00  0.00    +0.000 C 
BRANCH   8  11
ATOM     11  C   UNL     1      32.513 -23.817 -15.807  0.00  0.00    -0.000 C 
ATOM     12  C   UNL     1      31.146 -23.988 -16.023  0.00  0.00    -0.006 C 
ATOM     13  C   UNL     1      30.350 -24.562 -15.032  0.00  0.00    -0.044 C 
ATOM     14  C   UNL     1      33.085 -24.221 -14.600  0.00  0.00    -0.000 C 
ATOM     15  C   UNL     1      30.922 -24.965 -13.825  0.00  0.00    -0.006 C 
ATOM     16  C   UNL     1      32.289 -24.795 -13.609  0.00  0.00    -0.000 C 
BRANCH  13  17
ATOM     17  C   UNL     1      28.888 -24.746 -15.263  0.00  0.00    -0.059 C 
BRANCH  17  18
ATOM     18  N   UNL     1      28.489 -24.382 -16.623  0.00  0.00    +0.383 N 
ATOM     19  H   UNL     1      27.485 -24.204 -16.646  0.00  0.00    -0.089 HD
ATOM     20  H   UNL     1      28.713 -25.147 -17.260  0.00  0.00    -0.089 HD
ATOM     21  H   UNL     1      28.991 -23.542 -16.911  0.00  0.00    -0.089 HD
ENDBRANCH  17  18
ENDBRANCH  13  17
ENDBRANCH   8  11
ENDBRANCH   3   5
BRANCH   2  22
ATOM     22  C   UNL     1      35.960 -19.641 -21.545  0.00  0.00    +0.083 C 
ATOM     23  C   UNL     1      37.205 -18.949 -20.992  0.00  0.00    +0.022 C 
BRANCH  22  24
ATOM     24  C   UNL     1      35.043 -18.668 -22.320  0.00  0.00    +0.121 C 
BRANCH  24  26
ATOM     25  O   UNL     1      33.064 -19.428 -23.522  0.00  0.00    -0.250 OA
ATOM     26  C   UNL     1      34.284 -19.386 -23.430  0.00  0.00    +0.319 C 
BRANCH  26  27
ATOM     27  O   UNL     1      35.171 -19.967 -24.291  0.00  0.00    -0.444 OA
ATOM     28  C   UNL     1      34.603 -20.502 -25.491  0.00  0.00    +0.256 C 
ENDBRANCH  26  27
ENDBRANCH  24  26
BRANCH  24  29
ATOM     29  C   UNL     1      35.828 -17.476 -22.905  0.00  0.00    +0.039 C 
BRANCH  29  30
ATOM     30  C   UNL     1      34.942 -16.496 -23.640  0.00  0.00    -0.021 C 
ATOM     31  C   UNL     1      34.513 -15.332 -23.003  0.00  0.00    -0.002 C 
ATOM     32  C   UNL     1      34.552 -16.757 -24.953  0.00  0.00    -0.004 C 
ATOM     33  C   UNL     1      33.694 -14.427 -23.680  0.00  0.00    +0.030 C 
ATOM     34  C   UNL     1      33.733 -15.853 -25.630  0.00  0.00    -0.000 C 
ATOM     35  C   UNL     1      33.304 -14.688 -24.995  0.00  0.00    +0.003 C 
BRANCH  33  38
ATOM     36  N   UNL     1      32.485 -13.264 -21.850  0.00  0.00    -0.343 N 
ATOM     37  N   UNL     1      33.556 -12.034 -23.523  0.00  0.00    -0.285 NA
ATOM     38  C   UNL     1      33.246 -13.214 -23.017  0.00  0.00    +0.117 C 
ATOM     39  H   UNL     1      32.190 -12.430 -21.418  0.00  0.00    +0.144 HD
ATOM     40  H   UNL     1      32.239 -14.134 -21.459  0.00  0.00    +0.144 HD
ATOM     41  H   UNL     1      33.253 -11.211 -23.075  0.00  0.00    +0.188 HD
ENDBRANCH  33  38
ENDBRANCH  29  30
ENDBRANCH  24  29
ENDBRANCH  22  24
ENDBRANCH   2  22
TORSDOF 11
ENDMDL
