MODEL 1
REMARK VINA RESULT:     -12.2      0.000      0.000
REMARK  Name = 4369496
REMARK  6 active torsions:
REMARK  status: ('A' for Active; 'I' for Inactive)
REMARK    1  A    between atoms: N_2  and  C_21
REMARK    2  A    between atoms: C_3  and  C_10
REMARK    3  A    between atoms: C_5  and  C_11
REMARK    4  A    between atoms: C_11  and  N_12
REMARK    5  A    between atoms: C_23  and  N_27
REMARK    6  A    between atoms: C_31  and  C_36
REMARK                            x       y       z     vdW  Elec       q    Type
REMARK                         _______ _______ _______ _____ _____    ______ ____
ROOT
ATOM      1  O   UNL     1      33.845 -24.119 -18.969  0.00  0.00    -0.270 OA
ATOM      2  N   UNL     1      33.521 -22.547 -17.258  0.00  0.00    -0.280 N 
ATOM      3  C   UNL     1      33.930 -22.959 -18.534  0.00  0.00    +0.249 C 
ATOM      4  H   UNL     1      33.652 -21.593 -17.055  0.00  0.00    +0.155 HD
ENDROOT
BRANCH   3  10
ATOM      5  C   UNL     1      35.638 -19.967 -20.987  0.00  0.00    -0.043 C 
ATOM      6  C   UNL     1      34.259 -20.117 -20.952  0.00  0.00    -0.006 C 
ATOM      7  C   UNL     1      36.466 -20.783 -20.230  0.00  0.00    -0.006 C 
ATOM      8  C   UNL     1      33.696 -21.103 -20.143  0.00  0.00    +0.004 C 
ATOM      9  C   UNL     1      35.902 -21.769 -19.420  0.00  0.00    +0.004 C 
ATOM     10  C   UNL     1      34.517 -21.930 -19.376  0.00  0.00    +0.054 C 
BRANCH   5  11
ATOM     11  C   UNL     1      36.246 -18.901 -21.860  0.00  0.00    -0.050 C 
BRANCH  11  12
ATOM     12  N   UNL     1      35.245 -18.250 -22.703  0.00  0.00    +0.387 N 
ATOM     13  N   UNL     1      34.411 -16.805 -25.064  0.00  0.00    +0.383 N 
ATOM     14  C   UNL     1      35.154 -18.913 -24.009  0.00  0.00    -0.100 C 
ATOM     15  C   UNL     1      35.553 -16.825 -22.872  0.00  0.00    -0.100 C 
ATOM     16  C   UNL     1      34.105 -18.231 -24.895  0.00  0.00    -0.101 C 
ATOM     17  C   UNL     1      34.504 -16.142 -23.757  0.00  0.00    -0.101 C 
ATOM     18  C   UNL     1      33.409 -16.155 -25.905  0.00  0.00    -0.101 C 
ATOM     19  H   UNL     1      34.341 -18.331 -22.238  0.00  0.00    -0.079 HD
ATOM     20  H   UNL     1      35.315 -16.723 -25.531  0.00  0.00    -0.080 HD
ENDBRANCH  11  12
ENDBRANCH   5  11
ENDBRANCH   3  10
BRANCH   2  21
ATOM     21  C   UNL     1      32.944 -23.323 -16.223  0.00  0.00    +0.052 C 
ATOM     22  C   UNL     1      33.528 -23.316 -14.968  0.00  0.00    +0.030 C 
ATOM     23  C   UNL     1      32.961 -24.082 -13.949  0.00  0.00    +0.059 C 
ATOM     24  C   UNL     1      31.811 -24.070 -16.491  0.00  0.00    +0.015 C 
ATOM     25  C   UNL     1      31.818 -24.841 -14.201  0.00  0.00    +0.015 C 
ATOM     26  C   UNL     1      31.243 -24.835 -15.471  0.00  0.00    +0.003 C 
BRANCH  23  27
ATOM     27  N   UNL     1      33.541 -24.086 -12.663  0.00  0.00    -0.247 N 
ATOM     28  N   UNL     1      35.803 -24.465 -13.162  0.00  0.00    -0.337 NA
ATOM     29  N   UNL     1      35.065 -24.205 -10.883  0.00  0.00    -0.170 NA
ATOM     30  C   UNL     1      34.865 -24.261 -12.215  0.00  0.00    +0.149 C 
ATOM     31  C   UNL     1      37.059 -24.628 -12.697  0.00  0.00    +0.147 C 
ATOM     32  C   UNL     1      37.392 -24.592 -11.359  0.00  0.00    +0.055 C 
ATOM     33  C   UNL     1      36.344 -24.376 -10.488  0.00  0.00    +0.114 C 
ATOM     34  H   UNL     1      32.893 -23.939 -11.936  0.00  0.00    +0.165 HD
BRANCH  31  36
ATOM     35  N   UNL     1      39.099 -24.141 -15.778  0.00  0.00    -0.242 NA
ATOM     36  C   UNL     1      38.063 -24.846 -13.710  0.00  0.00    +0.050 C 
ATOM     37  C   UNL     1      38.945 -25.920 -13.628  0.00  0.00    +0.006 C 
ATOM     38  C   UNL     1      38.181 -23.994 -14.796  0.00  0.00    +0.101 C 
ATOM     39  C   UNL     1      39.902 -26.104 -14.620  0.00  0.00    +0.021 C 
ATOM     40  C   UNL     1      39.937 -25.195 -15.664  0.00  0.00    +0.099 C 
ENDBRANCH  31  36
ENDBRANCH  23  27
ENDBRANCH   2  21
TORSDOF 6
ENDMDL
MODEL 2
REMARK VINA RESULT:     -12.2      3.245      6.304
REMARK  Name = 4369496
REMARK  6 active torsions:
REMARK  status: ('A' for Active; 'I' for Inactive)
REMARK    1  A    between atoms: N_2  and  C_21
REMARK    2  A    between atoms: C_3  and  C_10
REMARK    3  A    between atoms: C_5  and  C_11
REMARK    4  A    between atoms: C_11  and  N_12
REMARK    5  A    between atoms: C_23  and  N_27
REMARK    6  A    between atoms: C_31  and  C_36
REMARK                            x       y       z     vdW  Elec       q    Type
REMARK                         _______ _______ _______ _____ _____    ______ ____
ROOT
ATOM      1  O   UNL     1      36.659 -18.337 -22.377  0.00  0.00    -0.270 OA
ATOM      2  N   UNL     1      34.493 -18.843 -21.634  0.00  0.00    -0.280 N 
ATOM      3  C   UNL     1      35.447 -18.078 -22.320  0.00  0.00    +0.249 C 
ATOM      4  H   UNL     1      33.567 -18.511 -21.679  0.00  0.00    +0.155 HD
ENDROOT
BRANCH   3  10
ATOM      5  C   UNL     1      33.988 -14.606 -24.246  0.00  0.00    -0.043 C 
ATOM      6  C   UNL     1      34.426 -14.525 -22.932  0.00  0.00    -0.006 C 
ATOM      7  C   UNL     1      34.021 -15.808 -24.939  0.00  0.00    -0.006 C 
ATOM      8  C   UNL     1      34.908 -15.670 -22.297  0.00  0.00    +0.004 C 
ATOM      9  C   UNL     1      34.503 -16.953 -24.304  0.00  0.00    +0.004 C 
ATOM     10  C   UNL     1      34.946 -16.884 -22.983  0.00  0.00    +0.054 C 
BRANCH   5  11
ATOM     11  C   UNL     1      33.469 -13.370 -24.933  0.00  0.00    -0.050 C 
BRANCH  11  12
ATOM     12  N   UNL     1      33.881 -12.150 -24.241  0.00  0.00    +0.387 N 
ATOM     13  N   UNL     1      33.830  -9.292 -23.808  0.00  0.00    +0.383 N 
ATOM     14  C   UNL     1      32.729 -11.496 -23.609  0.00  0.00    -0.100 C 
ATOM     15  C   UNL     1      34.551 -11.228 -25.165  0.00  0.00    -0.100 C 
ATOM     16  C   UNL     1      33.159 -10.215 -22.885  0.00  0.00    -0.101 C 
ATOM     17  C   UNL     1      34.982  -9.947 -24.442  0.00  0.00    -0.101 C 
ATOM     18  C   UNL     1      34.242  -8.073 -23.116  0.00  0.00    -0.101 C 
ATOM     19  H   UNL     1      34.542 -12.410 -23.510  0.00  0.00    -0.079 HD
ATOM     20  H   UNL     1      33.167  -9.030 -24.539  0.00  0.00    -0.080 HD
ENDBRANCH  11  12
ENDBRANCH   5  11
ENDBRANCH   3  10
BRANCH   2  21
ATOM     21  C   UNL     1      34.686 -20.029 -20.885  0.00  0.00    +0.052 C 
ATOM     22  C   UNL     1      33.609 -20.594 -20.223  0.00  0.00    +0.030 C 
ATOM     23  C   UNL     1      33.801 -21.761 -19.483  0.00  0.00    +0.059 C 
ATOM     24  C   UNL     1      35.948 -20.596 -20.832  0.00  0.00    +0.015 C 
ATOM     25  C   UNL     1      35.065 -22.346 -19.419  0.00  0.00    +0.015 C 
ATOM     26  C   UNL     1      36.139 -21.764 -20.093  0.00  0.00    +0.003 C 
BRANCH  23  27
ATOM     27  N   UNL     1      32.715 -22.351 -18.803  0.00  0.00    -0.247 N 
ATOM     28  N   UNL     1      33.712 -22.996 -16.779  0.00  0.00    -0.337 NA
ATOM     29  N   UNL     1      31.378 -23.423 -17.200  0.00  0.00    -0.170 NA
ATOM     30  C   UNL     1      32.597 -22.952 -17.535  0.00  0.00    +0.149 C 
ATOM     31  C   UNL     1      33.562 -23.578 -15.571  0.00  0.00    +0.147 C 
ATOM     32  C   UNL     1      32.369 -24.097 -15.114  0.00  0.00    +0.055 C 
ATOM     33  C   UNL     1      31.300 -23.992 -15.979  0.00  0.00    +0.114 C 
ATOM     34  H   UNL     1      31.875 -22.342 -19.317  0.00  0.00    +0.165 HD
BRANCH  31  36
ATOM     35  N   UNL     1      35.823 -24.271 -12.690  0.00  0.00    -0.242 NA
ATOM     36  C   UNL     1      34.756 -23.624 -14.761  0.00  0.00    +0.050 C 
ATOM     37  C   UNL     1      35.958 -23.098 -15.224  0.00  0.00    +0.006 C 
ATOM     38  C   UNL     1      34.742 -24.194 -13.499  0.00  0.00    +0.101 C 
ATOM     39  C   UNL     1      37.092 -23.158 -14.421  0.00  0.00    +0.021 C 
ATOM     40  C   UNL     1      36.972 -23.749 -13.174  0.00  0.00    +0.099 C 
ENDBRANCH  31  36
ENDBRANCH  23  27
ENDBRANCH   2  21
TORSDOF 6
ENDMDL
MODEL 3
REMARK VINA RESULT:     -11.9      2.660      5.839
REMARK  Name = 4369496
REMARK  6 active torsions:
REMARK  status: ('A' for Active; 'I' for Inactive)
REMARK    1  A    between atoms: N_2  and  C_21
REMARK    2  A    between atoms: C_3  and  C_10
REMARK    3  A    between atoms: C_5  and  C_11
REMARK    4  A    between atoms: C_11  and  N_12
REMARK    5  A    between atoms: C_23  and  N_27
REMARK    6  A    between atoms: C_31  and  C_36
REMARK                            x       y       z     vdW  Elec       q    Type
REMARK                         _______ _______ _______ _____ _____    ______ ____
ROOT
ATOM      1  O   UNL     1      35.315 -20.224 -23.766  0.00  0.00    -0.270 OA
ATOM      2  N   UNL     1      34.479 -19.317 -21.771  0.00  0.00    -0.280 N 
ATOM      3  C   UNL     1      34.783 -19.294 -23.139  0.00  0.00    +0.249 C 
ATOM      4  H   UNL     1      34.057 -18.502 -21.413  0.00  0.00    +0.155 HD
ENDROOT
BRANCH   3  10
ATOM      5  C   UNL     1      33.851 -15.710 -25.183  0.00  0.00    -0.043 C 
ATOM      6  C   UNL     1      33.438 -16.925 -25.711  0.00  0.00    -0.006 C 
ATOM      7  C   UNL     1      34.565 -15.652 -23.994  0.00  0.00    -0.006 C 
ATOM      8  C   UNL     1      33.744 -18.107 -25.036  0.00  0.00    +0.004 C 
ATOM      9  C   UNL     1      34.871 -16.834 -23.320  0.00  0.00    +0.004 C 
ATOM     10  C   UNL     1      34.462 -18.062 -23.841  0.00  0.00    +0.054 C 
BRANCH   5  11
ATOM     11  C   UNL     1      33.519 -14.434 -25.910  0.00  0.00    -0.050 C 
BRANCH  11  12
ATOM     12  N   UNL     1      33.811 -13.254 -25.098  0.00  0.00    +0.387 N 
ATOM     13  N   UNL     1      33.179 -10.646 -24.022  0.00  0.00    +0.383 N 
ATOM     14  C   UNL     1      32.811 -13.090 -24.037  0.00  0.00    -0.100 C 
ATOM     15  C   UNL     1      33.873 -12.049 -25.935  0.00  0.00    -0.100 C 
ATOM     16  C   UNL     1      33.116 -11.851 -23.187  0.00  0.00    -0.101 C 
ATOM     17  C   UNL     1      34.179 -10.810 -25.086  0.00  0.00    -0.101 C 
ATOM     18  C   UNL     1      33.473  -9.467 -23.211  0.00  0.00    -0.101 C 
ATOM     19  H   UNL     1      34.722 -13.390 -24.662  0.00  0.00    -0.079 HD
ATOM     20  H   UNL     1      32.266 -10.508 -24.458  0.00  0.00    -0.080 HD
ENDBRANCH  11  12
ENDBRANCH   5  11
ENDBRANCH   3  10
BRANCH   2  21
ATOM     21  C   UNL     1      34.697 -20.358 -20.835  0.00  0.00    +0.052 C 
ATOM     22  C   UNL     1      33.618 -20.892 -20.154  0.00  0.00    +0.030 C 
ATOM     23  C   UNL     1      33.834 -21.916 -19.231  0.00  0.00    +0.059 C 
ATOM     24  C   UNL     1      35.986 -20.816 -20.624  0.00  0.00    +0.015 C 
ATOM     25  C   UNL     1      35.126 -22.390 -19.006  0.00  0.00    +0.015 C 
ATOM     26  C   UNL     1      36.202 -21.841 -19.702  0.00  0.00    +0.003 C 
BRANCH  23  27
ATOM     27  N   UNL     1      32.745 -22.473 -18.528  0.00  0.00    -0.247 N 
ATOM     28  N   UNL     1      33.762 -23.135 -16.519  0.00  0.00    -0.337 NA
ATOM     29  N   UNL     1      31.411 -23.502 -16.895  0.00  0.00    -0.170 NA
ATOM     30  C   UNL     1      32.635 -23.065 -17.255  0.00  0.00    +0.149 C 
ATOM     31  C   UNL     1      33.619 -23.707 -15.305  0.00  0.00    +0.147 C 
ATOM     32  C   UNL     1      32.421 -24.192 -14.824  0.00  0.00    +0.055 C 
ATOM     33  C   UNL     1      31.340 -24.062 -15.670  0.00  0.00    +0.114 C 
ATOM     34  H   UNL     1      31.897 -22.444 -19.026  0.00  0.00    +0.165 HD
BRANCH  31  36
ATOM     35  N   UNL     1      35.890 -24.325 -12.415  0.00  0.00    -0.242 NA
ATOM     36  C   UNL     1      34.826 -23.782 -14.518  0.00  0.00    +0.050 C 
ATOM     37  C   UNL     1      36.055 -23.406 -15.050  0.00  0.00    +0.006 C 
ATOM     38  C   UNL     1      34.798 -24.230 -13.207  0.00  0.00    +0.101 C 
ATOM     39  C   UNL     1      37.201 -23.489 -14.266  0.00  0.00    +0.021 C 
ATOM     40  C   UNL     1      37.066 -23.951 -12.967  0.00  0.00    +0.099 C 
ENDBRANCH  31  36
ENDBRANCH  23  27
ENDBRANCH   2  21
TORSDOF 6
ENDMDL
MODEL 4
REMARK VINA RESULT:     -11.7      6.927     15.240
REMARK  Name = 4369496
REMARK  6 active torsions:
REMARK  status: ('A' for Active; 'I' for Inactive)
REMARK    1  A    between atoms: N_2  and  C_21
REMARK    2  A    between atoms: C_3  and  C_10
REMARK    3  A    between atoms: C_5  and  C_11
REMARK    4  A    between atoms: C_11  and  N_12
REMARK    5  A    between atoms: C_23  and  N_27
REMARK    6  A    between atoms: C_31  and  C_36
REMARK                            x       y       z     vdW  Elec       q    Type
REMARK                         _______ _______ _______ _____ _____    ______ ____
ROOT
ATOM      1  O   UNL     1      33.551 -15.470 -24.858  0.00  0.00    -0.270 OA
ATOM      2  N   UNL     1      34.467 -14.042 -23.238  0.00  0.00    -0.280 N 
ATOM      3  C   UNL     1      34.231 -15.288 -23.836  0.00  0.00    +0.249 C 
ATOM      4  H   UNL     1      35.027 -14.055 -22.429  0.00  0.00    +0.155 HD
ENDROOT
BRANCH   3  10
ATOM      5  C   UNL     1      35.948 -18.627 -21.889  0.00  0.00    -0.043 C 
ATOM      6  C   UNL     1      35.673 -18.695 -23.247  0.00  0.00    -0.006 C 
ATOM      7  C   UNL     1      35.668 -17.481 -21.159  0.00  0.00    -0.006 C 
ATOM      8  C   UNL     1      35.108 -17.594 -23.890  0.00  0.00    +0.004 C 
ATOM      9  C   UNL     1      35.103 -16.379 -21.801  0.00  0.00    +0.004 C 
ATOM     10  C   UNL     1      34.822 -16.435 -23.167  0.00  0.00    +0.054 C 
BRANCH   5  11
ATOM     11  C   UNL     1      36.560 -19.816 -21.195  0.00  0.00    -0.050 C 
BRANCH  11  12
ATOM     12  N   UNL     1      35.667 -20.373 -20.181  0.00  0.00    +0.387 N 
ATOM     13  N   UNL     1      34.048 -22.487 -19.055  0.00  0.00    +0.383 N 
ATOM     14  C   UNL     1      36.279 -21.537 -19.530  0.00  0.00    -0.100 C 
ATOM     15  C   UNL     1      34.373 -20.737 -20.770  0.00  0.00    -0.100 C 
ATOM     16  C   UNL     1      35.343 -22.123 -18.468  0.00  0.00    -0.101 C 
ATOM     17  C   UNL     1      33.435 -21.323 -19.708  0.00  0.00    -0.101 C 
ATOM     18  C   UNL     1      33.155 -23.042 -18.040  0.00  0.00    -0.101 C 
ATOM     19  H   UNL     1      35.508 -19.656 -19.474  0.00  0.00    -0.079 HD
ATOM     20  H   UNL     1      34.206 -23.206 -19.762  0.00  0.00    -0.080 HD
ENDBRANCH  11  12
ENDBRANCH   5  11
ENDBRANCH   3  10
BRANCH   2  21
ATOM     21  C   UNL     1      34.004 -12.766 -23.646  0.00  0.00    +0.052 C 
ATOM     22  C   UNL     1      33.497 -11.896 -22.696  0.00  0.00    +0.030 C 
ATOM     23  C   UNL     1      33.040 -10.641 -23.098  0.00  0.00    +0.059 C 
ATOM     24  C   UNL     1      34.070 -12.420 -24.984  0.00  0.00    +0.015 C 
ATOM     25  C   UNL     1      33.099 -10.275 -24.443  0.00  0.00    +0.015 C 
ATOM     26  C   UNL     1      33.614 -11.164 -25.386  0.00  0.00    +0.003 C 
BRANCH  23  27
ATOM     27  N   UNL     1      32.521  -9.741 -22.144  0.00  0.00    -0.247 N 
ATOM     28  N   UNL     1      32.871  -7.673 -23.198  0.00  0.00    -0.337 NA
ATOM     29  N   UNL     1      31.848  -7.795 -21.019  0.00  0.00    -0.170 NA
ATOM     30  C   UNL     1      32.409  -8.337 -22.119  0.00  0.00    +0.149 C 
ATOM     31  C   UNL     1      32.747  -6.331 -23.140  0.00  0.00    +0.147 C 
ATOM     32  C   UNL     1      32.192  -5.658 -22.071  0.00  0.00    +0.055 C 
ATOM     33  C   UNL     1      31.755  -6.449 -21.029  0.00  0.00    +0.114 C 
ATOM     34  H   UNL     1      32.169 -10.180 -21.336  0.00  0.00    +0.165 HD
BRANCH  31  36
ATOM     35  N   UNL     1      32.907  -3.900 -25.960  0.00  0.00    -0.242 NA
ATOM     36  C   UNL     1      33.241  -5.620 -24.294  0.00  0.00    +0.050 C 
ATOM     37  C   UNL     1      34.475  -5.932 -24.856  0.00  0.00    +0.006 C 
ATOM     38  C   UNL     1      32.502  -4.605 -24.880  0.00  0.00    +0.101 C 
ATOM     39  C   UNL     1      34.925  -5.230 -25.968  0.00  0.00    +0.021 C 
ATOM     40  C   UNL     1      34.110  -4.232 -26.477  0.00  0.00    +0.099 C 
ENDBRANCH  31  36
ENDBRANCH  23  27
ENDBRANCH   2  21
TORSDOF 6
ENDMDL
MODEL 5
REMARK VINA RESULT:     -11.1      9.332     17.599
REMARK  Name = 4369496
REMARK  6 active torsions:
REMARK  status: ('A' for Active; 'I' for Inactive)
REMARK    1  A    between atoms: N_2  and  C_21
REMARK    2  A    between atoms: C_3  and  C_10
REMARK    3  A    between atoms: C_5  and  C_11
REMARK    4  A    between atoms: C_11  and  N_12
REMARK    5  A    between atoms: C_23  and  N_27
REMARK    6  A    between atoms: C_31  and  C_36
REMARK                            x       y       z     vdW  Elec       q    Type
REMARK                         _______ _______ _______ _____ _____    ______ ____
ROOT
ATOM      1  O   UNL     1      34.339  -9.014 -24.067  0.00  0.00    -0.270 OA
ATOM      2  N   UNL     1      32.596  -9.498 -22.574  0.00  0.00    -0.280 N 
ATOM      3  C   UNL     1      33.519  -9.810 -23.582  0.00  0.00    +0.249 C 
ATOM      4  H   UNL     1      32.009 -10.236 -22.290  0.00  0.00    +0.155 HD
ENDROOT
BRANCH   3  10
ATOM      5  C   UNL     1      33.369 -13.768 -25.066  0.00  0.00    -0.043 C 
ATOM      6  C   UNL     1      33.735 -12.733 -25.915  0.00  0.00    -0.006 C 
ATOM      7  C   UNL     1      33.052 -13.524 -23.737  0.00  0.00    -0.006 C 
ATOM      8  C   UNL     1      33.785 -11.428 -25.425  0.00  0.00    +0.004 C 
ATOM      9  C   UNL     1      33.103 -12.219 -23.247  0.00  0.00    +0.004 C 
ATOM     10  C   UNL     1      33.469 -11.171 -24.091  0.00  0.00    +0.054 C 
BRANCH   5  11
ATOM     11  C   UNL     1      33.316 -15.177 -25.593  0.00  0.00    -0.050 C 
BRANCH  11  12
ATOM     12  N   UNL     1      33.742 -16.151 -24.589  0.00  0.00    +0.387 N 
ATOM     13  N   UNL     1      35.670 -17.942 -23.393  0.00  0.00    +0.383 N 
ATOM     14  C   UNL     1      34.881 -15.639 -23.818  0.00  0.00    -0.100 C 
ATOM     15  C   UNL     1      34.083 -17.432 -25.217  0.00  0.00    -0.100 C 
ATOM     16  C   UNL     1      35.330 -16.659 -22.766  0.00  0.00    -0.101 C 
ATOM     17  C   UNL     1      34.532 -18.454 -24.166  0.00  0.00    -0.101 C 
ATOM     18  C   UNL     1      36.095 -18.914 -22.388  0.00  0.00    -0.101 C 
ATOM     19  H   UNL     1      32.964 -16.304 -23.948  0.00  0.00    -0.079 HD
ATOM     20  H   UNL     1      36.451 -17.789 -24.033  0.00  0.00    -0.080 HD
ENDBRANCH  11  12
ENDBRANCH   5  11
ENDBRANCH   3  10
BRANCH   2  21
ATOM     21  C   UNL     1      32.396  -8.263 -21.912  0.00  0.00    +0.052 C 
ATOM     22  C   UNL     1      31.734  -7.241 -22.571  0.00  0.00    +0.030 C 
ATOM     23  C   UNL     1      31.540  -6.023 -21.918  0.00  0.00    +0.059 C 
ATOM     24  C   UNL     1      32.868  -8.105 -20.620  0.00  0.00    +0.015 C 
ATOM     25  C   UNL     1      32.008  -5.847 -20.616  0.00  0.00    +0.015 C 
ATOM     26  C   UNL     1      32.672  -6.888 -19.967  0.00  0.00    +0.003 C 
BRANCH  23  27
ATOM     27  N   UNL     1      30.867  -4.971 -22.574  0.00  0.00    -0.247 N 
ATOM     28  N   UNL     1      32.354  -4.467 -24.318  0.00  0.00    -0.337 NA
ATOM     29  N   UNL     1      30.291  -3.249 -24.060  0.00  0.00    -0.170 NA
ATOM     30  C   UNL     1      31.186  -4.193 -23.704  0.00  0.00    +0.149 C 
ATOM     31  C   UNL     1      32.627  -3.703 -25.396  0.00  0.00    +0.147 C 
ATOM     32  C   UNL     1      31.793  -2.706 -25.860  0.00  0.00    +0.055 C 
ATOM     33  C   UNL     1      30.628  -2.522 -25.145  0.00  0.00    +0.114 C 
ATOM     34  H   UNL     1      30.005  -4.735 -22.161  0.00  0.00    +0.165 HD
BRANCH  31  36
ATOM     35  N   UNL     1      35.585  -3.336 -27.633  0.00  0.00    -0.242 NA
ATOM     36  C   UNL     1      33.876  -3.997 -26.055  0.00  0.00    +0.050 C 
ATOM     37  C   UNL     1      34.574  -5.169 -25.780  0.00  0.00    +0.006 C 
ATOM     38  C   UNL     1      34.420  -3.122 -26.981  0.00  0.00    +0.101 C 
ATOM     39  C   UNL     1      35.776  -5.424 -26.431  0.00  0.00    +0.021 C 
ATOM     40  C   UNL     1      36.234  -4.485 -27.340  0.00  0.00    +0.099 C 
ENDBRANCH  31  36
ENDBRANCH  23  27
ENDBRANCH   2  21
TORSDOF 6
ENDMDL
MODEL 6
REMARK VINA RESULT:     -10.1      5.913     13.807
REMARK  Name = 4369496
REMARK  6 active torsions:
REMARK  status: ('A' for Active; 'I' for Inactive)
REMARK    1  A    between atoms: N_2  and  C_21
REMARK    2  A    between atoms: C_3  and  C_10
REMARK    3  A    between atoms: C_5  and  C_11
REMARK    4  A    between atoms: C_11  and  N_12
REMARK    5  A    between atoms: C_23  and  N_27
REMARK    6  A    between atoms: C_31  and  C_36
REMARK                            x       y       z     vdW  Elec       q    Type
REMARK                         _______ _______ _______ _____ _____    ______ ____
ROOT
ATOM      1  O   UNL     1      34.981 -16.880 -23.957  0.00  0.00    -0.270 OA
ATOM      2  N   UNL     1      34.475 -15.843 -21.914  0.00  0.00    -0.280 N 
ATOM      3  C   UNL     1      34.935 -16.897 -22.716  0.00  0.00    +0.249 C 
ATOM      4  H   UNL     1      34.499 -16.003 -20.944  0.00  0.00    +0.155 HD
ENDROOT
BRANCH   3  10
ATOM      5  C   UNL     1      36.171 -20.382 -20.663  0.00  0.00    -0.043 C 
ATOM      6  C   UNL     1      37.108 -19.412 -20.987  0.00  0.00    -0.006 C 
ATOM      7  C   UNL     1      34.834 -20.226 -21.001  0.00  0.00    -0.006 C 
ATOM      8  C   UNL     1      36.700 -18.262 -21.664  0.00  0.00    +0.004 C 
ATOM      9  C   UNL     1      34.426 -19.077 -21.677  0.00  0.00    +0.004 C 
ATOM     10  C   UNL     1      35.359 -18.094 -22.009  0.00  0.00    +0.054 C 
BRANCH   5  11
ATOM     11  C   UNL     1      36.610 -21.623 -19.931  0.00  0.00    -0.050 C 
BRANCH  11  12
ATOM     12  N   UNL     1      35.882 -21.801 -18.676  0.00  0.00    +0.387 N 
ATOM     13  N   UNL     1      34.955 -23.378 -16.437  0.00  0.00    +0.383 N 
ATOM     14  C   UNL     1      36.793 -22.201 -17.597  0.00  0.00    -0.100 C 
ATOM     15  C   UNL     1      34.808 -22.789 -18.833  0.00  0.00    -0.100 C 
ATOM     16  C   UNL     1      36.030 -22.390 -16.282  0.00  0.00    -0.101 C 
ATOM     17  C   UNL     1      34.044 -22.979 -17.518  0.00  0.00    -0.101 C 
ATOM     18  C   UNL     1      34.227 -23.554 -15.183  0.00  0.00    -0.101 C 
ATOM     19  H   UNL     1      35.461 -20.907 -18.426  0.00  0.00    -0.079 HD
ATOM     20  H   UNL     1      35.376 -24.274 -16.686  0.00  0.00    -0.080 HD
ENDBRANCH  11  12
ENDBRANCH   5  11
ENDBRANCH   3  10
BRANCH   2  21
ATOM     21  C   UNL     1      33.981 -14.578 -22.317  0.00  0.00    +0.052 C 
ATOM     22  C   UNL     1      33.348 -13.772 -21.387  0.00  0.00    +0.030 C 
ATOM     23  C   UNL     1      32.859 -12.527 -21.785  0.00  0.00    +0.059 C 
ATOM     24  C   UNL     1      34.143 -14.178 -23.633  0.00  0.00    +0.015 C 
ATOM     25  C   UNL     1      33.014 -12.107 -23.107  0.00  0.00    +0.015 C 
ATOM     26  C   UNL     1      33.655 -12.932 -24.030  0.00  0.00    +0.003 C 
BRANCH  23  27
ATOM     27  N   UNL     1      32.212 -11.691 -20.851  0.00  0.00    -0.247 N 
ATOM     28  N   UNL     1      32.659  -9.560 -21.726  0.00  0.00    -0.337 NA
ATOM     29  N   UNL     1      31.375  -9.824 -19.704  0.00  0.00    -0.170 NA
ATOM     30  C   UNL     1      32.076 -10.293 -20.756  0.00  0.00    +0.149 C 
ATOM     31  C   UNL     1      32.509  -8.225 -21.603  0.00  0.00    +0.147 C 
ATOM     32  C   UNL     1      31.815  -7.624 -20.573  0.00  0.00    +0.055 C 
ATOM     33  C   UNL     1      31.264  -8.481 -19.643  0.00  0.00    +0.114 C 
ATOM     34  H   UNL     1      31.770 -12.183 -20.122  0.00  0.00    +0.165 HD
BRANCH  31  36
ATOM     35  N   UNL     1      33.031  -5.546 -24.141  0.00  0.00    -0.242 NA
ATOM     36  C   UNL     1      33.132  -7.440 -22.641  0.00  0.00    +0.050 C 
ATOM     37  C   UNL     1      34.383  -7.780 -23.145  0.00  0.00    +0.006 C 
ATOM     38  C   UNL     1      32.503  -6.324 -23.169  0.00  0.00    +0.101 C 
ATOM     39  C   UNL     1      34.958  -7.005 -24.146  0.00  0.00    +0.021 C 
ATOM     40  C   UNL     1      34.247  -5.908 -24.605  0.00  0.00    +0.099 C 
ENDBRANCH  31  36
ENDBRANCH  23  27
ENDBRANCH   2  21
TORSDOF 6
ENDMDL
MODEL 7
REMARK VINA RESULT:      -9.8      3.268      6.239
REMARK  Name = 4369496
REMARK  6 active torsions:
REMARK  status: ('A' for Active; 'I' for Inactive)
REMARK    1  A    between atoms: N_2  and  C_21
REMARK    2  A    between atoms: C_3  and  C_10
REMARK    3  A    between atoms: C_5  and  C_11
REMARK    4  A    between atoms: C_11  and  N_12
REMARK    5  A    between atoms: C_23  and  N_27
REMARK    6  A    between atoms: C_31  and  C_36
REMARK                            x       y       z     vdW  Elec       q    Type
REMARK                         _______ _______ _______ _____ _____    ______ ____
ROOT
ATOM      1  O   UNL     1      36.509 -18.575 -22.106  0.00  0.00    -0.270 OA
ATOM      2  N   UNL     1      34.278 -18.893 -21.453  0.00  0.00    -0.280 N 
ATOM      3  C   UNL     1      35.324 -18.203 -22.082  0.00  0.00    +0.249 C 
ATOM      4  H   UNL     1      33.390 -18.474 -21.519  0.00  0.00    +0.155 HD
ENDROOT
BRANCH   3  10
ATOM      5  C   UNL     1      34.279 -14.553 -23.945  0.00  0.00    -0.043 C 
ATOM      6  C   UNL     1      34.295 -15.722 -24.693  0.00  0.00    -0.006 C 
ATOM      7  C   UNL     1      34.600 -14.563 -22.595  0.00  0.00    -0.006 C 
ATOM      8  C   UNL     1      34.639 -16.926 -24.078  0.00  0.00    +0.004 C 
ATOM      9  C   UNL     1      34.944 -15.767 -21.980  0.00  0.00    +0.004 C 
ATOM     10  C   UNL     1      34.964 -16.949 -22.722  0.00  0.00    +0.054 C 
BRANCH   5  11
ATOM     11  C   UNL     1      33.907 -13.253 -24.608  0.00  0.00    -0.050 C 
BRANCH  11  12
ATOM     12  N   UNL     1      33.643 -12.200 -23.629  0.00  0.00    +0.387 N 
ATOM     13  N   UNL     1      32.089 -10.011 -22.556  0.00  0.00    +0.383 N 
ATOM     14  C   UNL     1      32.370 -12.436 -22.939  0.00  0.00    -0.100 C 
ATOM     15  C   UNL     1      33.640 -10.880 -24.273  0.00  0.00    -0.100 C 
ATOM     16  C   UNL     1      32.092 -11.331 -21.914  0.00  0.00    -0.101 C 
ATOM     17  C   UNL     1      33.362  -9.774 -23.249  0.00  0.00    -0.101 C 
ATOM     18  C   UNL     1      31.827  -8.958 -21.577  0.00  0.00    -0.101 C 
ATOM     19  H   UNL     1      34.392 -12.218 -22.938  0.00  0.00    -0.079 HD
ATOM     20  H   UNL     1      31.339  -9.991 -23.248  0.00  0.00    -0.080 HD
ENDBRANCH  11  12
ENDBRANCH   5  11
ENDBRANCH   3  10
BRANCH   2  21
ATOM     21  C   UNL     1      34.331 -20.114 -20.737  0.00  0.00    +0.052 C 
ATOM     22  C   UNL     1      35.449 -20.401 -19.972  0.00  0.00    +0.030 C 
ATOM     23  C   UNL     1      35.501 -21.605 -19.269  0.00  0.00    +0.059 C 
ATOM     24  C   UNL     1      33.263 -20.991 -20.819  0.00  0.00    +0.015 C 
ATOM     25  C   UNL     1      34.434 -22.501 -19.339  0.00  0.00    +0.015 C 
ATOM     26  C   UNL     1      33.315 -22.194 -20.114  0.00  0.00    +0.003 C 
BRANCH  23  27
ATOM     27  N   UNL     1      36.631 -21.914 -18.483  0.00  0.00    -0.247 N 
ATOM     28  N   UNL     1      35.644 -22.871 -16.582  0.00  0.00    -0.337 NA
ATOM     29  N   UNL     1      38.037 -22.651 -16.756  0.00  0.00    -0.170 NA
ATOM     30  C   UNL     1      36.777 -22.507 -17.214  0.00  0.00    +0.149 C 
ATOM     31  C   UNL     1      35.822 -23.435 -15.369  0.00  0.00    +0.147 C 
ATOM     32  C   UNL     1      37.059 -23.638 -14.792  0.00  0.00    +0.055 C 
ATOM     33  C   UNL     1      38.142 -23.222 -15.538  0.00  0.00    +0.114 C 
ATOM     34  H   UNL     1      37.485 -21.666 -18.906  0.00  0.00    +0.165 HD
BRANCH  31  36
ATOM     35  N   UNL     1      33.551 -24.812 -12.753  0.00  0.00    -0.242 NA
ATOM     36  C   UNL     1      34.609 -23.827 -14.692  0.00  0.00    +0.050 C 
ATOM     37  C   UNL     1      33.363 -23.618 -15.274  0.00  0.00    +0.006 C 
ATOM     38  C   UNL     1      34.648 -24.423 -13.441  0.00  0.00    +0.101 C 
ATOM     39  C   UNL     1      32.212 -24.006 -14.597  0.00  0.00    +0.021 C 
ATOM     40  C   UNL     1      32.359 -24.593 -13.351  0.00  0.00    +0.099 C 
ENDBRANCH  31  36
ENDBRANCH  23  27
ENDBRANCH   2  21
TORSDOF 6
ENDMDL
MODEL 8
REMARK VINA RESULT:      -9.7      7.560     15.909
REMARK  Name = 4369496
REMARK  6 active torsions:
REMARK  status: ('A' for Active; 'I' for Inactive)
REMARK    1  A    between atoms: N_2  and  C_21
REMARK    2  A    between atoms: C_3  and  C_10
REMARK    3  A    between atoms: C_5  and  C_11
REMARK    4  A    between atoms: C_11  and  N_12
REMARK    5  A    between atoms: C_23  and  N_27
REMARK    6  A    between atoms: C_31  and  C_36
REMARK                            x       y       z     vdW  Elec       q    Type
REMARK                         _______ _______ _______ _____ _____    ______ ____
ROOT
ATOM      1  O   UNL     1      33.131 -14.369 -24.532  0.00  0.00    -0.270 OA
ATOM      2  N   UNL     1      33.942 -13.258 -22.632  0.00  0.00    -0.280 N 
ATOM      3  C   UNL     1      33.787 -14.365 -23.479  0.00  0.00    +0.249 C 
ATOM      4  H   UNL     1      34.493 -13.407 -21.831  0.00  0.00    +0.155 HD
ENDROOT
BRANCH   3  10
ATOM      5  C   UNL     1      35.676 -17.934 -22.220  0.00  0.00    -0.043 C 
ATOM      6  C   UNL     1      35.320 -17.782 -23.553  0.00  0.00    -0.006 C 
ATOM      7  C   UNL     1      35.422 -16.933 -21.294  0.00  0.00    -0.006 C 
ATOM      8  C   UNL     1      34.699 -16.605 -23.968  0.00  0.00    +0.004 C 
ATOM      9  C   UNL     1      34.800 -15.755 -21.709  0.00  0.00    +0.004 C 
ATOM     10  C   UNL     1      34.438 -15.591 -23.046  0.00  0.00    +0.054 C 
BRANCH   5  11
ATOM     11  C   UNL     1      36.349 -19.204 -21.772  0.00  0.00    -0.050 C 
BRANCH  11  12
ATOM     12  N   UNL     1      35.596 -19.874 -20.712  0.00  0.00    +0.387 N 
ATOM     13  N   UNL     1      34.180 -22.130 -19.589  0.00  0.00    +0.383 N 
ATOM     14  C   UNL     1      36.313 -21.062 -20.235  0.00  0.00    -0.100 C 
ATOM     15  C   UNL     1      34.253 -20.238 -21.178  0.00  0.00    -0.100 C 
ATOM     16  C   UNL     1      35.524 -21.766 -19.125  0.00  0.00    -0.101 C 
ATOM     17  C   UNL     1      33.463 -20.942 -20.069  0.00  0.00    -0.101 C 
ATOM     18  C   UNL     1      33.428 -22.798 -18.529  0.00  0.00    -0.101 C 
ATOM     19  H   UNL     1      35.501 -19.222 -19.934  0.00  0.00    -0.079 HD
ATOM     20  H   UNL     1      34.275 -22.784 -20.367  0.00  0.00    -0.080 HD
ENDBRANCH  11  12
ENDBRANCH   5  11
ENDBRANCH   3  10
BRANCH   2  21
ATOM     21  C   UNL     1      33.410 -11.953 -22.779  0.00  0.00    +0.052 C 
ATOM     22  C   UNL     1      34.080 -11.035 -23.568  0.00  0.00    +0.030 C 
ATOM     23  C   UNL     1      33.557  -9.749 -23.711  0.00  0.00    +0.059 C 
ATOM     24  C   UNL     1      32.232 -11.628 -22.130  0.00  0.00    +0.015 C 
ATOM     25  C   UNL     1      32.371  -9.404 -23.064  0.00  0.00    +0.015 C 
ATOM     26  C   UNL     1      31.708 -10.342 -22.273  0.00  0.00    +0.003 C 
BRANCH  23  27
ATOM     27  N   UNL     1      34.226  -8.800 -24.513  0.00  0.00    -0.247 N 
ATOM     28  N   UNL     1      33.087  -6.824 -23.963  0.00  0.00    -0.337 NA
ATOM     29  N   UNL     1      34.896  -6.808 -25.555  0.00  0.00    -0.170 NA
ATOM     30  C   UNL     1      34.061  -7.412 -24.685  0.00  0.00    +0.149 C 
ATOM     31  C   UNL     1      32.958  -5.494 -24.153  0.00  0.00    +0.147 C 
ATOM     32  C   UNL     1      33.750  -4.763 -25.014  0.00  0.00    +0.055 C 
ATOM     33  C   UNL     1      34.711  -5.479 -25.696  0.00  0.00    +0.114 C 
ATOM     34  H   UNL     1      34.949  -9.185 -25.059  0.00  0.00    +0.165 HD
BRANCH  31  36
ATOM     35  N   UNL     1      30.570  -2.903 -22.937  0.00  0.00    -0.242 NA
ATOM     36  C   UNL     1      31.916  -4.863 -23.380  0.00  0.00    +0.050 C 
ATOM     37  C   UNL     1      31.258  -5.551 -22.365  0.00  0.00    +0.006 C 
ATOM     38  C   UNL     1      31.538  -3.552 -23.623  0.00  0.00    +0.101 C 
ATOM     39  C   UNL     1      30.258  -4.916 -21.637  0.00  0.00    +0.021 C 
ATOM     40  C   UNL     1      29.954  -3.604 -21.960  0.00  0.00    +0.099 C 
ENDBRANCH  31  36
ENDBRANCH  23  27
ENDBRANCH   2  21
TORSDOF 6
ENDMDL
MODEL 9
REMARK VINA RESULT:      -9.5      7.955     13.722
REMARK  Name = 4369496
REMARK  6 active torsions:
REMARK  status: ('A' for Active; 'I' for Inactive)
REMARK    1  A    between atoms: N_2  and  C_21
REMARK    2  A    between atoms: C_3  and  C_10
REMARK    3  A    between atoms: C_5  and  C_11
REMARK    4  A    between atoms: C_11  and  N_12
REMARK    5  A    between atoms: C_23  and  N_27
REMARK    6  A    between atoms: C_31  and  C_36
REMARK                            x       y       z     vdW  Elec       q    Type
REMARK                         _______ _______ _______ _____ _____    ______ ____
ROOT
ATOM      1  O   UNL     1      31.197  -9.963 -22.090  0.00  0.00    -0.270 OA
ATOM      2  N   UNL     1      33.144 -10.554 -23.257  0.00  0.00    -0.280 N 
ATOM      3  C   UNL     1      32.153  -9.663 -22.823  0.00  0.00    +0.249 C 
ATOM      4  H   UNL     1      33.840 -10.169 -23.836  0.00  0.00    +0.155 HD
ENDROOT
BRANCH   3  10
ATOM      5  C   UNL     1      32.496  -5.688 -24.226  0.00  0.00    -0.043 C 
ATOM      6  C   UNL     1      33.609  -6.323 -23.694  0.00  0.00    -0.006 C 
ATOM      7  C   UNL     1      31.272  -6.336 -24.305  0.00  0.00    -0.006 C 
ATOM      8  C   UNL     1      33.496  -7.634 -23.232  0.00  0.00    +0.004 C 
ATOM      9  C   UNL     1      31.159  -7.648 -23.843  0.00  0.00    +0.004 C 
ATOM     10  C   UNL     1      32.271  -8.297 -23.306  0.00  0.00    +0.054 C 
BRANCH   5  11
ATOM     11  C   UNL     1      32.617  -4.272 -24.726  0.00  0.00    -0.050 C 
BRANCH  11  12
ATOM     12  N   UNL     1      32.840  -4.223 -26.170  0.00  0.00    +0.387 N 
ATOM     13  N   UNL     1      34.027  -3.104 -28.557  0.00  0.00    +0.383 N 
ATOM     14  C   UNL     1      34.257  -4.435 -26.486  0.00  0.00    -0.100 C 
ATOM     15  C   UNL     1      32.376  -2.945 -26.725  0.00  0.00    -0.100 C 
ATOM     16  C   UNL     1      34.491  -4.381 -28.000  0.00  0.00    -0.101 C 
ATOM     17  C   UNL     1      32.610  -2.891 -28.239  0.00  0.00    -0.101 C 
ATOM     18  C   UNL     1      34.249  -3.056 -30.000  0.00  0.00    -0.101 C 
ATOM     19  H   UNL     1      32.299  -4.974 -26.598  0.00  0.00    -0.079 HD
ATOM     20  H   UNL     1      34.570  -2.352 -28.130  0.00  0.00    -0.080 HD
ENDBRANCH  11  12
ENDBRANCH   5  11
ENDBRANCH   3  10
BRANCH   2  21
ATOM     21  C   UNL     1      33.275 -11.936 -22.973  0.00  0.00    +0.052 C 
ATOM     22  C   UNL     1      33.285 -12.843 -24.019  0.00  0.00    +0.030 C 
ATOM     23  C   UNL     1      33.412 -14.204 -23.738  0.00  0.00    +0.059 C 
ATOM     24  C   UNL     1      33.388 -12.346 -21.656  0.00  0.00    +0.015 C 
ATOM     25  C   UNL     1      33.528 -14.635 -22.417  0.00  0.00    +0.015 C 
ATOM     26  C   UNL     1      33.516 -13.707 -21.376  0.00  0.00    +0.003 C 
BRANCH  23  27
ATOM     27  N   UNL     1      33.426 -15.143 -24.791  0.00  0.00    -0.247 N 
ATOM     28  N   UNL     1      34.361 -17.022 -23.743  0.00  0.00    -0.337 NA
ATOM     29  N   UNL     1      33.720 -17.091 -26.064  0.00  0.00    -0.170 NA
ATOM     30  C   UNL     1      33.856 -16.481 -24.869  0.00  0.00    +0.149 C 
ATOM     31  C   UNL     1      34.763 -18.305 -23.854  0.00  0.00    +0.147 C 
ATOM     32  C   UNL     1      34.676 -19.037 -25.021  0.00  0.00    +0.055 C 
ATOM     33  C   UNL     1      34.142 -18.372 -26.104  0.00  0.00    +0.114 C 
ATOM     34  H   UNL     1      33.064 -14.792 -25.637  0.00  0.00    +0.165 HD
BRANCH  31  36
ATOM     35  N   UNL     1      37.132 -19.049 -21.074  0.00  0.00    -0.242 NA
ATOM     36  C   UNL     1      35.304 -18.885 -22.648  0.00  0.00    +0.050 C 
ATOM     37  C   UNL     1      34.571 -19.804 -21.903  0.00  0.00    +0.006 C 
ATOM     38  C   UNL     1      36.568 -18.544 -22.194  0.00  0.00    +0.101 C 
ATOM     39  C   UNL     1      35.119 -20.345 -20.745  0.00  0.00    +0.021 C 
ATOM     40  C   UNL     1      36.391 -19.938 -20.377  0.00  0.00    +0.099 C 
ENDBRANCH  31  36
ENDBRANCH  23  27
ENDBRANCH   2  21
TORSDOF 6
ENDMDL
