MODEL 1
REMARK VINA RESULT:     -12.5      0.000      0.000
REMARK  Name = 1712
REMARK  5 active torsions:
REMARK  status: ('A' for Active; 'I' for Inactive)
REMARK    1  A    between atoms: C_1  and  N_18
REMARK    2  A    between atoms: C_2  and  S_7
REMARK    3  A    between atoms: S_7  and  N_10
REMARK    4  A    between atoms: N_18  and  C_20
REMARK    5  A    between atoms: C_20  and  C_26
REMARK                            x       y       z     vdW  Elec       q    Type
REMARK                         _______ _______ _______ _____ _____    ______ ____
ROOT
ATOM      1  C   UNL     1      34.405 -20.065 -21.022  0.00  0.00    +0.045 C 
ATOM      2  C   UNL     1      34.141 -22.111 -19.108  0.00  0.00    +0.125 C 
ATOM      3  C   UNL     1      33.135 -20.503 -20.606  0.00  0.00    +0.016 C 
ATOM      4  C   UNL     1      35.540 -20.676 -20.458  0.00  0.00    +0.016 C 
ATOM      5  C   UNL     1      33.004 -21.517 -19.657  0.00  0.00    +0.021 C 
ATOM      6  C   UNL     1      35.409 -21.690 -19.509  0.00  0.00    +0.021 C 
ENDROOT
BRANCH   2   7
ATOM      7  S   UNL     1      33.977 -23.380 -17.921  0.00  0.00    +0.075 S 
ATOM      8  O   UNL     1      35.161 -23.350 -17.071  0.00  0.00    -0.150 OA
ATOM      9  O   UNL     1      33.637 -24.620 -18.608  0.00  0.00    -0.150 OA
BRANCH   7  10
ATOM     10  N   UNL     1      32.631 -22.853 -16.982  0.00  0.00    -0.199 N 
ATOM     11  H   UNL     1      32.158 -22.019 -17.200  0.00  0.00    +0.175 HD
ATOM     12  N   UNL     1      33.088 -23.734 -14.842  0.00  0.00    -0.228 NA
ATOM     13  C   UNL     1      32.221 -23.670 -15.871  0.00  0.00    +0.147 C 
ATOM     14  C   UNL     1      31.004 -24.320 -15.918  0.00  0.00    +0.036 C 
ATOM     15  C   UNL     1      30.648 -25.098 -14.822  0.00  0.00    +0.005 C 
ATOM     16  C   UNL     1      32.708 -24.499 -13.794  0.00  0.00    +0.100 C 
ATOM     17  C   UNL     1      31.511 -25.194 -13.736  0.00  0.00    +0.021 C 
ENDBRANCH   7  10
ENDBRANCH   2   7
BRANCH   1  18
ATOM     18  N   UNL     1      34.536 -19.057 -21.965  0.00  0.00    -0.328 N 
ATOM     19  H   UNL     1      34.200 -18.160 -21.734  0.00  0.00    +0.147 HD
BRANCH  18  20
ATOM     20  C   UNL     1      35.132 -19.245 -23.264  0.00  0.00    +0.127 C 
BRANCH  20  26
ATOM     21  S   UNL     1      35.085 -15.996 -21.696  0.00  0.00    -0.104 S 
ATOM     22  O   UNL     1      34.154 -19.936 -25.949  0.00  0.00    -0.210 OA
ATOM     23  N   UNL     1      33.539 -17.713 -26.275  0.00  0.00    -0.333 NA
ATOM     24  N   UNL     1      34.224 -13.713 -22.576  0.00  0.00    -0.262 NA
ATOM     25  C   UNL     1      34.257 -16.996 -24.192  0.00  0.00    +0.033 C 
ATOM     26  C   UNL     1      34.523 -18.299 -24.229  0.00  0.00    +0.092 C 
ATOM     27  C   UNL     1      33.645 -16.689 -25.495  0.00  0.00    +0.142 C 
ATOM     28  C   UNL     1      34.422 -15.958 -23.263  0.00  0.00    +0.114 C 
ATOM     29  C   UNL     1      34.064 -18.777 -25.569  0.00  0.00    +0.202 C 
ATOM     30  C   UNL     1      34.024 -14.661 -23.546  0.00  0.00    +0.069 C 
ATOM     31  C   UNL     1      33.231 -15.285 -25.761  0.00  0.00    +0.034 C 
ATOM     32  C   UNL     1      33.427 -14.350 -24.809  0.00  0.00    +0.018 C 
ATOM     33  C   UNL     1      34.784 -14.307 -21.544  0.00  0.00    +0.183 C 
ENDBRANCH  20  26
ENDBRANCH  18  20
ENDBRANCH   1  18
TORSDOF 5
ENDMDL
MODEL 2
REMARK VINA RESULT:     -12.3      6.003     12.459
REMARK  Name = 1712
REMARK  5 active torsions:
REMARK  status: ('A' for Active; 'I' for Inactive)
REMARK    1  A    between atoms: C_1  and  N_18
REMARK    2  A    between atoms: C_2  and  S_7
REMARK    3  A    between atoms: S_7  and  N_10
REMARK    4  A    between atoms: N_18  and  C_20
REMARK    5  A    between atoms: C_20  and  C_26
REMARK                            x       y       z     vdW  Elec       q    Type
REMARK                         _______ _______ _______ _____ _____    ______ ____
ROOT
ATOM      1  C   UNL     1      32.725 -12.350 -22.773  0.00  0.00    +0.045 C 
ATOM      2  C   UNL     1      32.170  -9.629 -22.318  0.00  0.00    +0.125 C 
ATOM      3  C   UNL     1      31.863 -11.954 -21.734  0.00  0.00    +0.016 C 
ATOM      4  C   UNL     1      33.303 -11.352 -23.579  0.00  0.00    +0.016 C 
ATOM      5  C   UNL     1      31.588 -10.605 -21.509  0.00  0.00    +0.021 C 
ATOM      6  C   UNL     1      33.028 -10.003 -23.353  0.00  0.00    +0.021 C 
ENDROOT
BRANCH   2   7
ATOM      7  S   UNL     1      31.827  -7.942 -22.035  0.00  0.00    +0.075 S 
ATOM      8  O   UNL     1      31.528  -7.780 -20.617  0.00  0.00    -0.150 OA
ATOM      9  O   UNL     1      30.845  -7.494 -23.015  0.00  0.00    -0.150 OA
BRANCH   7  10
ATOM     10  N   UNL     1      33.343  -7.185 -22.352  0.00  0.00    -0.199 N 
ATOM     11  H   UNL     1      34.112  -7.322 -21.753  0.00  0.00    +0.175 HD
ATOM     12  N   UNL     1      32.735  -5.208 -23.485  0.00  0.00    -0.228 NA
ATOM     13  C   UNL     1      33.451  -6.348 -23.516  0.00  0.00    +0.147 C 
ATOM     14  C   UNL     1      34.256  -6.746 -24.566  0.00  0.00    +0.036 C 
ATOM     15  C   UNL     1      34.331  -5.906 -25.672  0.00  0.00    +0.005 C 
ATOM     16  C   UNL     1      32.832  -4.417 -24.577  0.00  0.00    +0.100 C 
ATOM     17  C   UNL     1      33.609  -4.717 -25.685  0.00  0.00    +0.021 C 
ENDBRANCH   7  10
ENDBRANCH   2   7
BRANCH   1  18
ATOM     18  N   UNL     1      32.997 -13.691 -22.998  0.00  0.00    -0.328 N 
ATOM     19  H   UNL     1      32.280 -14.345 -22.832  0.00  0.00    +0.147 HD
BRANCH  18  20
ATOM     20  C   UNL     1      34.271 -14.184 -23.460  0.00  0.00    +0.127 C 
BRANCH  20  26
ATOM     21  S   UNL     1      35.451 -17.062 -21.630  0.00  0.00    -0.104 S 
ATOM     22  O   UNL     1      33.103 -14.151 -26.158  0.00  0.00    -0.210 OA
ATOM     23  N   UNL     1      33.361 -16.463 -26.276  0.00  0.00    -0.333 NA
ATOM     24  N   UNL     1      35.503 -19.571 -22.287  0.00  0.00    -0.262 NA
ATOM     25  C   UNL     1      34.300 -16.671 -24.168  0.00  0.00    +0.033 C 
ATOM     26  C   UNL     1      34.059 -15.372 -24.322  0.00  0.00    +0.092 C 
ATOM     27  C   UNL     1      33.844 -17.300 -25.418  0.00  0.00    +0.142 C 
ATOM     28  C   UNL     1      34.844 -17.485 -23.162  0.00  0.00    +0.114 C 
ATOM     29  C   UNL     1      33.452 -15.222 -25.680  0.00  0.00    +0.202 C 
ATOM     30  C   UNL     1      34.959 -18.856 -23.323  0.00  0.00    +0.069 C 
ATOM     31  C   UNL     1      33.984 -18.775 -25.552  0.00  0.00    +0.034 C 
ATOM     32  C   UNL     1      34.519 -19.480 -24.535  0.00  0.00    +0.018 C 
ATOM     33  C   UNL     1      35.804 -18.720 -21.329  0.00  0.00    +0.183 C 
ENDBRANCH  20  26
ENDBRANCH  18  20
ENDBRANCH   1  18
TORSDOF 5
ENDMDL
MODEL 3
REMARK VINA RESULT:     -11.9      2.434     10.331
REMARK  Name = 1712
REMARK  5 active torsions:
REMARK  status: ('A' for Active; 'I' for Inactive)
REMARK    1  A    between atoms: C_1  and  N_18
REMARK    2  A    between atoms: C_2  and  S_7
REMARK    3  A    between atoms: S_7  and  N_10
REMARK    4  A    between atoms: N_18  and  C_20
REMARK    5  A    between atoms: C_20  and  C_26
REMARK                            x       y       z     vdW  Elec       q    Type
REMARK                         _______ _______ _______ _____ _____    ______ ____
ROOT
ATOM      1  C   UNL     1      35.273 -19.138 -21.445  0.00  0.00    +0.045 C 
ATOM      2  C   UNL     1      34.639 -17.738 -23.802  0.00  0.00    +0.125 C 
ATOM      3  C   UNL     1      34.739 -19.809 -22.560  0.00  0.00    +0.016 C 
ATOM      4  C   UNL     1      35.482 -17.750 -21.538  0.00  0.00    +0.016 C 
ATOM      5  C   UNL     1      34.425 -19.115 -23.729  0.00  0.00    +0.021 C 
ATOM      6  C   UNL     1      35.168 -17.056 -22.706  0.00  0.00    +0.021 C 
ENDROOT
BRANCH   2   7
ATOM      7  S   UNL     1      34.245 -16.870 -25.264  0.00  0.00    +0.075 S 
ATOM      8  O   UNL     1      33.557 -17.794 -26.159  0.00  0.00    -0.150 OA
ATOM      9  O   UNL     1      35.444 -16.192 -25.742  0.00  0.00    -0.150 OA
BRANCH   7  10
ATOM     10  N   UNL     1      33.101 -15.703 -24.719  0.00  0.00    -0.199 N 
ATOM     11  H   UNL     1      32.299 -15.976 -24.217  0.00  0.00    +0.175 HD
ATOM     12  N   UNL     1      33.281 -13.980 -26.319  0.00  0.00    -0.228 NA
ATOM     13  C   UNL     1      33.352 -14.319 -25.018  0.00  0.00    +0.147 C 
ATOM     14  C   UNL     1      33.642 -13.443 -23.990  0.00  0.00    +0.036 C 
ATOM     15  C   UNL     1      33.878 -12.114 -24.325  0.00  0.00    +0.005 C 
ATOM     16  C   UNL     1      33.516 -12.680 -26.607  0.00  0.00    +0.100 C 
ATOM     17  C   UNL     1      33.815 -11.718 -25.656  0.00  0.00    +0.021 C 
ENDBRANCH   7  10
ENDBRANCH   2   7
BRANCH   1  18
ATOM     18  N   UNL     1      35.587 -19.827 -20.283  0.00  0.00    -0.328 N 
ATOM     19  H   UNL     1      35.735 -19.307 -19.460  0.00  0.00    +0.147 HD
BRANCH  18  20
ATOM     20  C   UNL     1      35.711 -21.262 -20.211  0.00  0.00    +0.127 C 
BRANCH  20  26
ATOM     21  S   UNL     1      37.379 -22.401 -17.222  0.00  0.00    -0.104 S 
ATOM     22  O   UNL     1      32.829 -21.368 -20.786  0.00  0.00    -0.210 OA
ATOM     23  N   UNL     1      32.470 -22.349 -18.705  0.00  0.00    -0.333 NA
ATOM     24  N   UNL     1      36.424 -23.490 -15.070  0.00  0.00    -0.262 NA
ATOM     25  C   UNL     1      34.703 -22.345 -18.089  0.00  0.00    +0.033 C 
ATOM     26  C   UNL     1      34.670 -21.802 -19.304  0.00  0.00    +0.092 C 
ATOM     27  C   UNL     1      33.303 -22.666 -17.770  0.00  0.00    +0.142 C 
ATOM     28  C   UNL     1      35.698 -22.645 -17.146  0.00  0.00    +0.114 C 
ATOM     29  C   UNL     1      33.232 -21.799 -19.715  0.00  0.00    +0.202 C 
ATOM     30  C   UNL     1      35.388 -23.233 -15.929  0.00  0.00    +0.069 C 
ATOM     31  C   UNL     1      33.012 -23.295 -16.453  0.00  0.00    +0.034 C 
ATOM     32  C   UNL     1      34.030 -23.550 -15.606  0.00  0.00    +0.018 C 
ATOM     33  C   UNL     1      37.535 -23.089 -15.651  0.00  0.00    +0.183 C 
ENDBRANCH  20  26
ENDBRANCH  18  20
ENDBRANCH   1  18
TORSDOF 5
ENDMDL
MODEL 4
REMARK VINA RESULT:     -11.9      6.118     12.466
REMARK  Name = 1712
REMARK  5 active torsions:
REMARK  status: ('A' for Active; 'I' for Inactive)
REMARK    1  A    between atoms: C_1  and  N_18
REMARK    2  A    between atoms: C_2  and  S_7
REMARK    3  A    between atoms: S_7  and  N_10
REMARK    4  A    between atoms: N_18  and  C_20
REMARK    5  A    between atoms: C_20  and  C_26
REMARK                            x       y       z     vdW  Elec       q    Type
REMARK                         _______ _______ _______ _____ _____    ______ ____
ROOT
ATOM      1  C   UNL     1      32.776 -12.368 -22.904  0.00  0.00    +0.045 C 
ATOM      2  C   UNL     1      32.484  -9.676 -22.140  0.00  0.00    +0.125 C 
ATOM      3  C   UNL     1      32.011 -12.017 -21.776  0.00  0.00    +0.016 C 
ATOM      4  C   UNL     1      33.392 -11.340 -23.639  0.00  0.00    +0.016 C 
ATOM      5  C   UNL     1      31.866 -10.683 -21.398  0.00  0.00    +0.021 C 
ATOM      6  C   UNL     1      33.247 -10.005 -23.261  0.00  0.00    +0.021 C 
ENDROOT
BRANCH   2   7
ATOM      7  S   UNL     1      32.304  -8.006 -21.666  0.00  0.00    +0.075 S 
ATOM      8  O   UNL     1      33.595  -7.351 -21.842  0.00  0.00    -0.150 OA
ATOM      9  O   UNL     1      31.666  -7.959 -20.356  0.00  0.00    -0.150 OA
BRANCH   7  10
ATOM     10  N   UNL     1      31.223  -7.385 -22.856  0.00  0.00    -0.199 N 
ATOM     11  H   UNL     1      30.367  -7.833 -23.045  0.00  0.00    +0.175 HD
ATOM     12  N   UNL     1      32.662  -6.322 -24.392  0.00  0.00    -0.228 NA
ATOM     13  C   UNL     1      31.608  -6.194 -23.564  0.00  0.00    +0.147 C 
ATOM     14  C   UNL     1      30.900  -5.025 -23.362  0.00  0.00    +0.036 C 
ATOM     15  C   UNL     1      31.307  -3.898 -24.068  0.00  0.00    +0.005 C 
ATOM     16  C   UNL     1      33.030  -5.205 -25.061  0.00  0.00    +0.100 C 
ATOM     17  C   UNL     1      32.391  -3.982 -24.935  0.00  0.00    +0.021 C 
ENDBRANCH   7  10
ENDBRANCH   2   7
BRANCH   1  18
ATOM     18  N   UNL     1      32.919 -13.695 -23.281  0.00  0.00    -0.328 N 
ATOM     19  H   UNL     1      32.103 -14.226 -23.431  0.00  0.00    +0.147 HD
BRANCH  18  20
ATOM     20  C   UNL     1      34.193 -14.344 -23.464  0.00  0.00    +0.127 C 
BRANCH  20  26
ATOM     21  S   UNL     1      35.431 -17.184 -21.615  0.00  0.00    -0.104 S 
ATOM     22  O   UNL     1      33.050 -14.350 -26.173  0.00  0.00    -0.210 OA
ATOM     23  N   UNL     1      33.369 -16.654 -26.282  0.00  0.00    -0.333 NA
ATOM     24  N   UNL     1      35.555 -19.693 -22.263  0.00  0.00    -0.262 NA
ATOM     25  C   UNL     1      34.293 -16.832 -24.165  0.00  0.00    +0.033 C 
ATOM     26  C   UNL     1      34.020 -15.539 -24.325  0.00  0.00    +0.092 C 
ATOM     27  C   UNL     1      33.866 -17.476 -25.417  0.00  0.00    +0.142 C 
ATOM     28  C   UNL     1      34.849 -17.627 -23.151  0.00  0.00    +0.114 C 
ATOM     29  C   UNL     1      33.422 -15.409 -25.689  0.00  0.00    +0.202 C 
ATOM     30  C   UNL     1      35.001 -18.996 -23.307  0.00  0.00    +0.069 C 
ATOM     31  C   UNL     1      34.046 -18.947 -25.544  0.00  0.00    +0.034 C 
ATOM     32  C   UNL     1      34.590 -19.634 -24.520  0.00  0.00    +0.018 C 
ATOM     33  C   UNL     1      35.825 -18.831 -21.305  0.00  0.00    +0.183 C 
ENDBRANCH  20  26
ENDBRANCH  18  20
ENDBRANCH   1  18
TORSDOF 5
ENDMDL
MODEL 5
REMARK VINA RESULT:     -11.7      1.835      2.794
REMARK  Name = 1712
REMARK  5 active torsions:
REMARK  status: ('A' for Active; 'I' for Inactive)
REMARK    1  A    between atoms: C_1  and  N_18
REMARK    2  A    between atoms: C_2  and  S_7
REMARK    3  A    between atoms: S_7  and  N_10
REMARK    4  A    between atoms: N_18  and  C_20
REMARK    5  A    between atoms: C_20  and  C_26
REMARK                            x       y       z     vdW  Elec       q    Type
REMARK                         _______ _______ _______ _____ _____    ______ ____
ROOT
ATOM      1  C   UNL     1      34.185 -20.113 -21.421  0.00  0.00    +0.045 C 
ATOM      2  C   UNL     1      34.064 -21.979 -19.318  0.00  0.00    +0.125 C 
ATOM      3  C   UNL     1      35.360 -20.668 -20.881  0.00  0.00    +0.016 C 
ATOM      4  C   UNL     1      32.949 -20.514 -20.883  0.00  0.00    +0.016 C 
ATOM      5  C   UNL     1      35.300 -21.593 -19.839  0.00  0.00    +0.021 C 
ATOM      6  C   UNL     1      32.889 -21.439 -19.841  0.00  0.00    +0.021 C 
ENDROOT
BRANCH   2   7
ATOM      7  S   UNL     1      33.989 -23.135 -18.013  0.00  0.00    +0.075 S 
ATOM      8  O   UNL     1      35.154 -22.922 -17.162  0.00  0.00    -0.150 OA
ATOM      9  O   UNL     1      33.764 -24.461 -18.576  0.00  0.00    -0.150 OA
BRANCH   7  10
ATOM     10  N   UNL     1      32.590 -22.635 -17.140  0.00  0.00    -0.199 N 
ATOM     11  H   UNL     1      32.121 -21.801 -17.370  0.00  0.00    +0.175 HD
ATOM     12  N   UNL     1      32.940 -23.546 -14.992  0.00  0.00    -0.228 NA
ATOM     13  C   UNL     1      32.129 -23.472 -16.065  0.00  0.00    +0.147 C 
ATOM     14  C   UNL     1      30.922 -24.132 -16.188  0.00  0.00    +0.036 C 
ATOM     15  C   UNL     1      30.515 -24.930 -15.125  0.00  0.00    +0.005 C 
ATOM     16  C   UNL     1      32.512 -24.331 -13.978  0.00  0.00    +0.100 C 
ATOM     17  C   UNL     1      31.319 -25.037 -13.995  0.00  0.00    +0.021 C 
ENDBRANCH   7  10
ENDBRANCH   2   7
BRANCH   1  18
ATOM     18  N   UNL     1      34.245 -19.195 -22.459  0.00  0.00    -0.328 N 
ATOM     19  H   UNL     1      33.473 -19.132 -23.068  0.00  0.00    +0.147 HD
BRANCH  18  20
ATOM     20  C   UNL     1      35.371 -18.328 -22.699  0.00  0.00    +0.127 C 
BRANCH  20  26
ATOM     21  S   UNL     1      34.038 -16.652 -25.602  0.00  0.00    -0.104 S 
ATOM     22  O   UNL     1      35.730 -17.202 -20.006  0.00  0.00    -0.210 OA
ATOM     23  N   UNL     1      34.858 -15.178 -20.758  0.00  0.00    -0.333 NA
ATOM     24  N   UNL     1      33.160 -14.228 -25.894  0.00  0.00    -0.262 NA
ATOM     25  C   UNL     1      34.509 -15.900 -22.932  0.00  0.00    +0.033 C 
ATOM     26  C   UNL     1      35.027 -16.945 -22.289  0.00  0.00    +0.092 C 
ATOM     27  C   UNL     1      34.428 -14.829 -21.926  0.00  0.00    +0.142 C 
ATOM     28  C   UNL     1      34.070 -15.636 -24.238  0.00  0.00    +0.114 C 
ATOM     29  C   UNL     1      35.258 -16.492 -20.883  0.00  0.00    +0.202 C 
ATOM     30  C   UNL     1      33.565 -14.395 -24.594  0.00  0.00    +0.069 C 
ATOM     31  C   UNL     1      33.879 -13.512 -22.349  0.00  0.00    +0.034 C 
ATOM     32  C   UNL     1      33.481 -13.345 -23.625  0.00  0.00    +0.018 C 
ATOM     33  C   UNL     1      33.365 -15.364 -26.526  0.00  0.00    +0.183 C 
ENDBRANCH  20  26
ENDBRANCH  18  20
ENDBRANCH   1  18
TORSDOF 5
ENDMDL
MODEL 6
REMARK VINA RESULT:     -11.7      4.063      6.964
REMARK  Name = 1712
REMARK  5 active torsions:
REMARK  status: ('A' for Active; 'I' for Inactive)
REMARK    1  A    between atoms: C_1  and  N_18
REMARK    2  A    between atoms: C_2  and  S_7
REMARK    3  A    between atoms: S_7  and  N_10
REMARK    4  A    between atoms: N_18  and  C_20
REMARK    5  A    between atoms: C_20  and  C_26
REMARK                            x       y       z     vdW  Elec       q    Type
REMARK                         _______ _______ _______ _____ _____    ______ ____
ROOT
ATOM      1  C   UNL     1      34.065 -14.635 -23.993  0.00  0.00    +0.045 C 
ATOM      2  C   UNL     1      35.027 -17.134 -23.129  0.00  0.00    +0.125 C 
ATOM      3  C   UNL     1      34.555 -14.806 -22.685  0.00  0.00    +0.016 C 
ATOM      4  C   UNL     1      34.067 -15.745 -24.857  0.00  0.00    +0.016 C 
ATOM      5  C   UNL     1      35.032 -16.045 -22.257  0.00  0.00    +0.021 C 
ATOM      6  C   UNL     1      34.544 -16.983 -24.429  0.00  0.00    +0.021 C 
ENDROOT
BRANCH   2   7
ATOM      7  S   UNL     1      35.622 -18.685 -22.593  0.00  0.00    +0.075 S 
ATOM      8  O   UNL     1      37.067 -18.573 -22.424  0.00  0.00    -0.150 OA
ATOM      9  O   UNL     1      35.096 -19.718 -23.477  0.00  0.00    -0.150 OA
BRANCH   7  10
ATOM     10  N   UNL     1      34.913 -18.847 -21.031  0.00  0.00    -0.199 N 
ATOM     11  H   UNL     1      34.610 -18.057 -20.528  0.00  0.00    +0.175 HD
ATOM     12  N   UNL     1      35.930 -20.796 -20.175  0.00  0.00    -0.228 NA
ATOM     13  C   UNL     1      34.778 -20.170 -20.484  0.00  0.00    +0.147 C 
ATOM     14  C   UNL     1      33.517 -20.709 -20.311  0.00  0.00    +0.036 C 
ATOM     15  C   UNL     1      33.434 -21.990 -19.779  0.00  0.00    +0.005 C 
ATOM     16  C   UNL     1      35.809 -22.040 -19.660  0.00  0.00    +0.100 C 
ATOM     17  C   UNL     1      34.597 -22.675 -19.445  0.00  0.00    +0.021 C 
ENDBRANCH   7  10
ENDBRANCH   2   7
BRANCH   1  18
ATOM     18  N   UNL     1      33.592 -13.403 -24.419  0.00  0.00    -0.328 N 
ATOM     19  H   UNL     1      33.842 -13.096 -25.321  0.00  0.00    +0.147 HD
BRANCH  18  20
ATOM     20  C   UNL     1      32.757 -12.544 -23.618  0.00  0.00    +0.127 C 
BRANCH  20  26
ATOM     21  S   UNL     1      31.550 -10.854 -20.667  0.00  0.00    -0.104 S 
ATOM     22  O   UNL     1      34.480 -11.429 -25.723  0.00  0.00    -0.210 OA
ATOM     23  N   UNL     1      34.530  -9.400 -24.580  0.00  0.00    -0.333 NA
ATOM     24  N   UNL     1      31.941  -8.428 -19.836  0.00  0.00    -0.262 NA
ATOM     25  C   UNL     1      33.179 -10.114 -22.839  0.00  0.00    +0.033 C 
ATOM     26  C   UNL     1      33.293 -11.162 -23.651  0.00  0.00    +0.092 C 
ATOM     27  C   UNL     1      33.971  -9.046 -23.470  0.00  0.00    +0.142 C 
ATOM     28  C   UNL     1      32.526  -9.843 -21.626  0.00  0.00    +0.114 C 
ATOM     29  C   UNL     1      34.163 -10.715 -24.782  0.00  0.00    +0.202 C 
ATOM     30  C   UNL     1      32.613  -8.601 -21.019  0.00  0.00    +0.069 C 
ATOM     31  C   UNL     1      34.039  -7.727 -22.786  0.00  0.00    +0.034 C 
ATOM     32  C   UNL     1      33.379  -7.554 -21.623  0.00  0.00    +0.018 C 
ATOM     33  C   UNL     1      31.337  -9.562 -19.549  0.00  0.00    +0.183 C 
ENDBRANCH  20  26
ENDBRANCH  18  20
ENDBRANCH   1  18
TORSDOF 5
ENDMDL
MODEL 7
REMARK VINA RESULT:     -11.6      2.347     10.363
REMARK  Name = 1712
REMARK  5 active torsions:
REMARK  status: ('A' for Active; 'I' for Inactive)
REMARK    1  A    between atoms: C_1  and  N_18
REMARK    2  A    between atoms: C_2  and  S_7
REMARK    3  A    between atoms: S_7  and  N_10
REMARK    4  A    between atoms: N_18  and  C_20
REMARK    5  A    between atoms: C_20  and  C_26
REMARK                            x       y       z     vdW  Elec       q    Type
REMARK                         _______ _______ _______ _____ _____    ______ ____
ROOT
ATOM      1  C   UNL     1      33.764 -21.819 -19.598  0.00  0.00    +0.045 C 
ATOM      2  C   UNL     1      35.204 -19.821 -20.959  0.00  0.00    +0.125 C 
ATOM      3  C   UNL     1      35.168 -21.767 -19.527  0.00  0.00    +0.016 C 
ATOM      4  C   UNL     1      33.098 -20.849 -20.368  0.00  0.00    +0.016 C 
ATOM      5  C   UNL     1      35.882 -20.776 -20.201  0.00  0.00    +0.021 C 
ATOM      6  C   UNL     1      33.812 -19.858 -21.043  0.00  0.00    +0.021 C 
ENDROOT
BRANCH   2   7
ATOM      7  S   UNL     1      36.097 -18.582 -21.804  0.00  0.00    +0.075 S 
ATOM      8  O   UNL     1      37.499 -18.705 -21.423  0.00  0.00    -0.150 OA
ATOM      9  O   UNL     1      35.424 -17.304 -21.605  0.00  0.00    -0.150 OA
BRANCH   7  10
ATOM     10  N   UNL     1      35.947 -19.061 -23.453  0.00  0.00    -0.199 N 
ATOM     11  H   UNL     1      36.520 -19.768 -23.829  0.00  0.00    +0.175 HD
ATOM     12  N   UNL     1      35.196 -17.096 -24.521  0.00  0.00    -0.228 NA
ATOM     13  C   UNL     1      34.961 -18.397 -24.263  0.00  0.00    +0.147 C 
ATOM     14  C   UNL     1      33.866 -19.106 -24.717  0.00  0.00    +0.036 C 
ATOM     15  C   UNL     1      32.939 -18.424 -25.498  0.00  0.00    +0.005 C 
ATOM     16  C   UNL     1      34.273 -16.466 -25.282  0.00  0.00    +0.100 C 
ATOM     17  C   UNL     1      33.139 -17.079 -25.790  0.00  0.00    +0.021 C 
ENDBRANCH   7  10
ENDBRANCH   2   7
BRANCH   1  18
ATOM     18  N   UNL     1      33.055 -22.804 -18.927  0.00  0.00    -0.328 N 
ATOM     19  H   UNL     1      32.089 -22.883 -19.104  0.00  0.00    +0.147 HD
BRANCH  18  20
ATOM     20  C   UNL     1      33.648 -23.717 -17.982  0.00  0.00    +0.127 C 
BRANCH  20  26
ATOM     21  S   UNL     1      36.024 -24.669 -15.440  0.00  0.00    -0.104 S 
ATOM     22  O   UNL     1      30.872 -22.837 -17.578  0.00  0.00    -0.210 OA
ATOM     23  N   UNL     1      31.150 -23.081 -15.279  0.00  0.00    -0.333 NA
ATOM     24  N   UNL     1      35.784 -24.762 -12.859  0.00  0.00    -0.262 NA
ATOM     25  C   UNL     1      33.350 -23.793 -15.414  0.00  0.00    +0.033 C 
ATOM     26  C   UNL     1      32.968 -23.583 -16.672  0.00  0.00    +0.092 C 
ATOM     27  C   UNL     1      32.175 -23.463 -14.592  0.00  0.00    +0.142 C 
ATOM     28  C   UNL     1      34.524 -24.220 -14.775  0.00  0.00    +0.114 C 
ATOM     29  C   UNL     1      31.547 -23.123 -16.600  0.00  0.00    +0.202 C 
ATOM     30  C   UNL     1      34.596 -24.336 -13.396  0.00  0.00    +0.069 C 
ATOM     31  C   UNL     1      32.294 -23.600 -13.115  0.00  0.00    +0.034 C 
ATOM     32  C   UNL     1      33.460 -24.019 -12.585  0.00  0.00    +0.018 C 
ATOM     33  C   UNL     1      36.620 -24.971 -13.853  0.00  0.00    +0.183 C 
ENDBRANCH  20  26
ENDBRANCH  18  20
ENDBRANCH   1  18
TORSDOF 5
ENDMDL
MODEL 8
REMARK VINA RESULT:     -11.6      2.204     10.511
REMARK  Name = 1712
REMARK  5 active torsions:
REMARK  status: ('A' for Active; 'I' for Inactive)
REMARK    1  A    between atoms: C_1  and  N_18
REMARK    2  A    between atoms: C_2  and  S_7
REMARK    3  A    between atoms: S_7  and  N_10
REMARK    4  A    between atoms: N_18  and  C_20
REMARK    5  A    between atoms: C_20  and  C_26
REMARK                            x       y       z     vdW  Elec       q    Type
REMARK                         _______ _______ _______ _____ _____    ______ ____
ROOT
ATOM      1  C   UNL     1      34.503 -21.854 -19.489  0.00  0.00    +0.045 C 
ATOM      2  C   UNL     1      35.570 -19.771 -21.051  0.00  0.00    +0.125 C 
ATOM      3  C   UNL     1      35.890 -21.625 -19.536  0.00  0.00    +0.016 C 
ATOM      4  C   UNL     1      33.662 -21.015 -20.244  0.00  0.00    +0.016 C 
ATOM      5  C   UNL     1      36.419 -20.592 -20.310  0.00  0.00    +0.021 C 
ATOM      6  C   UNL     1      34.191 -19.983 -21.018  0.00  0.00    +0.021 C 
ENDROOT
BRANCH   2   7
ATOM      7  S   UNL     1      36.231 -18.479 -22.021  0.00  0.00    +0.075 S 
ATOM      8  O   UNL     1      37.672 -18.446 -21.796  0.00  0.00    -0.150 OA
ATOM      9  O   UNL     1      35.455 -17.269 -21.780  0.00  0.00    -0.150 OA
BRANCH   7  10
ATOM     10  N   UNL     1      35.955 -19.030 -23.631  0.00  0.00    -0.199 N 
ATOM     11  H   UNL     1      36.483 -19.768 -24.010  0.00  0.00    +0.175 HD
ATOM     12  N   UNL     1      35.178 -17.097 -24.738  0.00  0.00    -0.228 NA
ATOM     13  C   UNL     1      34.931 -18.378 -24.402  0.00  0.00    +0.147 C 
ATOM     14  C   UNL     1      33.790 -19.077 -24.744  0.00  0.00    +0.036 C 
ATOM     15  C   UNL     1      32.826 -18.408 -25.491  0.00  0.00    +0.005 C 
ATOM     16  C   UNL     1      34.219 -16.479 -25.463  0.00  0.00    +0.100 C 
ATOM     17  C   UNL     1      33.038 -17.084 -25.861  0.00  0.00    +0.021 C 
ENDBRANCH   7  10
ENDBRANCH   2   7
BRANCH   1  18
ATOM     18  N   UNL     1      33.977 -22.880 -18.719  0.00  0.00    -0.328 N 
ATOM     19  H   UNL     1      34.461 -23.737 -18.694  0.00  0.00    +0.147 HD
BRANCH  18  20
ATOM     20  C   UNL     1      32.760 -22.765 -17.953  0.00  0.00    +0.127 C 
BRANCH  20  26
ATOM     21  S   UNL     1      29.464 -23.580 -16.735  0.00  0.00    -0.104 S 
ATOM     22  O   UNL     1      35.330 -23.334 -16.642  0.00  0.00    -0.210 OA
ATOM     23  N   UNL     1      34.185 -24.337 -14.879  0.00  0.00    -0.333 NA
ATOM     24  N   UNL     1      28.721 -24.782 -14.559  0.00  0.00    -0.262 NA
ATOM     25  C   UNL     1      32.078 -23.968 -15.768  0.00  0.00    +0.033 C 
ATOM     26  C   UNL     1      32.930 -23.453 -16.650  0.00  0.00    +0.092 C 
ATOM     27  C   UNL     1      32.919 -24.504 -14.685  0.00  0.00    +0.142 C 
ATOM     28  C   UNL     1      30.684 -24.093 -15.665  0.00  0.00    +0.114 C 
ATOM     29  C   UNL     1      34.296 -23.683 -16.089  0.00  0.00    +0.202 C 
ATOM     30  C   UNL     1      30.090 -24.706 -14.574  0.00  0.00    +0.069 C 
ATOM     31  C   UNL     1      32.242 -25.156 -13.531  0.00  0.00    +0.034 C 
ATOM     32  C   UNL     1      30.897 -25.232 -13.514  0.00  0.00    +0.018 C 
ATOM     33  C   UNL     1      28.277 -24.214 -15.660  0.00  0.00    +0.183 C 
ENDBRANCH  20  26
ENDBRANCH  18  20
ENDBRANCH   1  18
TORSDOF 5
ENDMDL
MODEL 9
REMARK VINA RESULT:     -11.5      1.938      2.247
REMARK  Name = 1712
REMARK  5 active torsions:
REMARK  status: ('A' for Active; 'I' for Inactive)
REMARK    1  A    between atoms: C_1  and  N_18
REMARK    2  A    between atoms: C_2  and  S_7
REMARK    3  A    between atoms: S_7  and  N_10
REMARK    4  A    between atoms: N_18  and  C_20
REMARK    5  A    between atoms: C_20  and  C_26
REMARK                            x       y       z     vdW  Elec       q    Type
REMARK                         _______ _______ _______ _____ _____    ______ ____
ROOT
ATOM      1  C   UNL     1      34.139 -20.077 -21.044  0.00  0.00    +0.045 C 
ATOM      2  C   UNL     1      34.043 -22.077 -19.067  0.00  0.00    +0.125 C 
ATOM      3  C   UNL     1      35.320 -20.654 -20.545  0.00  0.00    +0.016 C 
ATOM      4  C   UNL     1      32.908 -20.523 -20.530  0.00  0.00    +0.016 C 
ATOM      5  C   UNL     1      35.273 -21.646 -19.565  0.00  0.00    +0.021 C 
ATOM      6  C   UNL     1      32.861 -21.515 -19.550  0.00  0.00    +0.021 C 
ENDROOT
BRANCH   2   7
ATOM      7  S   UNL     1      33.983 -23.317 -17.841  0.00  0.00    +0.075 S 
ATOM      8  O   UNL     1      33.967 -24.610 -18.515  0.00  0.00    -0.150 OA
ATOM      9  O   UNL     1      32.911 -22.998 -16.906  0.00  0.00    -0.150 OA
BRANCH   7  10
ATOM     10  N   UNL     1      35.506 -23.146 -17.051  0.00  0.00    -0.199 N 
ATOM     11  H   UNL     1      36.236 -22.633 -17.465  0.00  0.00    +0.175 HD
ATOM     12  N   UNL     1      35.678 -25.123 -15.776  0.00  0.00    -0.228 NA
ATOM     13  C   UNL     1      35.677 -23.776 -15.769  0.00  0.00    +0.147 C 
ATOM     14  C   UNL     1      35.826 -22.993 -14.642  0.00  0.00    +0.036 C 
ATOM     15  C   UNL     1      35.989 -23.644 -13.424  0.00  0.00    +0.005 C 
ATOM     16  C   UNL     1      35.838 -25.721 -14.574  0.00  0.00    +0.100 C 
ATOM     17  C   UNL     1      35.997 -25.034 -13.381  0.00  0.00    +0.021 C 
ENDBRANCH   7  10
ENDBRANCH   2   7
BRANCH   1  18
ATOM     18  N   UNL     1      34.186 -19.091 -22.019  0.00  0.00    -0.328 N 
ATOM     19  H   UNL     1      33.630 -18.288 -21.894  0.00  0.00    +0.147 HD
BRANCH  18  20
ATOM     20  C   UNL     1      34.999 -19.176 -23.206  0.00  0.00    +0.127 C 
BRANCH  20  26
ATOM     21  S   UNL     1      34.948 -15.860 -21.783  0.00  0.00    -0.104 S 
ATOM     22  O   UNL     1      34.140 -19.964 -25.905  0.00  0.00    -0.210 OA
ATOM     23  N   UNL     1      33.592 -17.745 -26.357  0.00  0.00    -0.333 NA
ATOM     24  N   UNL     1      34.183 -13.601 -22.803  0.00  0.00    -0.262 NA
ATOM     25  C   UNL     1      34.222 -16.952 -24.273  0.00  0.00    +0.033 C 
ATOM     26  C   UNL     1      34.460 -18.261 -24.241  0.00  0.00    +0.092 C 
ATOM     27  C   UNL     1      33.682 -16.690 -25.617  0.00  0.00    +0.142 C 
ATOM     28  C   UNL     1      34.364 -15.878 -23.381  0.00  0.00    +0.114 C 
ATOM     29  C   UNL     1      34.057 -18.787 -25.581  0.00  0.00    +0.202 C 
ATOM     30  C   UNL     1      34.009 -14.587 -23.740  0.00  0.00    +0.069 C 
ATOM     31  C   UNL     1      33.314 -15.291 -25.963  0.00  0.00    +0.034 C 
ATOM     32  C   UNL     1      33.483 -14.319 -25.044  0.00  0.00    +0.018 C 
ATOM     33  C   UNL     1      34.677 -14.161 -21.719  0.00  0.00    +0.183 C 
ENDBRANCH  20  26
ENDBRANCH  18  20
ENDBRANCH   1  18
TORSDOF 5
ENDMDL
