MODEL 1
REMARK VINA RESULT:     -11.6      0.000      0.000
REMARK  Name = 24941254
REMARK  6 active torsions:
REMARK  status: ('A' for Active; 'I' for Inactive)
REMARK    1  A    between atoms: C_1  and  S_21
REMARK    2  A    between atoms: C_4  and  C_9
REMARK    3  A    between atoms: N_8  and  C_11
REMARK    4  A    between atoms: C_12  and  C_18
REMARK    5  A    between atoms: C_18  and  O_19
REMARK    6  A    between atoms: S_21  and  N_24
REMARK                            x       y       z     vdW  Elec       q    Type
REMARK                         _______ _______ _______ _____ _____    ______ ____
ROOT
ATOM      1  C   UNL     1      32.900 -10.726 -23.259  0.00  0.00    +0.122 C 
ATOM      2  C   UNL     1      33.093 -12.011 -22.752  0.00  0.00    +0.024 C 
ATOM      3  C   UNL     1      33.343 -10.411 -24.544  0.00  0.00    +0.020 C 
ATOM      4  C   UNL     1      33.730 -12.979 -23.528  0.00  0.00    +0.055 C 
ATOM      5  C   UNL     1      33.980 -11.379 -25.321  0.00  0.00    +0.002 C 
ATOM      6  C   UNL     1      34.173 -12.664 -24.812  0.00  0.00    +0.005 C 
ENDROOT
BRANCH   4   9
ATOM      7  O   UNL     1      33.640 -14.551 -21.815  0.00  0.00    -0.270 OA
ATOM      8  N   UNL     1      34.429 -15.267 -23.905  0.00  0.00    -0.280 N 
ATOM      9  C   UNL     1      33.932 -14.319 -22.999  0.00  0.00    +0.250 C 
ATOM     10  H   UNL     1      34.614 -14.934 -24.813  0.00  0.00    +0.155 HD
BRANCH   8  11
ATOM     11  C   UNL     1      34.699 -16.640 -23.686  0.00  0.00    +0.057 C 
ATOM     12  C   UNL     1      34.210 -17.615 -24.555  0.00  0.00    +0.089 C 
ATOM     13  C   UNL     1      35.465 -17.010 -22.582  0.00  0.00    +0.015 C 
ATOM     14  C   UNL     1      34.489 -18.962 -24.319  0.00  0.00    +0.008 C 
ATOM     15  C   UNL     1      35.743 -18.357 -22.345  0.00  0.00    +0.001 C 
ATOM     16  C   UNL     1      35.254 -19.332 -23.214  0.00  0.00    +0.000 C 
BRANCH  12  18
ATOM     17  O   UNL     1      33.563 -16.257 -26.414  0.00  0.00    -0.245 OA
ATOM     18  C   UNL     1      33.406 -17.263 -25.719  0.00  0.00    +0.339 C 
BRANCH  18  19
ATOM     19  O   UNL     1      32.435 -18.180 -25.974  0.00  0.00    -0.477 OA
ATOM     20  H   UNL     1      32.529 -19.060 -25.665  0.00  0.00    +0.295 HD
ENDBRANCH  18  19
ENDBRANCH  12  18
ENDBRANCH   8  11
ENDBRANCH   4   9
BRANCH   1  21
ATOM     21  S   UNL     1      32.096  -9.500 -22.277  0.00  0.00    +0.064 S 
ATOM     22  O   UNL     1      30.670  -9.740 -22.349  0.00  0.00    -0.153 OA
ATOM     23  O   UNL     1      32.776  -9.435 -21.001  0.00  0.00    -0.153 OA
BRANCH  21  24
ATOM     24  N   UNL     1      32.474  -8.096 -23.181  0.00  0.00    -0.151 NA
ATOM     25  C   UNL     1      33.898  -7.667 -23.147  0.00  0.00    +0.101 C 
ATOM     26  C   UNL     1      31.539  -6.945 -22.999  0.00  0.00    +0.122 C 
ATOM     27  C   UNL     1      34.161  -6.749 -24.338  0.00  0.00    +0.045 C 
ATOM     28  C   UNL     1      31.912  -5.720 -23.801  0.00  0.00    -0.008 C 
ATOM     29  C   UNL     1      33.174  -5.613 -24.411  0.00  0.00    -0.023 C 
ATOM     30  C   UNL     1      31.002  -4.660 -23.904  0.00  0.00    -0.003 C 
ATOM     31  C   UNL     1      33.490  -4.460 -25.143  0.00  0.00    -0.004 C 
ATOM     32  C   UNL     1      31.332  -3.512 -24.625  0.00  0.00    -0.000 C 
ATOM     33  C   UNL     1      32.575  -3.414 -25.246  0.00  0.00    -0.000 C 
ENDBRANCH  21  24
ENDBRANCH   1  21
TORSDOF 6
ENDMDL
MODEL 2
REMARK VINA RESULT:     -11.2      6.398     10.450
REMARK  Name = 24941254
REMARK  6 active torsions:
REMARK  status: ('A' for Active; 'I' for Inactive)
REMARK    1  A    between atoms: C_1  and  S_21
REMARK    2  A    between atoms: C_4  and  C_9
REMARK    3  A    between atoms: N_8  and  C_11
REMARK    4  A    between atoms: C_12  and  C_18
REMARK    5  A    between atoms: C_18  and  O_19
REMARK    6  A    between atoms: S_21  and  N_24
REMARK                            x       y       z     vdW  Elec       q    Type
REMARK                         _______ _______ _______ _____ _____    ______ ____
ROOT
ATOM      1  C   UNL     1      34.707 -19.928 -20.908  0.00  0.00    +0.122 C 
ATOM      2  C   UNL     1      34.964 -20.952 -19.996  0.00  0.00    +0.024 C 
ATOM      3  C   UNL     1      33.409 -19.724 -21.377  0.00  0.00    +0.020 C 
ATOM      4  C   UNL     1      33.925 -21.769 -19.553  0.00  0.00    +0.055 C 
ATOM      5  C   UNL     1      32.369 -20.541 -20.935  0.00  0.00    +0.002 C 
ATOM      6  C   UNL     1      32.628 -21.565 -20.022  0.00  0.00    +0.005 C 
ENDROOT
BRANCH   4   9
ATOM      7  O   UNL     1      34.051 -24.016 -18.961  0.00  0.00    -0.270 OA
ATOM      8  N   UNL     1      34.624 -22.429 -17.331  0.00  0.00    -0.280 N 
ATOM      9  C   UNL     1      34.193 -22.836 -18.601  0.00  0.00    +0.250 C 
ATOM     10  H   UNL     1      34.689 -21.456 -17.193  0.00  0.00    +0.155 HD
BRANCH   8  11
ATOM     11  C   UNL     1      34.981 -23.233 -16.221  0.00  0.00    +0.057 C 
ATOM     12  C   UNL     1      36.296 -23.273 -15.756  0.00  0.00    +0.089 C 
ATOM     13  C   UNL     1      33.995 -23.992 -15.591  0.00  0.00    +0.015 C 
ATOM     14  C   UNL     1      36.623 -24.073 -14.660  0.00  0.00    +0.008 C 
ATOM     15  C   UNL     1      34.323 -24.792 -14.496  0.00  0.00    +0.001 C 
ATOM     16  C   UNL     1      35.637 -24.832 -14.031  0.00  0.00    +0.000 C 
BRANCH  12  18
ATOM     17  O   UNL     1      37.196 -21.399 -16.939  0.00  0.00    -0.245 OA
ATOM     18  C   UNL     1      37.351 -22.493 -16.390  0.00  0.00    +0.339 C 
BRANCH  18  19
ATOM     19  O   UNL     1      38.562 -23.106 -16.317  0.00  0.00    -0.477 OA
ATOM     20  H   UNL     1      39.255 -22.717 -15.821  0.00  0.00    +0.295 HD
ENDBRANCH  18  19
ENDBRANCH  12  18
ENDBRANCH   8  11
ENDBRANCH   4   9
BRANCH   1  21
ATOM     21  S   UNL     1      36.022 -18.894 -21.471  0.00  0.00    +0.064 S 
ATOM     22  O   UNL     1      36.431 -18.056 -20.363  0.00  0.00    -0.153 OA
ATOM     23  O   UNL     1      36.979 -19.729 -22.166  0.00  0.00    -0.153 OA
BRANCH  21  24
ATOM     24  N   UNL     1      35.182 -17.938 -22.617  0.00  0.00    -0.151 NA
ATOM     25  C   UNL     1      35.415 -18.284 -24.045  0.00  0.00    +0.101 C 
ATOM     26  C   UNL     1      35.236 -16.463 -22.383  0.00  0.00    +0.122 C 
ATOM     27  C   UNL     1      34.274 -17.708 -24.879  0.00  0.00    +0.045 C 
ATOM     28  C   UNL     1      34.496 -15.652 -23.420  0.00  0.00    -0.008 C 
ATOM     29  C   UNL     1      34.068 -16.237 -24.625  0.00  0.00    -0.023 C 
ATOM     30  C   UNL     1      34.271 -14.287 -23.197  0.00  0.00    -0.003 C 
ATOM     31  C   UNL     1      33.390 -15.454 -25.569  0.00  0.00    -0.004 C 
ATOM     32  C   UNL     1      33.606 -13.514 -24.149  0.00  0.00    -0.000 C 
ATOM     33  C   UNL     1      33.164 -14.099 -25.333  0.00  0.00    -0.000 C 
ENDBRANCH  21  24
ENDBRANCH   1  21
TORSDOF 6
ENDMDL
MODEL 3
REMARK VINA RESULT:     -10.9      8.067     14.599
REMARK  Name = 24941254
REMARK  6 active torsions:
REMARK  status: ('A' for Active; 'I' for Inactive)
REMARK    1  A    between atoms: C_1  and  S_21
REMARK    2  A    between atoms: C_4  and  C_9
REMARK    3  A    between atoms: N_8  and  C_11
REMARK    4  A    between atoms: C_12  and  C_18
REMARK    5  A    between atoms: C_18  and  O_19
REMARK    6  A    between atoms: S_21  and  N_24
REMARK                            x       y       z     vdW  Elec       q    Type
REMARK                         _______ _______ _______ _____ _____    ______ ____
ROOT
ATOM      1  C   UNL     1      34.893 -22.599 -18.036  0.00  0.00    +0.122 C 
ATOM      2  C   UNL     1      34.265 -21.940 -19.093  0.00  0.00    +0.024 C 
ATOM      3  C   UNL     1      36.263 -22.433 -17.827  0.00  0.00    +0.020 C 
ATOM      4  C   UNL     1      35.006 -21.116 -19.940  0.00  0.00    +0.055 C 
ATOM      5  C   UNL     1      37.004 -21.609 -18.674  0.00  0.00    +0.002 C 
ATOM      6  C   UNL     1      36.374 -20.951 -19.731  0.00  0.00    +0.005 C 
ENDROOT
BRANCH   4   9
ATOM      7  O   UNL     1      33.111 -20.414 -21.092  0.00  0.00    -0.270 OA
ATOM      8  N   UNL     1      35.201 -19.803 -21.965  0.00  0.00    -0.280 N 
ATOM      9  C   UNL     1      34.351 -20.428 -21.042  0.00  0.00    +0.250 C 
ATOM     10  H   UNL     1      36.165 -19.901 -21.793  0.00  0.00    +0.155 HD
BRANCH   8  11
ATOM     11  C   UNL     1      34.854 -19.046 -23.111  0.00  0.00    +0.057 C 
ATOM     12  C   UNL     1      34.900 -17.652 -23.092  0.00  0.00    +0.089 C 
ATOM     13  C   UNL     1      34.462 -19.716 -24.270  0.00  0.00    +0.015 C 
ATOM     14  C   UNL     1      34.555 -16.928 -24.234  0.00  0.00    +0.008 C 
ATOM     15  C   UNL     1      34.115 -18.992 -25.410  0.00  0.00    +0.001 C 
ATOM     16  C   UNL     1      34.162 -17.598 -25.392  0.00  0.00    +0.000 C 
BRANCH  12  18
ATOM     17  O   UNL     1      35.643 -17.434 -20.829  0.00  0.00    -0.245 OA
ATOM     18  C   UNL     1      35.306 -16.921 -21.898  0.00  0.00    +0.339 C 
BRANCH  18  19
ATOM     19  O   UNL     1      35.276 -15.574 -22.082  0.00  0.00    -0.477 OA
ATOM     20  H   UNL     1      34.644 -15.053 -21.628  0.00  0.00    +0.295 HD
ENDBRANCH  18  19
ENDBRANCH  12  18
ENDBRANCH   8  11
ENDBRANCH   4   9
BRANCH   1  21
ATOM     21  S   UNL     1      33.957 -23.643 -16.964  0.00  0.00    +0.064 S 
ATOM     22  O   UNL     1      33.030 -22.807 -16.230  0.00  0.00    -0.153 OA
ATOM     23  O   UNL     1      33.488 -24.772 -17.740  0.00  0.00    -0.153 OA
BRANCH  21  24
ATOM     24  N   UNL     1      35.194 -24.172 -15.904  0.00  0.00    -0.151 NA
ATOM     25  C   UNL     1      35.242 -25.635 -15.642  0.00  0.00    +0.101 C 
ATOM     26  C   UNL     1      35.348 -23.374 -14.650  0.00  0.00    +0.122 C 
ATOM     27  C   UNL     1      36.628 -25.992 -15.112  0.00  0.00    +0.045 C 
ATOM     28  C   UNL     1      36.439 -23.877 -13.735  0.00  0.00    -0.008 C 
ATOM     29  C   UNL     1      37.025 -25.139 -13.935  0.00  0.00    -0.023 C 
ATOM     30  C   UNL     1      36.843 -23.092 -12.646  0.00  0.00    -0.003 C 
ATOM     31  C   UNL     1      38.031 -25.579 -13.063  0.00  0.00    -0.004 C 
ATOM     32  C   UNL     1      37.836 -23.545 -11.778  0.00  0.00    -0.000 C 
ATOM     33  C   UNL     1      38.431 -24.787 -11.988  0.00  0.00    -0.000 C 
ENDBRANCH  21  24
ENDBRANCH   1  21
TORSDOF 6
ENDMDL
MODEL 4
REMARK VINA RESULT:     -10.8      6.557     10.551
REMARK  Name = 24941254
REMARK  6 active torsions:
REMARK  status: ('A' for Active; 'I' for Inactive)
REMARK    1  A    between atoms: C_1  and  S_21
REMARK    2  A    between atoms: C_4  and  C_9
REMARK    3  A    between atoms: N_8  and  C_11
REMARK    4  A    between atoms: C_12  and  C_18
REMARK    5  A    between atoms: C_18  and  O_19
REMARK    6  A    between atoms: S_21  and  N_24
REMARK                            x       y       z     vdW  Elec       q    Type
REMARK                         _______ _______ _______ _____ _____    ______ ____
ROOT
ATOM      1  C   UNL     1      34.728 -19.957 -20.858  0.00  0.00    +0.122 C 
ATOM      2  C   UNL     1      34.997 -20.979 -19.947  0.00  0.00    +0.024 C 
ATOM      3  C   UNL     1      33.426 -19.756 -21.316  0.00  0.00    +0.020 C 
ATOM      4  C   UNL     1      33.964 -21.800 -19.496  0.00  0.00    +0.055 C 
ATOM      5  C   UNL     1      32.393 -20.578 -20.865  0.00  0.00    +0.002 C 
ATOM      6  C   UNL     1      32.662 -21.600 -19.954  0.00  0.00    +0.005 C 
ENDROOT
BRANCH   4   9
ATOM      7  O   UNL     1      34.056 -24.044 -18.889  0.00  0.00    -0.270 OA
ATOM      8  N   UNL     1      34.737 -22.460 -17.298  0.00  0.00    -0.280 N 
ATOM      9  C   UNL     1      34.243 -22.866 -18.546  0.00  0.00    +0.250 C 
ATOM     10  H   UNL     1      34.833 -21.488 -17.172  0.00  0.00    +0.155 HD
BRANCH   8  11
ATOM     11  C   UNL     1      35.119 -23.263 -16.197  0.00  0.00    +0.057 C 
ATOM     12  C   UNL     1      34.171 -23.732 -15.286  0.00  0.00    +0.089 C 
ATOM     13  C   UNL     1      36.466 -23.585 -16.029  0.00  0.00    +0.015 C 
ATOM     14  C   UNL     1      34.571 -24.523 -14.209  0.00  0.00    +0.008 C 
ATOM     15  C   UNL     1      36.865 -24.375 -14.950  0.00  0.00    +0.001 C 
ATOM     16  C   UNL     1      35.918 -24.843 -14.041  0.00  0.00    +0.000 C 
BRANCH  12  18
ATOM     17  O   UNL     1      32.047 -23.744 -16.386  0.00  0.00    -0.245 OA
ATOM     18  C   UNL     1      32.756 -23.415 -15.432  0.00  0.00    +0.339 C 
BRANCH  18  19
ATOM     19  O   UNL     1      32.276 -22.697 -14.381  0.00  0.00    -0.477 OA
ATOM     20  H   UNL     1      31.489 -22.967 -13.950  0.00  0.00    +0.295 HD
ENDBRANCH  18  19
ENDBRANCH  12  18
ENDBRANCH   8  11
ENDBRANCH   4   9
BRANCH   1  21
ATOM     21  S   UNL     1      36.035 -18.918 -21.431  0.00  0.00    +0.064 S 
ATOM     22  O   UNL     1      36.430 -18.058 -20.336  0.00  0.00    -0.153 OA
ATOM     23  O   UNL     1      37.005 -19.754 -22.107  0.00  0.00    -0.153 OA
BRANCH  21  24
ATOM     24  N   UNL     1      35.191 -17.990 -22.597  0.00  0.00    -0.151 NA
ATOM     25  C   UNL     1      35.424 -18.366 -24.017  0.00  0.00    +0.101 C 
ATOM     26  C   UNL     1      35.239 -16.510 -22.396  0.00  0.00    +0.122 C 
ATOM     27  C   UNL     1      34.281 -17.813 -24.864  0.00  0.00    +0.045 C 
ATOM     28  C   UNL     1      34.496 -15.724 -23.450  0.00  0.00    -0.008 C 
ATOM     29  C   UNL     1      34.069 -16.337 -24.641  0.00  0.00    -0.023 C 
ATOM     30  C   UNL     1      34.266 -14.356 -23.255  0.00  0.00    -0.003 C 
ATOM     31  C   UNL     1      33.387 -15.578 -25.602  0.00  0.00    -0.004 C 
ATOM     32  C   UNL     1      33.597 -13.607 -24.224  0.00  0.00    -0.000 C 
ATOM     33  C   UNL     1      33.156 -14.219 -25.395  0.00  0.00    -0.000 C 
ENDBRANCH  21  24
ENDBRANCH   1  21
TORSDOF 6
ENDMDL
MODEL 5
REMARK VINA RESULT:     -10.7      1.696      2.793
REMARK  Name = 24941254
REMARK  6 active torsions:
REMARK  status: ('A' for Active; 'I' for Inactive)
REMARK    1  A    between atoms: C_1  and  S_21
REMARK    2  A    between atoms: C_4  and  C_9
REMARK    3  A    between atoms: N_8  and  C_11
REMARK    4  A    between atoms: C_12  and  C_18
REMARK    5  A    between atoms: C_18  and  O_19
REMARK    6  A    between atoms: S_21  and  N_24
REMARK                            x       y       z     vdW  Elec       q    Type
REMARK                         _______ _______ _______ _____ _____    ______ ____
ROOT
ATOM      1  C   UNL     1      32.719 -11.734 -22.899  0.00  0.00    +0.122 C 
ATOM      2  C   UNL     1      32.785 -13.079 -23.265  0.00  0.00    +0.024 C 
ATOM      3  C   UNL     1      33.374 -10.771 -23.666  0.00  0.00    +0.020 C 
ATOM      4  C   UNL     1      33.506 -13.459 -24.396  0.00  0.00    +0.055 C 
ATOM      5  C   UNL     1      34.096 -11.151 -24.797  0.00  0.00    +0.002 C 
ATOM      6  C   UNL     1      34.161 -12.496 -25.162  0.00  0.00    +0.005 C 
ENDROOT
BRANCH   4   9
ATOM      7  O   UNL     1      33.091 -15.215 -25.865  0.00  0.00    -0.270 OA
ATOM      8  N   UNL     1      34.221 -15.712 -23.870  0.00  0.00    -0.280 N 
ATOM      9  C   UNL     1      33.575 -14.861 -24.778  0.00  0.00    +0.250 C 
ATOM     10  H   UNL     1      34.554 -15.286 -23.047  0.00  0.00    +0.155 HD
BRANCH   8  11
ATOM     11  C   UNL     1      34.460 -17.103 -23.982  0.00  0.00    +0.057 C 
ATOM     12  C   UNL     1      35.019 -17.824 -22.926  0.00  0.00    +0.089 C 
ATOM     13  C   UNL     1      34.126 -17.753 -25.170  0.00  0.00    +0.015 C 
ATOM     14  C   UNL     1      35.245 -19.194 -23.060  0.00  0.00    +0.008 C 
ATOM     15  C   UNL     1      34.353 -19.123 -25.304  0.00  0.00    +0.001 C 
ATOM     16  C   UNL     1      34.912 -19.843 -24.249  0.00  0.00    +0.000 C 
BRANCH  12  18
ATOM     17  O   UNL     1      35.158 -15.997 -21.389  0.00  0.00    -0.245 OA
ATOM     18  C   UNL     1      35.379 -17.176 -21.671  0.00  0.00    +0.339 C 
BRANCH  18  19
ATOM     19  O   UNL     1      36.003 -18.026 -20.811  0.00  0.00    -0.477 OA
ATOM     20  H   UNL     1      35.627 -18.202 -19.972  0.00  0.00    +0.295 HD
ENDBRANCH  18  19
ENDBRANCH  12  18
ENDBRANCH   8  11
ENDBRANCH   4   9
BRANCH   1  21
ATOM     21  S   UNL     1      31.808 -11.252 -21.465  0.00  0.00    +0.064 S 
ATOM     22  O   UNL     1      30.417 -11.577 -21.696  0.00  0.00    -0.153 OA
ATOM     23  O   UNL     1      32.508 -11.756 -20.303  0.00  0.00    -0.153 OA
BRANCH  21  24
ATOM     24  N   UNL     1      32.008  -9.553 -21.541  0.00  0.00    -0.151 NA
ATOM     25  C   UNL     1      31.893  -8.828 -20.248  0.00  0.00    +0.101 C 
ATOM     26  C   UNL     1      31.255  -8.867 -22.635  0.00  0.00    +0.122 C 
ATOM     27  C   UNL     1      32.557  -7.462 -20.391  0.00  0.00    +0.045 C 
ATOM     28  C   UNL     1      31.444  -7.369 -22.662  0.00  0.00    -0.008 C 
ATOM     29  C   UNL     1      32.034  -6.695 -21.579  0.00  0.00    -0.023 C 
ATOM     30  C   UNL     1      30.987  -6.637 -23.766  0.00  0.00    -0.003 C 
ATOM     31  C   UNL     1      32.189  -5.303 -21.633  0.00  0.00    -0.004 C 
ATOM     32  C   UNL     1      31.135  -5.250 -23.805  0.00  0.00    -0.000 C 
ATOM     33  C   UNL     1      31.738  -4.585 -22.740  0.00  0.00    -0.000 C 
ENDBRANCH  21  24
ENDBRANCH   1  21
TORSDOF 6
ENDMDL
MODEL 6
REMARK VINA RESULT:     -10.5      6.656     13.156
REMARK  Name = 24941254
REMARK  6 active torsions:
REMARK  status: ('A' for Active; 'I' for Inactive)
REMARK    1  A    between atoms: C_1  and  S_21
REMARK    2  A    between atoms: C_4  and  C_9
REMARK    3  A    between atoms: N_8  and  C_11
REMARK    4  A    between atoms: C_12  and  C_18
REMARK    5  A    between atoms: C_18  and  O_19
REMARK    6  A    between atoms: S_21  and  N_24
REMARK                            x       y       z     vdW  Elec       q    Type
REMARK                         _______ _______ _______ _____ _____    ______ ____
ROOT
ATOM      1  C   UNL     1      35.176 -21.349 -19.942  0.00  0.00    +0.122 C 
ATOM      2  C   UNL     1      34.724 -20.171 -20.536  0.00  0.00    +0.024 C 
ATOM      3  C   UNL     1      36.544 -21.612 -19.871  0.00  0.00    +0.020 C 
ATOM      4  C   UNL     1      35.639 -19.257 -21.059  0.00  0.00    +0.055 C 
ATOM      5  C   UNL     1      37.459 -20.699 -20.394  0.00  0.00    +0.002 C 
ATOM      6  C   UNL     1      37.006 -19.521 -20.988  0.00  0.00    +0.005 C 
ENDROOT
BRANCH   4   9
ATOM      7  O   UNL     1      35.080 -17.000 -20.988  0.00  0.00    -0.270 OA
ATOM      8  N   UNL     1      34.865 -18.108 -23.044  0.00  0.00    -0.280 N 
ATOM      9  C   UNL     1      35.167 -18.028 -21.678  0.00  0.00    +0.250 C 
ATOM     10  H   UNL     1      34.983 -18.993 -23.458  0.00  0.00    +0.155 HD
BRANCH   8  11
ATOM     11  C   UNL     1      34.415 -17.081 -23.909  0.00  0.00    +0.057 C 
ATOM     12  C   UNL     1      33.764 -17.383 -25.106  0.00  0.00    +0.089 C 
ATOM     13  C   UNL     1      34.632 -15.750 -23.550  0.00  0.00    +0.015 C 
ATOM     14  C   UNL     1      33.329 -16.353 -25.942  0.00  0.00    +0.008 C 
ATOM     15  C   UNL     1      34.199 -14.722 -24.387  0.00  0.00    +0.001 C 
ATOM     16  C   UNL     1      33.548 -15.024 -25.582  0.00  0.00    +0.000 C 
BRANCH  12  18
ATOM     17  O   UNL     1      34.351 -19.671 -25.476  0.00  0.00    -0.245 OA
ATOM     18  C   UNL     1      33.520 -18.761 -25.511  0.00  0.00    +0.339 C 
BRANCH  18  19
ATOM     19  O   UNL     1      32.247 -18.954 -25.947  0.00  0.00    -0.477 OA
ATOM     20  H   UNL     1      31.546 -18.447 -25.587  0.00  0.00    +0.295 HD
ENDBRANCH  18  19
ENDBRANCH  12  18
ENDBRANCH   8  11
ENDBRANCH   4   9
BRANCH   1  21
ATOM     21  S   UNL     1      34.019 -22.507 -19.282  0.00  0.00    +0.064 S 
ATOM     22  O   UNL     1      32.720 -21.869 -19.256  0.00  0.00    -0.153 OA
ATOM     23  O   UNL     1      34.215 -23.770 -19.963  0.00  0.00    -0.153 OA
BRANCH  21  24
ATOM     24  N   UNL     1      34.609 -22.642 -17.680  0.00  0.00    -0.151 NA
ATOM     25  C   UNL     1      36.086 -22.754 -17.541  0.00  0.00    +0.101 C 
ATOM     26  C   UNL     1      33.890 -23.622 -16.812  0.00  0.00    +0.122 C 
ATOM     27  C   UNL     1      36.473 -22.379 -16.113  0.00  0.00    +0.045 C 
ATOM     28  C   UNL     1      34.447 -23.724 -15.412  0.00  0.00    -0.008 C 
ATOM     29  C   UNL     1      35.693 -23.160 -15.087  0.00  0.00    -0.023 C 
ATOM     30  C   UNL     1      33.730 -24.425 -14.433  0.00  0.00    -0.003 C 
ATOM     31  C   UNL     1      36.184 -23.278 -13.779  0.00  0.00    -0.004 C 
ATOM     32  C   UNL     1      34.233 -24.547 -13.138  0.00  0.00    -0.000 C 
ATOM     33  C   UNL     1      35.459 -23.971 -12.812  0.00  0.00    -0.000 C 
ENDBRANCH  21  24
ENDBRANCH   1  21
TORSDOF 6
ENDMDL
MODEL 7
REMARK VINA RESULT:     -10.3      6.077     13.051
REMARK  Name = 24941254
REMARK  6 active torsions:
REMARK  status: ('A' for Active; 'I' for Inactive)
REMARK    1  A    between atoms: C_1  and  S_21
REMARK    2  A    between atoms: C_4  and  C_9
REMARK    3  A    between atoms: N_8  and  C_11
REMARK    4  A    between atoms: C_12  and  C_18
REMARK    5  A    between atoms: C_18  and  O_19
REMARK    6  A    between atoms: S_21  and  N_24
REMARK                            x       y       z     vdW  Elec       q    Type
REMARK                         _______ _______ _______ _____ _____    ______ ____
ROOT
ATOM      1  C   UNL     1      35.087 -21.072 -20.237  0.00  0.00    +0.122 C 
ATOM      2  C   UNL     1      34.490 -20.334 -21.259  0.00  0.00    +0.024 C 
ATOM      3  C   UNL     1      36.404 -20.804 -19.862  0.00  0.00    +0.020 C 
ATOM      4  C   UNL     1      35.209 -19.329 -21.906  0.00  0.00    +0.055 C 
ATOM      5  C   UNL     1      37.123 -19.799 -20.508  0.00  0.00    +0.002 C 
ATOM      6  C   UNL     1      36.525 -19.062 -21.531  0.00  0.00    +0.005 C 
ENDROOT
BRANCH   4   9
ATOM      7  O   UNL     1      33.875 -19.146 -23.803  0.00  0.00    -0.270 OA
ATOM      8  N   UNL     1      34.830 -17.179 -22.952  0.00  0.00    -0.280 N 
ATOM      9  C   UNL     1      34.586 -18.560 -22.971  0.00  0.00    +0.250 C 
ATOM     10  H   UNL     1      35.416 -16.858 -22.229  0.00  0.00    +0.155 HD
BRANCH   8  11
ATOM     11  C   UNL     1      34.342 -16.185 -23.835  0.00  0.00    +0.057 C 
ATOM     12  C   UNL     1      34.048 -14.900 -23.379  0.00  0.00    +0.089 C 
ATOM     13  C   UNL     1      34.156 -16.507 -25.179  0.00  0.00    +0.015 C 
ATOM     14  C   UNL     1      33.569 -13.937 -24.268  0.00  0.00    +0.008 C 
ATOM     15  C   UNL     1      33.676 -15.545 -26.068  0.00  0.00    +0.001 C 
ATOM     16  C   UNL     1      33.383 -14.260 -25.612  0.00  0.00    +0.000 C 
BRANCH  12  18
ATOM     17  O   UNL     1      35.236 -14.768 -21.307  0.00  0.00    -0.245 OA
ATOM     18  C   UNL     1      34.232 -14.529 -21.981  0.00  0.00    +0.339 C 
BRANCH  18  19
ATOM     19  O   UNL     1      33.153 -13.873 -21.475  0.00  0.00    -0.477 OA
ATOM     20  H   UNL     1      32.300 -14.033 -21.827  0.00  0.00    +0.295 HD
ENDBRANCH  18  19
ENDBRANCH  12  18
ENDBRANCH   8  11
ENDBRANCH   4   9
BRANCH   1  21
ATOM     21  S   UNL     1      34.179 -22.346 -19.419  0.00  0.00    +0.064 S 
ATOM     22  O   UNL     1      32.829 -21.864 -19.214  0.00  0.00    -0.153 OA
ATOM     23  O   UNL     1      34.428 -23.589 -20.118  0.00  0.00    -0.153 OA
BRANCH  21  24
ATOM     24  N   UNL     1      34.996 -22.379 -17.915  0.00  0.00    -0.151 NA
ATOM     25  C   UNL     1      36.482 -22.414 -17.985  0.00  0.00    +0.101 C 
ATOM     26  C   UNL     1      34.461 -23.353 -16.915  0.00  0.00    +0.122 C 
ATOM     27  C   UNL     1      37.046 -21.957 -16.643  0.00  0.00    +0.045 C 
ATOM     28  C   UNL     1      35.215 -23.364 -15.607  0.00  0.00    -0.008 C 
ATOM     29  C   UNL     1      36.463 -22.727 -15.487  0.00  0.00    -0.023 C 
ATOM     30  C   UNL     1      34.683 -24.054 -14.510  0.00  0.00    -0.003 C 
ATOM     31  C   UNL     1      37.140 -22.762 -14.260  0.00  0.00    -0.004 C 
ATOM     32  C   UNL     1      35.371 -24.092 -13.297  0.00  0.00    -0.000 C 
ATOM     33  C   UNL     1      36.598 -23.445 -13.172  0.00  0.00    -0.000 C 
ENDBRANCH  21  24
ENDBRANCH   1  21
TORSDOF 6
ENDMDL
MODEL 8
REMARK VINA RESULT:     -10.3      2.127     10.071
REMARK  Name = 24941254
REMARK  6 active torsions:
REMARK  status: ('A' for Active; 'I' for Inactive)
REMARK    1  A    between atoms: C_1  and  S_21
REMARK    2  A    between atoms: C_4  and  C_9
REMARK    3  A    between atoms: N_8  and  C_11
REMARK    4  A    between atoms: C_12  and  C_18
REMARK    5  A    between atoms: C_18  and  O_19
REMARK    6  A    between atoms: S_21  and  N_24
REMARK                            x       y       z     vdW  Elec       q    Type
REMARK                         _______ _______ _______ _____ _____    ______ ____
ROOT
ATOM      1  C   UNL     1      32.632 -12.187 -22.710  0.00  0.00    +0.122 C 
ATOM      2  C   UNL     1      32.614 -10.793 -22.755  0.00  0.00    +0.024 C 
ATOM      3  C   UNL     1      32.006 -12.859 -21.659  0.00  0.00    +0.020 C 
ATOM      4  C   UNL     1      31.971 -10.071 -21.749  0.00  0.00    +0.055 C 
ATOM      5  C   UNL     1      31.364 -12.137 -20.654  0.00  0.00    +0.002 C 
ATOM      6  C   UNL     1      31.346 -10.742 -20.699  0.00  0.00    +0.005 C 
ENDROOT
BRANCH   4   9
ATOM      7  O   UNL     1      31.979  -7.979 -20.732  0.00  0.00    -0.270 OA
ATOM      8  N   UNL     1      31.928  -8.046 -23.077  0.00  0.00    -0.280 N 
ATOM      9  C   UNL     1      31.952  -8.617 -21.796  0.00  0.00    +0.250 C 
ATOM     10  H   UNL     1      31.909  -8.682 -23.828  0.00  0.00    +0.155 HD
BRANCH   8  11
ATOM     11  C   UNL     1      31.931  -6.675 -23.431  0.00  0.00    +0.057 C 
ATOM     12  C   UNL     1      33.047  -6.090 -24.029  0.00  0.00    +0.089 C 
ATOM     13  C   UNL     1      30.795  -5.908 -23.173  0.00  0.00    +0.015 C 
ATOM     14  C   UNL     1      33.026  -4.737 -24.370  0.00  0.00    +0.008 C 
ATOM     15  C   UNL     1      30.775  -4.555 -23.513  0.00  0.00    +0.001 C 
ATOM     16  C   UNL     1      31.891  -3.970 -24.111  0.00  0.00    +0.000 C 
BRANCH  12  18
ATOM     17  O   UNL     1      34.668  -7.805 -23.636  0.00  0.00    -0.245 OA
ATOM     18  C   UNL     1      34.250  -6.863 -24.313  0.00  0.00    +0.339 C 
BRANCH  18  19
ATOM     19  O   UNL     1      34.890  -6.431 -25.433  0.00  0.00    -0.477 OA
ATOM     20  H   UNL     1      34.529  -5.727 -25.936  0.00  0.00    +0.295 HD
ENDBRANCH  18  19
ENDBRANCH  12  18
ENDBRANCH   8  11
ENDBRANCH   4   9
BRANCH   1  21
ATOM     21  S   UNL     1      33.446 -13.102 -23.981  0.00  0.00    +0.064 S 
ATOM     22  O   UNL     1      32.444 -13.515 -24.941  0.00  0.00    -0.153 OA
ATOM     23  O   UNL     1      34.610 -12.347 -24.398  0.00  0.00    -0.153 OA
BRANCH  21  24
ATOM     24  N   UNL     1      33.960 -14.467 -23.086  0.00  0.00    -0.151 NA
ATOM     25  C   UNL     1      34.810 -14.182 -21.898  0.00  0.00    +0.101 C 
ATOM     26  C   UNL     1      34.498 -15.602 -23.897  0.00  0.00    +0.122 C 
ATOM     27  C   UNL     1      34.771 -15.390 -20.967  0.00  0.00    +0.045 C 
ATOM     28  C   UNL     1      34.954 -16.782 -23.073  0.00  0.00    -0.008 C 
ATOM     29  C   UNL     1      35.116 -16.672 -21.681  0.00  0.00    -0.023 C 
ATOM     30  C   UNL     1      35.259 -17.992 -23.711  0.00  0.00    -0.003 C 
ATOM     31  C   UNL     1      35.547 -17.785 -20.946  0.00  0.00    -0.004 C 
ATOM     32  C   UNL     1      35.699 -19.090 -22.971  0.00  0.00    -0.000 C 
ATOM     33  C   UNL     1      35.840 -18.987 -21.590  0.00  0.00    -0.000 C 
ENDBRANCH  21  24
ENDBRANCH   1  21
TORSDOF 6
ENDMDL
MODEL 9
REMARK VINA RESULT:     -10.3      2.307      3.488
REMARK  Name = 24941254
REMARK  6 active torsions:
REMARK  status: ('A' for Active; 'I' for Inactive)
REMARK    1  A    between atoms: C_1  and  S_21
REMARK    2  A    between atoms: C_4  and  C_9
REMARK    3  A    between atoms: N_8  and  C_11
REMARK    4  A    between atoms: C_12  and  C_18
REMARK    5  A    between atoms: C_18  and  O_19
REMARK    6  A    between atoms: S_21  and  N_24
REMARK                            x       y       z     vdW  Elec       q    Type
REMARK                         _______ _______ _______ _____ _____    ______ ____
ROOT
ATOM      1  C   UNL     1      32.100  -8.913 -20.806  0.00  0.00    +0.122 C 
ATOM      2  C   UNL     1      32.618  -9.641 -21.878  0.00  0.00    +0.024 C 
ATOM      3  C   UNL     1      31.359  -9.562 -19.818  0.00  0.00    +0.020 C 
ATOM      4  C   UNL     1      32.395 -11.015 -21.961  0.00  0.00    +0.055 C 
ATOM      5  C   UNL     1      31.136 -10.936 -19.901  0.00  0.00    +0.002 C 
ATOM      6  C   UNL     1      31.655 -11.662 -20.974  0.00  0.00    +0.005 C 
ENDROOT
BRANCH   4   9
ATOM      7  O   UNL     1      33.432 -11.162 -24.038  0.00  0.00    -0.270 OA
ATOM      8  N   UNL     1      32.870 -13.169 -22.960  0.00  0.00    -0.280 N 
ATOM      9  C   UNL     1      32.936 -11.773 -23.078  0.00  0.00    +0.250 C 
ATOM     10  H   UNL     1      32.447 -13.509 -22.139  0.00  0.00    +0.155 HD
BRANCH   8  11
ATOM     11  C   UNL     1      33.335 -14.153 -23.866  0.00  0.00    +0.057 C 
ATOM     12  C   UNL     1      34.215 -15.153 -23.452  0.00  0.00    +0.089 C 
ATOM     13  C   UNL     1      32.898 -14.113 -25.190  0.00  0.00    +0.015 C 
ATOM     14  C   UNL     1      34.659 -16.113 -24.362  0.00  0.00    +0.008 C 
ATOM     15  C   UNL     1      33.343 -15.072 -26.100  0.00  0.00    +0.001 C 
ATOM     16  C   UNL     1      34.223 -16.071 -25.686  0.00  0.00    +0.000 C 
BRANCH  12  18
ATOM     17  O   UNL     1      34.614 -14.314 -21.247  0.00  0.00    -0.245 OA
ATOM     18  C   UNL     1      34.691 -15.224 -22.076  0.00  0.00    +0.339 C 
BRANCH  18  19
ATOM     19  O   UNL     1      35.246 -16.431 -21.783  0.00  0.00    -0.477 OA
ATOM     20  H   UNL     1      35.313 -17.089 -22.446  0.00  0.00    +0.295 HD
ENDBRANCH  18  19
ENDBRANCH  12  18
ENDBRANCH   8  11
ENDBRANCH   4   9
BRANCH   1  21
ATOM     21  S   UNL     1      32.380  -7.173 -20.700  0.00  0.00    +0.064 S 
ATOM     22  O   UNL     1      31.094  -6.528 -20.540  0.00  0.00    -0.153 OA
ATOM     23  O   UNL     1      33.448  -6.952 -19.749  0.00  0.00    -0.153 OA
BRANCH  21  24
ATOM     24  N   UNL     1      32.968  -6.868 -22.279  0.00  0.00    -0.151 NA
ATOM     25  C   UNL     1      34.416  -7.132 -22.494  0.00  0.00    +0.101 C 
ATOM     26  C   UNL     1      32.542  -5.568 -22.882  0.00  0.00    +0.122 C 
ATOM     27  C   UNL     1      34.668  -7.286 -23.991  0.00  0.00    +0.045 C 
ATOM     28  C   UNL     1      33.090  -5.327 -24.268  0.00  0.00    -0.008 C 
ATOM     29  C   UNL     1      34.127  -6.124 -24.784  0.00  0.00    -0.023 C 
ATOM     30  C   UNL     1      32.587  -4.267 -25.034  0.00  0.00    -0.003 C 
ATOM     31  C   UNL     1      34.618  -5.870 -26.072  0.00  0.00    -0.004 C 
ATOM     32  C   UNL     1      33.091  -4.015 -26.310  0.00  0.00    -0.000 C 
ATOM     33  C   UNL     1      34.105  -4.817 -26.828  0.00  0.00    -0.000 C 
ENDBRANCH  21  24
ENDBRANCH   1  21
TORSDOF 6
ENDMDL
