MODEL 1
REMARK VINA RESULT:     -12.4      0.000      0.000
REMARK  Name = 10224181
REMARK  7 active torsions:
REMARK  status: ('A' for Active; 'I' for Inactive)
REMARK    1  A    between atoms: N_3  and  C_23
REMARK    2  A    between atoms: C_12  and  C_14
REMARK    3  A    between atoms: C_15  and  C_16
REMARK    4  A    between atoms: C_16  and  C_17
REMARK    5  A    between atoms: C_23  and  C_24
REMARK    6  A    between atoms: C_29  and  C_31
REMARK    7  A    between atoms: C_31  and  O_32
REMARK                            x       y       z     vdW  Elec       q    Type
REMARK                         _______ _______ _______ _____ _____    ______ ____
ROOT
ATOM      1  O   UNL     1      35.851 -16.210 -21.488  0.00  0.00    -0.267 OA
ATOM      2  O   UNL     1      35.325 -20.116 -23.951  0.00  0.00    -0.246 OA
ATOM      3  N   UNL     1      35.603 -18.186 -22.704  0.00  0.00    -0.244 N 
ATOM      4  N   UNL     1      34.355 -18.166 -24.739  0.00  0.00    -0.279 N 
ATOM      5  C   UNL     1      34.106 -16.771 -24.577  0.00  0.00    +0.069 A 
ATOM      6  C   UNL     1      34.616 -16.097 -23.466  0.00  0.00    +0.073 A 
ATOM      7  C   UNL     1      35.411 -16.821 -22.460  0.00  0.00    +0.266 A 
ATOM      8  C   UNL     1      35.107 -18.907 -23.813  0.00  0.00    +0.334 A 
ATOM      9  C   UNL     1      34.382 -14.723 -23.288  0.00  0.00    +0.014 C 
ATOM     10  C   UNL     1      33.353 -16.035 -25.509  0.00  0.00    +0.018 C 
ATOM     11  C   UNL     1      33.808 -18.847 -25.912  0.00  0.00    +0.135 C 
ATOM     12  C   UNL     1      33.634 -14.013 -24.222  0.00  0.00    +0.042 C 
ATOM     13  C   UNL     1      33.120 -14.669 -25.333  0.00  0.00    +0.010 C 
ENDROOT
BRANCH  12  14
ATOM     14  C   UNL     1      33.398 -12.616 -24.039  0.00  0.00    -0.064 C 
ATOM     15  C   UNL     1      33.197 -11.438 -23.882  0.00  0.00    -0.082 C 
BRANCH  15  16
ATOM     16  C   UNL     1      32.952 -10.005 -23.687  0.00  0.00    +0.103 C 
BRANCH  16  17
ATOM     17  C   UNL     1      32.517  -9.695 -22.277  0.00  0.00    -0.009 C 
ATOM     18  C   UNL     1      31.760 -10.622 -21.576  0.00  0.00    -0.003 C 
ATOM     19  C   UNL     1      32.883  -8.486 -21.701  0.00  0.00    -0.003 C 
ATOM     20  C   UNL     1      31.360 -10.335 -20.271  0.00  0.00    -0.000 C 
ATOM     21  C   UNL     1      32.481  -8.199 -20.397  0.00  0.00    -0.000 C 
ATOM     22  C   UNL     1      31.720  -9.123 -19.682  0.00  0.00    -0.000 C 
ENDBRANCH  16  17
ENDBRANCH  15  16
ENDBRANCH  12  14
BRANCH   3  23
ATOM     23  C   UNL     1      36.389 -18.932 -21.724  0.00  0.00    +0.140 C 
BRANCH  23  24
ATOM     24  C   UNL     1      35.543 -19.910 -20.954  0.00  0.00    +0.001 C 
ATOM     25  C   UNL     1      36.159 -20.881 -20.176  0.00  0.00    -0.002 C 
ATOM     26  C   UNL     1      34.160 -19.826 -21.030  0.00  0.00    -0.002 C 
ATOM     27  C   UNL     1      35.375 -21.787 -19.461  0.00  0.00    +0.006 C 
ATOM     28  C   UNL     1      33.376 -20.732 -20.315  0.00  0.00    +0.006 C 
ATOM     29  C   UNL     1      33.984 -21.713 -19.531  0.00  0.00    +0.075 C 
BRANCH  29  31
ATOM     30  O   UNL     1      32.072 -22.404 -18.269  0.00  0.00    -0.245 OA
ATOM     31  C   UNL     1      33.166 -22.657 -18.785  0.00  0.00    +0.338 C 
BRANCH  31  32
ATOM     32  O   UNL     1      33.737 -23.890 -18.704  0.00  0.00    -0.477 OA
ATOM     33  H   UNL     1      33.362 -24.543 -18.147  0.00  0.00    +0.295 HD
ENDBRANCH  31  32
ENDBRANCH  29  31
ENDBRANCH  23  24
ENDBRANCH   3  23
TORSDOF 7
ENDMDL
MODEL 2
REMARK VINA RESULT:     -11.9      1.082      1.796
REMARK  Name = 10224181
REMARK  7 active torsions:
REMARK  status: ('A' for Active; 'I' for Inactive)
REMARK    1  A    between atoms: N_3  and  C_23
REMARK    2  A    between atoms: C_12  and  C_14
REMARK    3  A    between atoms: C_15  and  C_16
REMARK    4  A    between atoms: C_16  and  C_17
REMARK    5  A    between atoms: C_23  and  C_24
REMARK    6  A    between atoms: C_29  and  C_31
REMARK    7  A    between atoms: C_31  and  O_32
REMARK                            x       y       z     vdW  Elec       q    Type
REMARK                         _______ _______ _______ _____ _____    ______ ____
ROOT
ATOM      1  O   UNL     1      35.541 -16.125 -20.785  0.00  0.00    -0.267 OA
ATOM      2  O   UNL     1      35.788 -19.417 -24.056  0.00  0.00    -0.246 OA
ATOM      3  N   UNL     1      35.682 -17.795 -22.409  0.00  0.00    -0.244 N 
ATOM      4  N   UNL     1      34.615 -17.474 -24.520  0.00  0.00    -0.279 N 
ATOM      5  C   UNL     1      34.155 -16.192 -24.097  0.00  0.00    +0.069 A 
ATOM      6  C   UNL     1      34.469 -15.725 -22.820  0.00  0.00    +0.073 A 
ATOM      7  C   UNL     1      35.275 -16.552 -21.906  0.00  0.00    +0.266 A 
ATOM      8  C   UNL     1      35.387 -18.305 -23.693  0.00  0.00    +0.334 A 
ATOM      9  C   UNL     1      34.026 -14.466 -22.385  0.00  0.00    +0.014 C 
ATOM     10  C   UNL     1      33.383 -15.365 -24.933  0.00  0.00    +0.018 C 
ATOM     11  C   UNL     1      34.271 -17.938 -25.864  0.00  0.00    +0.135 C 
ATOM     12  C   UNL     1      33.262 -13.662 -23.226  0.00  0.00    +0.042 C 
ATOM     13  C   UNL     1      32.942 -14.112 -24.501  0.00  0.00    +0.010 C 
ENDROOT
BRANCH  12  14
ATOM     14  C   UNL     1      32.813 -12.381 -22.782  0.00  0.00    -0.064 C 
ATOM     15  C   UNL     1      32.432 -11.302 -22.404  0.00  0.00    -0.082 C 
BRANCH  15  16
ATOM     16  C   UNL     1      31.967  -9.990 -21.941  0.00  0.00    +0.103 C 
BRANCH  16  17
ATOM     17  C   UNL     1      32.760  -8.863 -22.552  0.00  0.00    -0.009 C 
ATOM     18  C   UNL     1      32.417  -7.551 -22.262  0.00  0.00    -0.003 C 
ATOM     19  C   UNL     1      33.823  -9.156 -23.394  0.00  0.00    -0.003 C 
ATOM     20  C   UNL     1      33.151  -6.509 -22.826  0.00  0.00    -0.000 C 
ATOM     21  C   UNL     1      34.558  -8.114 -23.959  0.00  0.00    -0.000 C 
ATOM     22  C   UNL     1      34.222  -6.791 -23.675  0.00  0.00    -0.000 C 
ENDBRANCH  16  17
ENDBRANCH  15  16
ENDBRANCH  12  14
BRANCH   3  23
ATOM     23  C   UNL     1      36.484 -18.638 -21.526  0.00  0.00    +0.140 C 
BRANCH  23  24
ATOM     24  C   UNL     1      35.656 -19.710 -20.870  0.00  0.00    +0.001 C 
ATOM     25  C   UNL     1      36.283 -20.689 -20.111  0.00  0.00    -0.002 C 
ATOM     26  C   UNL     1      34.278 -19.703 -21.029  0.00  0.00    -0.002 C 
ATOM     27  C   UNL     1      35.516 -21.682 -19.502  0.00  0.00    +0.006 C 
ATOM     28  C   UNL     1      33.511 -20.696 -20.420  0.00  0.00    +0.006 C 
ATOM     29  C   UNL     1      34.130 -21.686 -19.657  0.00  0.00    +0.075 C 
BRANCH  29  31
ATOM     30  O   UNL     1      32.299 -22.529 -18.367  0.00  0.00    -0.245 OA
ATOM     31  C   UNL     1      33.330 -22.722 -19.021  0.00  0.00    +0.338 C 
BRANCH  31  32
ATOM     32  O   UNL     1      33.839 -23.968 -19.218  0.00  0.00    -0.477 OA
ATOM     33  H   UNL     1      33.828 -24.594 -18.521  0.00  0.00    +0.295 HD
ENDBRANCH  31  32
ENDBRANCH  29  31
ENDBRANCH  23  24
ENDBRANCH   3  23
TORSDOF 7
ENDMDL
MODEL 3
REMARK VINA RESULT:     -11.5      5.371      9.754
REMARK  Name = 10224181
REMARK  7 active torsions:
REMARK  status: ('A' for Active; 'I' for Inactive)
REMARK    1  A    between atoms: N_3  and  C_23
REMARK    2  A    between atoms: C_12  and  C_14
REMARK    3  A    between atoms: C_15  and  C_16
REMARK    4  A    between atoms: C_16  and  C_17
REMARK    5  A    between atoms: C_23  and  C_24
REMARK    6  A    between atoms: C_29  and  C_31
REMARK    7  A    between atoms: C_31  and  O_32
REMARK                            x       y       z     vdW  Elec       q    Type
REMARK                         _______ _______ _______ _____ _____    ______ ____
ROOT
ATOM      1  O   UNL     1      36.500 -23.112 -15.366  0.00  0.00    -0.267 OA
ATOM      2  O   UNL     1      32.727 -24.917 -13.340  0.00  0.00    -0.246 OA
ATOM      3  N   UNL     1      34.623 -24.026 -14.324  0.00  0.00    -0.244 N 
ATOM      4  N   UNL     1      32.514 -23.967 -15.442  0.00  0.00    -0.279 N 
ATOM      5  C   UNL     1      33.117 -23.306 -16.553  0.00  0.00    +0.069 A 
ATOM      6  C   UNL     1      34.481 -23.011 -16.532  0.00  0.00    +0.073 A 
ATOM      7  C   UNL     1      35.301 -23.381 -15.366  0.00  0.00    +0.266 A 
ATOM      8  C   UNL     1      33.246 -24.344 -14.304  0.00  0.00    +0.334 A 
ATOM      9  C   UNL     1      35.093 -22.362 -17.616  0.00  0.00    +0.014 C 
ATOM     10  C   UNL     1      32.376 -22.933 -17.689  0.00  0.00    +0.018 C 
ATOM     11  C   UNL     1      31.082 -24.263 -15.490  0.00  0.00    +0.135 C 
ATOM     12  C   UNL     1      34.343 -22.000 -18.731  0.00  0.00    +0.042 C 
ATOM     13  C   UNL     1      32.985 -22.287 -18.768  0.00  0.00    +0.010 C 
ENDROOT
BRANCH  12  14
ATOM     14  C   UNL     1      34.968 -21.340 -19.833  0.00  0.00    -0.064 C 
ATOM     15  C   UNL     1      35.496 -20.786 -20.764  0.00  0.00    -0.082 C 
BRANCH  15  16
ATOM     16  C   UNL     1      36.140 -20.114 -21.898  0.00  0.00    +0.103 C 
BRANCH  16  17
ATOM     17  C   UNL     1      35.698 -18.679 -22.028  0.00  0.00    -0.009 C 
ATOM     18  C   UNL     1      35.555 -17.903 -20.887  0.00  0.00    -0.003 C 
ATOM     19  C   UNL     1      35.443 -18.155 -23.287  0.00  0.00    -0.003 C 
ATOM     20  C   UNL     1      35.148 -16.575 -21.008  0.00  0.00    -0.000 C 
ATOM     21  C   UNL     1      35.035 -16.827 -23.408  0.00  0.00    -0.000 C 
ATOM     22  C   UNL     1      34.887 -16.037 -22.268  0.00  0.00    -0.000 C 
ENDBRANCH  16  17
ENDBRANCH  15  16
ENDBRANCH  12  14
BRANCH   3  23
ATOM     23  C   UNL     1      35.410 -24.406 -13.154  0.00  0.00    +0.140 C 
BRANCH  23  24
ATOM     24  C   UNL     1      36.754 -24.963 -13.538  0.00  0.00    +0.001 C 
ATOM     25  C   UNL     1      37.905 -24.406 -12.997  0.00  0.00    -0.002 C 
ATOM     26  C   UNL     1      36.824 -26.027 -14.427  0.00  0.00    -0.002 C 
ATOM     27  C   UNL     1      39.150 -24.923 -13.353  0.00  0.00    +0.006 C 
ATOM     28  C   UNL     1      38.070 -26.544 -14.783  0.00  0.00    +0.006 C 
ATOM     29  C   UNL     1      39.233 -25.991 -14.246  0.00  0.00    +0.075 C 
BRANCH  29  31
ATOM     30  O   UNL     1      41.329 -27.073 -13.843  0.00  0.00    -0.245 OA
ATOM     31  C   UNL     1      40.533 -26.531 -14.616  0.00  0.00    +0.338 C 
BRANCH  31  32
ATOM     32  O   UNL     1      40.801 -26.377 -15.942  0.00  0.00    -0.477 OA
ATOM     33  H   UNL     1      41.687 -26.277 -16.231  0.00  0.00    +0.295 HD
ENDBRANCH  31  32
ENDBRANCH  29  31
ENDBRANCH  23  24
ENDBRANCH   3  23
TORSDOF 7
ENDMDL
MODEL 4
REMARK VINA RESULT:     -10.4      4.069     10.822
REMARK  Name = 10224181
REMARK  7 active torsions:
REMARK  status: ('A' for Active; 'I' for Inactive)
REMARK    1  A    between atoms: N_3  and  C_23
REMARK    2  A    between atoms: C_12  and  C_14
REMARK    3  A    between atoms: C_15  and  C_16
REMARK    4  A    between atoms: C_16  and  C_17
REMARK    5  A    between atoms: C_23  and  C_24
REMARK    6  A    between atoms: C_29  and  C_31
REMARK    7  A    between atoms: C_31  and  O_32
REMARK                            x       y       z     vdW  Elec       q    Type
REMARK                         _______ _______ _______ _____ _____    ______ ____
ROOT
ATOM      1  O   UNL     1      37.682 -19.770 -20.391  0.00  0.00    -0.267 OA
ATOM      2  O   UNL     1      33.664 -19.294 -22.677  0.00  0.00    -0.246 OA
ATOM      3  N   UNL     1      35.678 -19.512 -21.558  0.00  0.00    -0.244 N 
ATOM      4  N   UNL     1      33.732 -20.685 -20.826  0.00  0.00    -0.279 N 
ATOM      5  C   UNL     1      34.478 -21.264 -19.758  0.00  0.00    +0.069 A 
ATOM      6  C   UNL     1      35.831 -20.955 -19.604  0.00  0.00    +0.073 A 
ATOM      7  C   UNL     1      36.490 -20.030 -20.542  0.00  0.00    +0.266 A 
ATOM      8  C   UNL     1      34.307 -19.798 -21.750  0.00  0.00    +0.334 A 
ATOM      9  C   UNL     1      36.583 -21.514 -18.558  0.00  0.00    +0.014 C 
ATOM     10  C   UNL     1      33.894 -22.152 -18.836  0.00  0.00    +0.018 C 
ATOM     11  C   UNL     1      32.317 -21.028 -20.964  0.00  0.00    +0.135 C 
ATOM     12  C   UNL     1      35.986 -22.391 -17.657  0.00  0.00    +0.042 C 
ATOM     13  C   UNL     1      34.641 -22.709 -17.796  0.00  0.00    +0.010 C 
ENDROOT
BRANCH  12  14
ATOM     14  C   UNL     1      36.753 -22.958 -16.594  0.00  0.00    -0.064 C 
ATOM     15  C   UNL     1      37.403 -23.436 -15.699  0.00  0.00    -0.082 C 
BRANCH  15  16
ATOM     16  C   UNL     1      38.197 -24.017 -14.611  0.00  0.00    +0.103 C 
BRANCH  16  17
ATOM     17  C   UNL     1      37.426 -24.071 -13.317  0.00  0.00    -0.009 C 
ATOM     18  C   UNL     1      37.710 -23.156 -12.314  0.00  0.00    -0.003 C 
ATOM     19  C   UNL     1      36.442 -25.035 -13.149  0.00  0.00    -0.003 C 
ATOM     20  C   UNL     1      36.995 -23.205 -11.118  0.00  0.00    -0.000 C 
ATOM     21  C   UNL     1      35.728 -25.085 -11.952  0.00  0.00    -0.000 C 
ATOM     22  C   UNL     1      36.005 -24.171 -10.936  0.00  0.00    -0.000 C 
ENDBRANCH  16  17
ENDBRANCH  15  16
ENDBRANCH  12  14
BRANCH   3  23
ATOM     23  C   UNL     1      36.304 -18.591 -22.504  0.00  0.00    +0.140 C 
BRANCH  23  24
ATOM     24  C   UNL     1      35.602 -17.260 -22.539  0.00  0.00    +0.001 C 
ATOM     25  C   UNL     1      35.363 -16.582 -21.352  0.00  0.00    -0.002 C 
ATOM     26  C   UNL     1      35.204 -16.729 -23.758  0.00  0.00    -0.002 C 
ATOM     27  C   UNL     1      34.713 -15.349 -21.384  0.00  0.00    +0.006 C 
ATOM     28  C   UNL     1      34.555 -15.495 -23.791  0.00  0.00    +0.006 C 
ATOM     29  C   UNL     1      34.308 -14.805 -22.603  0.00  0.00    +0.075 C 
BRANCH  29  31
ATOM     30  O   UNL     1      32.623 -13.223 -21.987  0.00  0.00    -0.245 OA
ATOM     31  C   UNL     1      33.631 -13.518 -22.638  0.00  0.00    +0.338 C 
BRANCH  31  32
ATOM     32  O   UNL     1      34.230 -12.637 -23.484  0.00  0.00    -0.477 OA
ATOM     33  H   UNL     1      34.439 -11.773 -23.189  0.00  0.00    +0.295 HD
ENDBRANCH  31  32
ENDBRANCH  29  31
ENDBRANCH  23  24
ENDBRANCH   3  23
TORSDOF 7
ENDMDL
MODEL 5
REMARK VINA RESULT:     -10.4      5.563     12.102
REMARK  Name = 10224181
REMARK  7 active torsions:
REMARK  status: ('A' for Active; 'I' for Inactive)
REMARK    1  A    between atoms: N_3  and  C_23
REMARK    2  A    between atoms: C_12  and  C_14
REMARK    3  A    between atoms: C_15  and  C_16
REMARK    4  A    between atoms: C_16  and  C_17
REMARK    5  A    between atoms: C_23  and  C_24
REMARK    6  A    between atoms: C_29  and  C_31
REMARK    7  A    between atoms: C_31  and  O_32
REMARK                            x       y       z     vdW  Elec       q    Type
REMARK                         _______ _______ _______ _____ _____    ______ ____
ROOT
ATOM      1  O   UNL     1      35.257  -9.441 -24.521  0.00  0.00    -0.267 OA
ATOM      2  O   UNL     1      33.053  -7.085 -21.176  0.00  0.00    -0.246 OA
ATOM      3  N   UNL     1      34.168  -8.234 -22.847  0.00  0.00    -0.244 N 
ATOM      4  N   UNL     1      32.441  -9.283 -21.576  0.00  0.00    -0.279 N 
ATOM      5  C   UNL     1      32.620 -10.487 -22.319  0.00  0.00    +0.069 A 
ATOM      6  C   UNL     1      33.583 -10.546 -23.328  0.00  0.00    +0.073 A 
ATOM      7  C   UNL     1      34.415  -9.370 -23.628  0.00  0.00    +0.266 A 
ATOM      8  C   UNL     1      33.205  -8.130 -21.818  0.00  0.00    +0.334 A 
ATOM      9  C   UNL     1      33.775 -11.723 -24.070  0.00  0.00    +0.014 C 
ATOM     10  C   UNL     1      31.850 -11.638 -22.070  0.00  0.00    +0.018 C 
ATOM     11  C   UNL     1      31.424  -9.248 -20.525  0.00  0.00    +0.135 C 
ATOM     12  C   UNL     1      33.003 -12.851 -23.809  0.00  0.00    +0.042 C 
ATOM     13  C   UNL     1      32.041 -12.808 -22.808  0.00  0.00    +0.010 C 
ENDROOT
BRANCH  12  14
ATOM     14  C   UNL     1      33.201 -14.047 -24.565  0.00  0.00    -0.064 C 
ATOM     15  C   UNL     1      33.371 -15.054 -25.203  0.00  0.00    -0.082 C 
BRANCH  15  16
ATOM     16  C   UNL     1      33.582 -16.281 -25.981  0.00  0.00    +0.103 C 
BRANCH  16  17
ATOM     17  C   UNL     1      34.113 -17.405 -25.128  0.00  0.00    -0.009 C 
ATOM     18  C   UNL     1      33.771 -18.714 -25.434  0.00  0.00    -0.003 C 
ATOM     19  C   UNL     1      34.936 -17.112 -24.051  0.00  0.00    -0.003 C 
ATOM     20  C   UNL     1      34.263 -19.753 -24.646  0.00  0.00    -0.000 C 
ATOM     21  C   UNL     1      35.428 -18.152 -23.262  0.00  0.00    -0.000 C 
ATOM     22  C   UNL     1      35.091 -19.472 -23.559  0.00  0.00    -0.000 C 
ENDBRANCH  16  17
ENDBRANCH  15  16
ENDBRANCH  12  14
BRANCH   3  23
ATOM     23  C   UNL     1      34.978  -7.050 -23.121  0.00  0.00    +0.140 C 
BRANCH  23  24
ATOM     24  C   UNL     1      34.339  -6.158 -24.152  0.00  0.00    +0.001 C 
ATOM     25  C   UNL     1      33.099  -5.591 -23.890  0.00  0.00    -0.002 C 
ATOM     26  C   UNL     1      34.999  -5.915 -25.348  0.00  0.00    -0.002 C 
ATOM     27  C   UNL     1      32.508  -4.765 -24.846  0.00  0.00    +0.006 C 
ATOM     28  C   UNL     1      34.407  -5.089 -26.303  0.00  0.00    +0.006 C 
ATOM     29  C   UNL     1      33.161  -4.513 -26.052  0.00  0.00    +0.075 C 
BRANCH  29  31
ATOM     30  O   UNL     1      31.576  -2.910 -26.852  0.00  0.00    -0.245 OA
ATOM     31  C   UNL     1      32.544  -3.651 -27.048  0.00  0.00    +0.338 C 
BRANCH  31  32
ATOM     32  O   UNL     1      33.153  -3.739 -28.262  0.00  0.00    -0.477 OA
ATOM     33  H   UNL     1      32.638  -3.757 -29.044  0.00  0.00    +0.295 HD
ENDBRANCH  31  32
ENDBRANCH  29  31
ENDBRANCH  23  24
ENDBRANCH   3  23
TORSDOF 7
ENDMDL
MODEL 6
REMARK VINA RESULT:      -9.9      5.697     11.772
REMARK  Name = 10224181
REMARK  7 active torsions:
REMARK  status: ('A' for Active; 'I' for Inactive)
REMARK    1  A    between atoms: N_3  and  C_23
REMARK    2  A    between atoms: C_12  and  C_14
REMARK    3  A    between atoms: C_15  and  C_16
REMARK    4  A    between atoms: C_16  and  C_17
REMARK    5  A    between atoms: C_23  and  C_24
REMARK    6  A    between atoms: C_29  and  C_31
REMARK    7  A    between atoms: C_31  and  O_32
REMARK                            x       y       z     vdW  Elec       q    Type
REMARK                         _______ _______ _______ _____ _____    ______ ____
ROOT
ATOM      1  O   UNL     1      31.990  -8.968 -23.981  0.00  0.00    -0.267 OA
ATOM      2  O   UNL     1      31.543  -7.748 -19.518  0.00  0.00    -0.246 OA
ATOM      3  N   UNL     1      31.760  -8.327 -21.749  0.00  0.00    -0.244 N 
ATOM      4  N   UNL     1      32.030  -9.956 -20.024  0.00  0.00    -0.279 N 
ATOM      5  C   UNL     1      32.285 -10.959 -21.006  0.00  0.00    +0.069 A 
ATOM      6  C   UNL     1      32.272 -10.626 -22.362  0.00  0.00    +0.073 A 
ATOM      7  C   UNL     1      31.997  -9.242 -22.782  0.00  0.00    +0.266 A 
ATOM      8  C   UNL     1      31.763  -8.620 -20.366  0.00  0.00    +0.334 A 
ATOM      9  C   UNL     1      32.520 -11.599 -23.344  0.00  0.00    +0.014 C 
ATOM     10  C   UNL     1      32.552 -12.294 -20.655  0.00  0.00    +0.018 C 
ATOM     11  C   UNL     1      32.049 -10.332 -18.611  0.00  0.00    +0.135 C 
ATOM     12  C   UNL     1      32.783 -12.915 -22.976  0.00  0.00    +0.042 C 
ATOM     13  C   UNL     1      32.799 -13.262 -21.631  0.00  0.00    +0.010 C 
ENDROOT
BRANCH  12  14
ATOM     14  C   UNL     1      33.035 -13.903 -23.976  0.00  0.00    -0.064 C 
ATOM     15  C   UNL     1      33.248 -14.739 -24.817  0.00  0.00    -0.082 C 
BRANCH  15  16
ATOM     16  C   UNL     1      33.507 -15.760 -25.839  0.00  0.00    +0.103 C 
BRANCH  16  17
ATOM     17  C   UNL     1      33.978 -17.057 -25.233  0.00  0.00    -0.009 C 
ATOM     18  C   UNL     1      34.812 -17.030 -24.125  0.00  0.00    -0.003 C 
ATOM     19  C   UNL     1      33.568 -18.259 -25.791  0.00  0.00    -0.003 C 
ATOM     20  C   UNL     1      35.246 -18.230 -23.563  0.00  0.00    -0.000 C 
ATOM     21  C   UNL     1      34.004 -19.459 -25.231  0.00  0.00    -0.000 C 
ATOM     22  C   UNL     1      34.842 -19.445 -24.117  0.00  0.00    -0.000 C 
ENDBRANCH  16  17
ENDBRANCH  15  16
ENDBRANCH  12  14
BRANCH   3  23
ATOM     23  C   UNL     1      31.485  -6.945 -22.134  0.00  0.00    +0.140 C 
BRANCH  23  24
ATOM     24  C   UNL     1      32.392  -6.480 -23.241  0.00  0.00    +0.001 C 
ATOM     25  C   UNL     1      31.856  -5.792 -24.321  0.00  0.00    -0.002 C 
ATOM     26  C   UNL     1      33.753  -6.745 -23.167  0.00  0.00    -0.002 C 
ATOM     27  C   UNL     1      32.696  -5.361 -25.347  0.00  0.00    +0.006 C 
ATOM     28  C   UNL     1      34.594  -6.313 -24.193  0.00  0.00    +0.006 C 
ATOM     29  C   UNL     1      34.065  -5.622 -25.283  0.00  0.00    +0.075 C 
BRANCH  29  31
ATOM     30  O   UNL     1      36.177  -5.182 -26.317  0.00  0.00    -0.245 OA
ATOM     31  C   UNL     1      34.943  -5.172 -26.353  0.00  0.00    +0.338 C 
BRANCH  31  32
ATOM     32  O   UNL     1      34.254  -4.720 -27.436  0.00  0.00    -0.477 OA
ATOM     33  H   UNL     1      33.796  -5.325 -27.985  0.00  0.00    +0.295 HD
ENDBRANCH  31  32
ENDBRANCH  29  31
ENDBRANCH  23  24
ENDBRANCH   3  23
TORSDOF 7
ENDMDL
MODEL 7
REMARK VINA RESULT:      -9.8      4.943      8.306
REMARK  Name = 10224181
REMARK  7 active torsions:
REMARK  status: ('A' for Active; 'I' for Inactive)
REMARK    1  A    between atoms: N_3  and  C_23
REMARK    2  A    between atoms: C_12  and  C_14
REMARK    3  A    between atoms: C_15  and  C_16
REMARK    4  A    between atoms: C_16  and  C_17
REMARK    5  A    between atoms: C_23  and  C_24
REMARK    6  A    between atoms: C_29  and  C_31
REMARK    7  A    between atoms: C_31  and  O_32
REMARK                            x       y       z     vdW  Elec       q    Type
REMARK                         _______ _______ _______ _____ _____    ______ ____
ROOT
ATOM      1  O   UNL     1      37.737 -22.058 -17.918  0.00  0.00    -0.267 OA
ATOM      2  O   UNL     1      34.923 -24.594 -15.226  0.00  0.00    -0.246 OA
ATOM      3  N   UNL     1      36.349 -23.340 -16.550  0.00  0.00    -0.244 N 
ATOM      4  N   UNL     1      34.003 -23.408 -16.990  0.00  0.00    -0.279 N 
ATOM      5  C   UNL     1      34.182 -22.532 -18.101  0.00  0.00    +0.069 A 
ATOM      6  C   UNL     1      35.458 -22.067 -18.423  0.00  0.00    +0.073 A 
ATOM      7  C   UNL     1      36.622 -22.479 -17.620  0.00  0.00    +0.266 A 
ATOM      8  C   UNL     1      35.074 -23.835 -16.189  0.00  0.00    +0.334 A 
ATOM      9  C   UNL     1      35.656 -21.204 -19.513  0.00  0.00    +0.014 C 
ATOM     10  C   UNL     1      33.103 -22.110 -18.899  0.00  0.00    +0.018 C 
ATOM     11  C   UNL     1      32.655 -23.879 -16.675  0.00  0.00    +0.135 C 
ATOM     12  C   UNL     1      34.575 -20.797 -20.290  0.00  0.00    +0.042 C 
ATOM     13  C   UNL     1      33.299 -21.251 -19.984  0.00  0.00    +0.010 C 
ENDROOT
BRANCH  12  14
ATOM     14  C   UNL     1      34.778 -19.919 -21.399  0.00  0.00    -0.064 C 
ATOM     15  C   UNL     1      34.951 -19.176 -22.331  0.00  0.00    -0.082 C 
BRANCH  15  16
ATOM     16  C   UNL     1      35.162 -18.268 -23.465  0.00  0.00    +0.103 C 
BRANCH  16  17
ATOM     17  C   UNL     1      34.885 -16.833 -23.096  0.00  0.00    -0.009 C 
ATOM     18  C   UNL     1      34.427 -15.956 -24.068  0.00  0.00    -0.003 C 
ATOM     19  C   UNL     1      35.091 -16.412 -21.791  0.00  0.00    -0.003 C 
ATOM     20  C   UNL     1      34.169 -14.628 -23.727  0.00  0.00    -0.000 C 
ATOM     21  C   UNL     1      34.835 -15.085 -21.450  0.00  0.00    -0.000 C 
ATOM     22  C   UNL     1      34.374 -14.193 -22.417  0.00  0.00    -0.000 C 
ENDBRANCH  16  17
ENDBRANCH  15  16
ENDBRANCH  12  14
BRANCH   3  23
ATOM     23  C   UNL     1      37.482 -23.767 -15.734  0.00  0.00    +0.140 C 
BRANCH  23  24
ATOM     24  C   UNL     1      37.078 -24.039 -14.310  0.00  0.00    +0.001 C 
ATOM     25  C   UNL     1      37.084 -25.344 -13.836  0.00  0.00    -0.002 C 
ATOM     26  C   UNL     1      36.707 -22.983 -13.491  0.00  0.00    -0.002 C 
ATOM     27  C   UNL     1      36.710 -25.596 -12.516  0.00  0.00    +0.006 C 
ATOM     28  C   UNL     1      36.333 -23.235 -12.171  0.00  0.00    +0.006 C 
ATOM     29  C   UNL     1      36.334 -24.542 -11.684  0.00  0.00    +0.075 C 
BRANCH  29  31
ATOM     30  O   UNL     1      35.129 -25.660  -9.945  0.00  0.00    -0.245 OA
ATOM     31  C   UNL     1      35.944 -24.805 -10.307  0.00  0.00    +0.338 C 
BRANCH  31  32
ATOM     32  O   UNL     1      36.583 -23.992  -9.421  0.00  0.00    -0.477 OA
ATOM     33  H   UNL     1      36.896 -24.340  -8.609  0.00  0.00    +0.295 HD
ENDBRANCH  31  32
ENDBRANCH  29  31
ENDBRANCH  23  24
ENDBRANCH   3  23
TORSDOF 7
ENDMDL
MODEL 8
REMARK VINA RESULT:      -9.8      3.954     11.124
REMARK  Name = 10224181
REMARK  7 active torsions:
REMARK  status: ('A' for Active; 'I' for Inactive)
REMARK    1  A    between atoms: N_3  and  C_23
REMARK    2  A    between atoms: C_12  and  C_14
REMARK    3  A    between atoms: C_15  and  C_16
REMARK    4  A    between atoms: C_16  and  C_17
REMARK    5  A    between atoms: C_23  and  C_24
REMARK    6  A    between atoms: C_29  and  C_31
REMARK    7  A    between atoms: C_31  and  O_32
REMARK                            x       y       z     vdW  Elec       q    Type
REMARK                         _______ _______ _______ _____ _____    ______ ____
ROOT
ATOM      1  O   UNL     1      37.704 -19.494 -20.810  0.00  0.00    -0.267 OA
ATOM      2  O   UNL     1      33.531 -19.187 -22.833  0.00  0.00    -0.246 OA
ATOM      3  N   UNL     1      35.621 -19.321 -21.846  0.00  0.00    -0.244 N 
ATOM      4  N   UNL     1      33.768 -20.547 -20.972  0.00  0.00    -0.279 N 
ATOM      5  C   UNL     1      34.602 -21.085 -19.948  0.00  0.00    +0.069 A 
ATOM      6  C   UNL     1      35.950 -20.727 -19.888  0.00  0.00    +0.073 A 
ATOM      7  C   UNL     1      36.515 -19.796 -20.879  0.00  0.00    +0.266 A 
ATOM      8  C   UNL     1      34.251 -19.655 -21.943  0.00  0.00    +0.334 A 
ATOM      9  C   UNL     1      36.788 -21.245 -18.887  0.00  0.00    +0.014 C 
ATOM     10  C   UNL     1      34.110 -21.977 -18.978  0.00  0.00    +0.018 C 
ATOM     11  C   UNL     1      32.359 -20.939 -21.012  0.00  0.00    +0.135 C 
ATOM     12  C   UNL     1      36.282 -22.127 -17.936  0.00  0.00    +0.042 C 
ATOM     13  C   UNL     1      34.943 -22.492 -17.982  0.00  0.00    +0.010 C 
ENDROOT
BRANCH  12  14
ATOM     14  C   UNL     1      37.136 -22.653 -16.919  0.00  0.00    -0.064 C 
ATOM     15  C   UNL     1      37.859 -23.096 -16.063  0.00  0.00    -0.082 C 
BRANCH  15  16
ATOM     16  C   UNL     1      38.742 -23.635 -15.023  0.00  0.00    +0.103 C 
BRANCH  16  17
ATOM     17  C   UNL     1      38.164 -24.869 -14.378  0.00  0.00    -0.009 C 
ATOM     18  C   UNL     1      37.628 -25.869 -15.176  0.00  0.00    -0.003 C 
ATOM     19  C   UNL     1      38.179 -24.987 -12.996  0.00  0.00    -0.003 C 
ATOM     20  C   UNL     1      37.094 -27.011 -14.579  0.00  0.00    -0.000 C 
ATOM     21  C   UNL     1      37.645 -26.128 -12.399  0.00  0.00    -0.000 C 
ATOM     22  C   UNL     1      37.103 -27.140 -13.190  0.00  0.00    -0.000 C 
ENDBRANCH  16  17
ENDBRANCH  15  16
ENDBRANCH  12  14
BRANCH   3  23
ATOM     23  C   UNL     1      36.151 -18.394 -22.844  0.00  0.00    +0.140 C 
BRANCH  23  24
ATOM     24  C   UNL     1      35.438 -17.070 -22.814  0.00  0.00    +0.001 C 
ATOM     25  C   UNL     1      34.946 -16.531 -23.996  0.00  0.00    -0.002 C 
ATOM     26  C   UNL     1      35.280 -16.405 -21.606  0.00  0.00    -0.002 C 
ATOM     27  C   UNL     1      34.285 -15.304 -23.968  0.00  0.00    +0.006 C 
ATOM     28  C   UNL     1      34.618 -15.177 -21.578  0.00  0.00    +0.006 C 
ATOM     29  C   UNL     1      34.121 -14.626 -22.760  0.00  0.00    +0.075 C 
BRANCH  29  31
ATOM     30  O   UNL     1      32.603 -12.999 -21.882  0.00  0.00    -0.245 OA
ATOM     31  C   UNL     1      33.431 -13.346 -22.731  0.00  0.00    +0.338 C 
BRANCH  31  32
ATOM     32  O   UNL     1      33.793 -12.536 -23.763  0.00  0.00    -0.477 OA
ATOM     33  H   UNL     1      33.408 -11.686 -23.847  0.00  0.00    +0.295 HD
ENDBRANCH  31  32
ENDBRANCH  29  31
ENDBRANCH  23  24
ENDBRANCH   3  23
TORSDOF 7
ENDMDL
