MODEL 1
REMARK VINA RESULT:     -11.4      0.000      0.000
REMARK  Name = 176407
REMARK  5 active torsions:
REMARK  status: ('A' for Active; 'I' for Inactive)
REMARK    1  A    between atoms: N_1  and  C_20
REMARK    2  A    between atoms: C_11  and  C_16
REMARK    3  A    between atoms: C_20  and  C_21
REMARK    4  A    between atoms: C_21  and  C_22
REMARK    5  A    between atoms: C_27  and  O_28
REMARK                            x       y       z     vdW  Elec       q    Type
REMARK                         _______ _______ _______ _____ _____    ______ ____
ROOT
ATOM      1  N   UNL     1      35.800 -18.250 -22.888  0.00  0.00    -0.258 N 
ATOM      2  N   UNL     1      33.954 -14.964 -24.213  0.00  0.00    -0.059 N 
ATOM      3  N   UNL     1      35.141 -16.057 -22.509  0.00  0.00    -0.245 NA
ATOM      4  N   UNL     1      34.603 -17.120 -24.582  0.00  0.00    -0.294 NA
ATOM      5  N   UNL     1      33.372 -13.795 -24.521  0.00  0.00    -0.090 NA
ATOM      6  N   UNL     1      34.307 -13.761 -22.432  0.00  0.00    -0.267 NA
ATOM      7  N   UNL     1      33.399 -15.970 -26.271  0.00  0.00    -0.318 N 
ATOM      8  C   UNL     1      35.173 -17.100 -23.310  0.00  0.00    +0.213 C 
ATOM      9  C   UNL     1      34.514 -14.947 -22.967  0.00  0.00    +0.251 C 
ATOM     10  C   UNL     1      33.994 -16.067 -25.043  0.00  0.00    +0.282 C 
ATOM     11  C   UNL     1      33.613 -13.099 -23.407  0.00  0.00    +0.153 C 
ATOM     12  H   UNL     1      35.821 -19.028 -23.490  0.00  0.00    +0.160 HD
ATOM     13  H   UNL     1      32.960 -15.130 -26.540  0.00  0.00    +0.146 HD
ATOM     14  H   UNL     1      33.411 -16.738 -26.887  0.00  0.00    +0.146 HD
ENDROOT
BRANCH  11  16
ATOM     15  O   UNL     1      32.232 -11.304 -22.336  0.00  0.00    -0.439 OA
ATOM     16  C   UNL     1      33.162 -11.706 -23.241  0.00  0.00    +0.221 C 
ATOM     17  C   UNL     1      33.616 -10.634 -23.975  0.00  0.00    +0.052 C 
ATOM     18  C   UNL     1      32.920  -9.502 -23.489  0.00  0.00    +0.045 C 
ATOM     19  C   UNL     1      32.090  -9.962 -22.494  0.00  0.00    +0.181 C 
ENDBRANCH  11  16
BRANCH   1  20
ATOM     20  C   UNL     1      36.420 -18.348 -21.606  0.00  0.00    +0.103 C 
BRANCH  20  21
ATOM     21  C   UNL     1      36.756 -19.801 -21.272  0.00  0.00    +0.048 C 
BRANCH  21  22
ATOM     22  C   UNL     1      35.626 -20.527 -20.583  0.00  0.00    -0.020 C 
ATOM     23  C   UNL     1      35.918 -21.496 -19.636  0.00  0.00    -0.001 C 
ATOM     24  C   UNL     1      34.317 -20.211 -20.910  0.00  0.00    -0.001 C 
ATOM     25  C   UNL     1      34.874 -22.167 -19.001  0.00  0.00    +0.036 C 
ATOM     26  C   UNL     1      33.273 -20.883 -20.275  0.00  0.00    +0.036 C 
ATOM     27  C   UNL     1      33.551 -21.861 -19.320  0.00  0.00    +0.134 C 
BRANCH  27  28
ATOM     28  O   UNL     1      32.533 -22.516 -18.699  0.00  0.00    -0.506 OA
ATOM     29  H   UNL     1      32.621 -23.424 -18.485  0.00  0.00    +0.292 HD
ENDBRANCH  27  28
ENDBRANCH  21  22
ENDBRANCH  20  21
ENDBRANCH   1  20
TORSDOF 5
ENDMDL
MODEL 2
REMARK VINA RESULT:     -11.2      4.999     10.285
REMARK  Name = 176407
REMARK  5 active torsions:
REMARK  status: ('A' for Active; 'I' for Inactive)
REMARK    1  A    between atoms: N_1  and  C_20
REMARK    2  A    between atoms: C_11  and  C_16
REMARK    3  A    between atoms: C_20  and  C_21
REMARK    4  A    between atoms: C_21  and  C_22
REMARK    5  A    between atoms: C_27  and  O_28
REMARK                            x       y       z     vdW  Elec       q    Type
REMARK                         _______ _______ _______ _____ _____    ______ ____
ROOT
ATOM      1  N   UNL     1      35.945 -21.021 -20.135  0.00  0.00    -0.258 N 
ATOM      2  N   UNL     1      34.184 -22.991 -17.139  0.00  0.00    -0.059 N 
ATOM      3  N   UNL     1      33.994 -21.808 -19.156  0.00  0.00    -0.245 NA
ATOM      4  N   UNL     1      36.102 -22.216 -18.104  0.00  0.00    -0.294 NA
ATOM      5  N   UNL     1      33.458 -23.624 -16.206  0.00  0.00    -0.090 NA
ATOM      6  N   UNL     1      32.147 -22.766 -17.874  0.00  0.00    -0.267 NA
ATOM      7  N   UNL     1      36.238 -23.417 -16.063  0.00  0.00    -0.318 N 
ATOM      8  C   UNL     1      35.303 -21.693 -19.121  0.00  0.00    +0.213 C 
ATOM      9  C   UNL     1      33.405 -22.478 -18.136  0.00  0.00    +0.251 C 
ATOM     10  C   UNL     1      35.560 -22.862 -17.114  0.00  0.00    +0.282 C 
ATOM     11  C   UNL     1      32.228 -23.459 -16.697  0.00  0.00    +0.153 C 
ATOM     12  H   UNL     1      36.925 -20.937 -20.105  0.00  0.00    +0.160 HD
ATOM     13  H   UNL     1      35.746 -23.892 -15.354  0.00  0.00    +0.146 HD
ATOM     14  H   UNL     1      37.219 -23.344 -16.016  0.00  0.00    +0.146 HD
ENDROOT
BRANCH  11  16
ATOM     15  O   UNL     1      31.060 -24.978 -15.084  0.00  0.00    -0.439 OA
ATOM     16  C   UNL     1      31.034 -23.990 -16.016  0.00  0.00    +0.221 C 
ATOM     17  C   UNL     1      29.744 -23.564 -16.231  0.00  0.00    +0.052 C 
ATOM     18  C   UNL     1      28.925 -24.339 -15.376  0.00  0.00    +0.045 C 
ATOM     19  C   UNL     1      29.773 -25.185 -14.699  0.00  0.00    +0.181 C 
ENDBRANCH  11  16
BRANCH   1  20
ATOM     20  C   UNL     1      35.234 -20.443 -21.230  0.00  0.00    +0.103 C 
BRANCH  20  21
ATOM     21  C   UNL     1      35.834 -19.093 -21.620  0.00  0.00    +0.048 C 
BRANCH  21  22
ATOM     22  C   UNL     1      35.223 -18.513 -22.872  0.00  0.00    -0.020 C 
ATOM     23  C   UNL     1      34.587 -19.354 -23.771  0.00  0.00    -0.001 C 
ATOM     24  C   UNL     1      35.309 -17.148 -23.100  0.00  0.00    -0.001 C 
ATOM     25  C   UNL     1      34.024 -18.817 -24.928  0.00  0.00    +0.036 C 
ATOM     26  C   UNL     1      34.746 -16.612 -24.257  0.00  0.00    +0.036 C 
ATOM     27  C   UNL     1      34.102 -17.446 -25.171  0.00  0.00    +0.134 C 
BRANCH  27  28
ATOM     28  O   UNL     1      33.551 -16.923 -26.300  0.00  0.00    -0.506 OA
ATOM     29  H   UNL     1      34.072 -16.818 -27.071  0.00  0.00    +0.292 HD
ENDBRANCH  27  28
ENDBRANCH  21  22
ENDBRANCH  20  21
ENDBRANCH   1  20
TORSDOF 5
ENDMDL
MODEL 3
REMARK VINA RESULT:     -10.9      0.657      1.313
REMARK  Name = 176407
REMARK  5 active torsions:
REMARK  status: ('A' for Active; 'I' for Inactive)
REMARK    1  A    between atoms: N_1  and  C_20
REMARK    2  A    between atoms: C_11  and  C_16
REMARK    3  A    between atoms: C_20  and  C_21
REMARK    4  A    between atoms: C_21  and  C_22
REMARK    5  A    between atoms: C_27  and  O_28
REMARK                            x       y       z     vdW  Elec       q    Type
REMARK                         _______ _______ _______ _____ _____    ______ ____
ROOT
ATOM      1  N   UNL     1      36.175 -18.447 -22.698  0.00  0.00    -0.258 N 
ATOM      2  N   UNL     1      34.015 -15.309 -23.902  0.00  0.00    -0.059 N 
ATOM      3  N   UNL     1      35.308 -16.345 -22.239  0.00  0.00    -0.245 NA
ATOM      4  N   UNL     1      34.870 -17.377 -24.351  0.00  0.00    -0.294 NA
ATOM      5  N   UNL     1      33.322 -14.192 -24.167  0.00  0.00    -0.090 NA
ATOM      6  N   UNL     1      34.254 -14.145 -22.077  0.00  0.00    -0.267 NA
ATOM      7  N   UNL     1      33.556 -16.287 -25.997  0.00  0.00    -0.318 N 
ATOM      8  C   UNL     1      35.439 -17.349 -23.078  0.00  0.00    +0.213 C 
ATOM      9  C   UNL     1      34.574 -15.285 -22.656  0.00  0.00    +0.251 C 
ATOM     10  C   UNL     1      34.161 -16.372 -24.773  0.00  0.00    +0.282 C 
ATOM     11  C   UNL     1      33.497 -13.518 -23.028  0.00  0.00    +0.153 C 
ATOM     12  H   UNL     1      36.271 -19.197 -23.329  0.00  0.00    +0.160 HD
ATOM     13  H   UNL     1      33.037 -15.485 -26.235  0.00  0.00    +0.146 HD
ATOM     14  H   UNL     1      33.642 -17.027 -26.641  0.00  0.00    +0.146 HD
ENDROOT
BRANCH  11  16
ATOM     15  O   UNL     1      33.229 -11.080 -23.539  0.00  0.00    -0.439 OA
ATOM     16  C   UNL     1      32.913 -12.183 -22.811  0.00  0.00    +0.221 C 
ATOM     17  C   UNL     1      31.979 -11.874 -21.849  0.00  0.00    +0.052 C 
ATOM     18  C   UNL     1      31.703 -10.494 -21.996  0.00  0.00    +0.045 C 
ATOM     19  C   UNL     1      32.489 -10.057 -23.037  0.00  0.00    +0.181 C 
ENDBRANCH  11  16
BRANCH   1  20
ATOM     20  C   UNL     1      36.806 -18.532 -21.420  0.00  0.00    +0.103 C 
BRANCH  20  21
ATOM     21  C   UNL     1      37.045 -19.989 -21.025  0.00  0.00    +0.048 C 
BRANCH  21  22
ATOM     22  C   UNL     1      35.817 -20.658 -20.457  0.00  0.00    -0.020 C 
ATOM     23  C   UNL     1      34.566 -20.133 -20.738  0.00  0.00    -0.001 C 
ATOM     24  C   UNL     1      35.964 -21.785 -19.663  0.00  0.00    -0.001 C 
ATOM     25  C   UNL     1      33.431 -20.751 -20.212  0.00  0.00    +0.036 C 
ATOM     26  C   UNL     1      34.829 -22.403 -19.137  0.00  0.00    +0.036 C 
ATOM     27  C   UNL     1      33.563 -21.886 -19.412  0.00  0.00    +0.134 C 
BRANCH  27  28
ATOM     28  O   UNL     1      32.455 -22.489 -18.900  0.00  0.00    -0.506 OA
ATOM     29  H   UNL     1      32.417 -23.422 -18.834  0.00  0.00    +0.292 HD
ENDBRANCH  27  28
ENDBRANCH  21  22
ENDBRANCH  20  21
ENDBRANCH   1  20
TORSDOF 5
ENDMDL
MODEL 4
REMARK VINA RESULT:     -10.9      4.938     10.505
REMARK  Name = 176407
REMARK  5 active torsions:
REMARK  status: ('A' for Active; 'I' for Inactive)
REMARK    1  A    between atoms: N_1  and  C_20
REMARK    2  A    between atoms: C_11  and  C_16
REMARK    3  A    between atoms: C_20  and  C_21
REMARK    4  A    between atoms: C_21  and  C_22
REMARK    5  A    between atoms: C_27  and  O_28
REMARK                            x       y       z     vdW  Elec       q    Type
REMARK                         _______ _______ _______ _____ _____    ______ ____
ROOT
ATOM      1  N   UNL     1      35.234 -20.579 -20.731  0.00  0.00    -0.258 N 
ATOM      2  N   UNL     1      35.189 -22.819 -17.423  0.00  0.00    -0.059 N 
ATOM      3  N   UNL     1      36.353 -21.374 -18.861  0.00  0.00    -0.245 NA
ATOM      4  N   UNL     1      34.090 -22.034 -19.264  0.00  0.00    -0.294 NA
ATOM      5  N   UNL     1      35.322 -23.524 -16.291  0.00  0.00    -0.090 NA
ATOM      6  N   UNL     1      37.235 -22.384 -16.817  0.00  0.00    -0.267 NA
ATOM      7  N   UNL     1      32.960 -23.498 -17.779  0.00  0.00    -0.318 N 
ATOM      8  C   UNL     1      35.256 -21.339 -19.585  0.00  0.00    +0.213 C 
ATOM      9  C   UNL     1      36.329 -22.136 -17.741  0.00  0.00    +0.251 C 
ATOM     10  C   UNL     1      34.043 -22.773 -18.194  0.00  0.00    +0.282 C 
ATOM     11  C   UNL     1      36.581 -23.228 -15.962  0.00  0.00    +0.153 C 
ATOM     12  H   UNL     1      34.410 -20.555 -21.270  0.00  0.00    +0.160 HD
ATOM     13  H   UNL     1      33.012 -24.031 -16.952  0.00  0.00    +0.146 HD
ATOM     14  H   UNL     1      32.128 -23.486 -18.305  0.00  0.00    +0.146 HD
ENDROOT
BRANCH  11  16
ATOM     15  O   UNL     1      37.054 -23.274 -13.502  0.00  0.00    -0.439 OA
ATOM     16  C   UNL     1      37.225 -23.774 -14.754  0.00  0.00    +0.221 C 
ATOM     17  C   UNL     1      38.079 -24.852 -14.731  0.00  0.00    +0.052 C 
ATOM     18  C   UNL     1      38.456 -25.026 -13.377  0.00  0.00    +0.045 C 
ATOM     19  C   UNL     1      37.807 -24.041 -12.671  0.00  0.00    +0.181 C 
ENDBRANCH  11  16
BRANCH   1  20
ATOM     20  C   UNL     1      36.366 -19.822 -21.161  0.00  0.00    +0.103 C 
BRANCH  20  21
ATOM     21  C   UNL     1      36.001 -18.350 -21.345  0.00  0.00    +0.048 C 
BRANCH  21  22
ATOM     22  C   UNL     1      35.337 -18.064 -22.669  0.00  0.00    -0.020 C 
ATOM     23  C   UNL     1      34.846 -19.118 -23.424  0.00  0.00    -0.001 C 
ATOM     24  C   UNL     1      35.229 -16.754 -23.106  0.00  0.00    -0.001 C 
ATOM     25  C   UNL     1      34.232 -18.854 -24.648  0.00  0.00    +0.036 C 
ATOM     26  C   UNL     1      34.615 -16.490 -24.330  0.00  0.00    +0.036 C 
ATOM     27  C   UNL     1      34.117 -17.540 -25.102  0.00  0.00    +0.134 C 
BRANCH  27  28
ATOM     28  O   UNL     1      33.517 -17.283 -26.296  0.00  0.00    -0.506 OA
ATOM     29  H   UNL     1      32.684 -16.856 -26.320  0.00  0.00    +0.292 HD
ENDBRANCH  27  28
ENDBRANCH  21  22
ENDBRANCH  20  21
ENDBRANCH   1  20
TORSDOF 5
ENDMDL
MODEL 5
REMARK VINA RESULT:     -10.9      6.642     11.667
REMARK  Name = 176407
REMARK  5 active torsions:
REMARK  status: ('A' for Active; 'I' for Inactive)
REMARK    1  A    between atoms: N_1  and  C_20
REMARK    2  A    between atoms: C_11  and  C_16
REMARK    3  A    between atoms: C_20  and  C_21
REMARK    4  A    between atoms: C_21  and  C_22
REMARK    5  A    between atoms: C_27  and  O_28
REMARK                            x       y       z     vdW  Elec       q    Type
REMARK                         _______ _______ _______ _____ _____    ______ ____
ROOT
ATOM      1  N   UNL     1      32.620 -22.455 -18.867  0.00  0.00    -0.258 N 
ATOM      2  N   UNL     1      33.741 -23.825 -15.286  0.00  0.00    -0.059 N 
ATOM      3  N   UNL     1      34.324 -23.163 -17.461  0.00  0.00    -0.245 NA
ATOM      4  N   UNL     1      32.067 -23.127 -16.672  0.00  0.00    -0.294 NA
ATOM      5  N   UNL     1      34.263 -24.285 -14.140  0.00  0.00    -0.090 NA
ATOM      6  N   UNL     1      35.867 -23.957 -15.739  0.00  0.00    -0.267 NA
ATOM      7  N   UNL     1      31.532 -23.808 -14.464  0.00  0.00    -0.318 N 
ATOM      8  C   UNL     1      33.044 -22.927 -17.647  0.00  0.00    +0.213 C 
ATOM      9  C   UNL     1      34.695 -23.627 -16.243  0.00  0.00    +0.251 C 
ATOM     10  C   UNL     1      32.399 -23.573 -15.496  0.00  0.00    +0.282 C 
ATOM     11  C   UNL     1      35.556 -24.348 -14.466  0.00  0.00    +0.153 C 
ATOM     12  H   UNL     1      31.661 -22.279 -19.003  0.00  0.00    +0.160 HD
ATOM     13  H   UNL     1      31.871 -24.146 -13.603  0.00  0.00    +0.146 HD
ATOM     14  H   UNL     1      30.569 -23.638 -14.580  0.00  0.00    +0.146 HD
ENDROOT
BRANCH  11  16
ATOM     15  O   UNL     1      36.892 -26.114 -13.293  0.00  0.00    -0.439 OA
ATOM     16  C   UNL     1      36.583 -24.810 -13.515  0.00  0.00    +0.221 C 
ATOM     17  C   UNL     1      37.358 -23.990 -12.728  0.00  0.00    +0.052 C 
ATOM     18  C   UNL     1      38.197 -24.846 -11.975  0.00  0.00    +0.045 C 
ATOM     19  C   UNL     1      37.875 -26.127 -12.355  0.00  0.00    +0.181 C 
ENDBRANCH  11  16
BRANCH   1  20
ATOM     20  C   UNL     1      33.527 -22.210 -19.942  0.00  0.00    +0.103 C 
BRANCH  20  21
ATOM     21  C   UNL     1      33.418 -20.766 -20.432  0.00  0.00    +0.048 C 
BRANCH  21  22
ATOM     22  C   UNL     1      34.746 -20.177 -20.839  0.00  0.00    -0.020 C 
ATOM     23  C   UNL     1      34.781 -19.188 -21.810  0.00  0.00    -0.001 C 
ATOM     24  C   UNL     1      35.906 -20.634 -20.235  0.00  0.00    -0.001 C 
ATOM     25  C   UNL     1      36.008 -18.644 -22.187  0.00  0.00    +0.036 C 
ATOM     26  C   UNL     1      37.133 -20.090 -20.612  0.00  0.00    +0.036 C 
ATOM     27  C   UNL     1      37.184 -19.094 -21.588  0.00  0.00    +0.134 C 
BRANCH  27  28
ATOM     28  O   UNL     1      38.382 -18.561 -21.956  0.00  0.00    -0.506 OA
ATOM     29  H   UNL     1      38.770 -18.803 -22.773  0.00  0.00    +0.292 HD
ENDBRANCH  27  28
ENDBRANCH  21  22
ENDBRANCH  20  21
ENDBRANCH   1  20
TORSDOF 5
ENDMDL
MODEL 6
REMARK VINA RESULT:     -10.4      5.703      8.644
REMARK  Name = 176407
REMARK  5 active torsions:
REMARK  status: ('A' for Active; 'I' for Inactive)
REMARK    1  A    between atoms: N_1  and  C_20
REMARK    2  A    between atoms: C_11  and  C_16
REMARK    3  A    between atoms: C_20  and  C_21
REMARK    4  A    between atoms: C_21  and  C_22
REMARK    5  A    between atoms: C_27  and  O_28
REMARK                            x       y       z     vdW  Elec       q    Type
REMARK                         _______ _______ _______ _____ _____    ______ ____
ROOT
ATOM      1  N   UNL     1      36.378 -23.442 -16.093  0.00  0.00    -0.258 N 
ATOM      2  N   UNL     1      34.563 -21.689 -19.190  0.00  0.00    -0.059 N 
ATOM      3  N   UNL     1      36.517 -22.044 -17.940  0.00  0.00    -0.245 NA
ATOM      4  N   UNL     1      34.430 -23.064 -17.374  0.00  0.00    -0.294 NA
ATOM      5  N   UNL     1      34.092 -21.036 -20.263  0.00  0.00    -0.090 NA
ATOM      6  N   UNL     1      36.321 -20.637 -19.929  0.00  0.00    -0.267 NA
ATOM      7  N   UNL     1      32.484 -22.671 -18.671  0.00  0.00    -0.318 N 
ATOM      8  C   UNL     1      35.788 -22.822 -17.169  0.00  0.00    +0.213 C 
ATOM      9  C   UNL     1      35.893 -21.454 -18.988  0.00  0.00    +0.251 C 
ATOM     10  C   UNL     1      33.809 -22.508 -18.372  0.00  0.00    +0.282 C 
ATOM     11  C   UNL     1      35.198 -20.412 -20.676  0.00  0.00    +0.153 C 
ATOM     12  H   UNL     1      35.829 -24.024 -15.519  0.00  0.00    +0.160 HD
ATOM     13  H   UNL     1      32.094 -22.211 -19.451  0.00  0.00    +0.146 HD
ATOM     14  H   UNL     1      31.919 -23.249 -18.109  0.00  0.00    +0.146 HD
ENDROOT
BRANCH  11  16
ATOM     15  O   UNL     1      34.602 -19.839 -23.041  0.00  0.00    -0.439 OA
ATOM     16  C   UNL     1      35.207 -19.538 -21.862  0.00  0.00    +0.221 C 
ATOM     17  C   UNL     1      35.825 -18.310 -21.937  0.00  0.00    +0.052 C 
ATOM     18  C   UNL     1      35.583 -17.827 -23.245  0.00  0.00    +0.045 C 
ATOM     19  C   UNL     1      34.836 -18.793 -23.877  0.00  0.00    +0.181 C 
ENDBRANCH  11  16
BRANCH   1  20
ATOM     20  C   UNL     1      37.761 -23.271 -15.784  0.00  0.00    +0.103 C 
BRANCH  20  21
ATOM     21  C   UNL     1      38.269 -24.411 -14.902  0.00  0.00    +0.048 C 
BRANCH  21  22
ATOM     22  C   UNL     1      37.663 -24.405 -13.520  0.00  0.00    -0.020 C 
ATOM     23  C   UNL     1      37.061 -25.556 -13.037  0.00  0.00    -0.001 C 
ATOM     24  C   UNL     1      37.720 -23.248 -12.758  0.00  0.00    -0.001 C 
ATOM     25  C   UNL     1      36.500 -25.550 -11.760  0.00  0.00    +0.036 C 
ATOM     26  C   UNL     1      37.160 -23.242 -11.481  0.00  0.00    +0.036 C 
ATOM     27  C   UNL     1      36.550 -24.393 -10.982  0.00  0.00    +0.134 C 
BRANCH  27  28
ATOM     28  O   UNL     1      36.003 -24.388  -9.735  0.00  0.00    -0.506 OA
ATOM     29  H   UNL     1      35.154 -24.759  -9.594  0.00  0.00    +0.292 HD
ENDBRANCH  27  28
ENDBRANCH  21  22
ENDBRANCH  20  21
ENDBRANCH   1  20
TORSDOF 5
ENDMDL
MODEL 7
REMARK VINA RESULT:     -10.3      2.023      9.257
REMARK  Name = 176407
REMARK  5 active torsions:
REMARK  status: ('A' for Active; 'I' for Inactive)
REMARK    1  A    between atoms: N_1  and  C_20
REMARK    2  A    between atoms: C_11  and  C_16
REMARK    3  A    between atoms: C_20  and  C_21
REMARK    4  A    between atoms: C_21  and  C_22
REMARK    5  A    between atoms: C_27  and  O_28
REMARK                            x       y       z     vdW  Elec       q    Type
REMARK                         _______ _______ _______ _____ _____    ______ ____
ROOT
ATOM      1  N   UNL     1      33.620 -13.285 -24.582  0.00  0.00    -0.258 N 
ATOM      2  N   UNL     1      34.533 -17.096 -23.808  0.00  0.00    -0.059 N 
ATOM      3  N   UNL     1      34.495 -14.855 -23.114  0.00  0.00    -0.245 NA
ATOM      4  N   UNL     1      33.673 -15.549 -25.250  0.00  0.00    -0.294 NA
ATOM      5  N   UNL     1      34.891 -18.325 -23.410  0.00  0.00    -0.090 NA
ATOM      6  N   UNL     1      35.343 -16.745 -21.817  0.00  0.00    -0.267 NA
ATOM      7  N   UNL     1      33.736 -17.829 -25.902  0.00  0.00    -0.318 N 
ATOM      8  C   UNL     1      33.948 -14.585 -24.280  0.00  0.00    +0.213 C 
ATOM      9  C   UNL     1      34.800 -16.150 -22.860  0.00  0.00    +0.251 C 
ATOM     10  C   UNL     1      33.959 -16.799 -25.029  0.00  0.00    +0.282 C 
ATOM     11  C   UNL     1      35.378 -18.058 -22.195  0.00  0.00    +0.153 C 
ATOM     12  H   UNL     1      33.212 -13.087 -25.456  0.00  0.00    +0.160 HD
ATOM     13  H   UNL     1      33.983 -18.749 -25.652  0.00  0.00    +0.146 HD
ATOM     14  H   UNL     1      33.328 -17.651 -26.780  0.00  0.00    +0.146 HD
ENDROOT
BRANCH  11  16
ATOM     15  O   UNL     1      37.132 -19.060 -20.713  0.00  0.00    -0.439 OA
ATOM     16  C   UNL     1      35.917 -19.113 -21.319  0.00  0.00    +0.221 C 
ATOM     17  C   UNL     1      35.270 -20.285 -21.000  0.00  0.00    +0.052 C 
ATOM     18  C   UNL     1      36.143 -20.996 -20.143  0.00  0.00    +0.045 C 
ATOM     19  C   UNL     1      37.262 -20.209 -19.999  0.00  0.00    +0.181 C 
ENDBRANCH  11  16
BRANCH   1  20
ATOM     20  C   UNL     1      33.854 -12.212 -23.669  0.00  0.00    +0.103 C 
BRANCH  20  21
ATOM     21  C   UNL     1      34.250 -10.937 -24.413  0.00  0.00    +0.048 C 
BRANCH  21  22
ATOM     22  C   UNL     1      33.806  -9.678 -23.709  0.00  0.00    -0.020 C 
ATOM     23  C   UNL     1      32.581  -9.658 -23.060  0.00  0.00    -0.001 C 
ATOM     24  C   UNL     1      34.631  -8.565 -23.723  0.00  0.00    -0.001 C 
ATOM     25  C   UNL     1      32.171  -8.495 -22.410  0.00  0.00    +0.036 C 
ATOM     26  C   UNL     1      34.221  -7.402 -23.074  0.00  0.00    +0.036 C 
ATOM     27  C   UNL     1      32.991  -7.366 -22.416  0.00  0.00    +0.134 C 
BRANCH  27  28
ATOM     28  O   UNL     1      32.590  -6.231 -21.781  0.00  0.00    -0.506 OA
ATOM     29  H   UNL     1      33.100  -5.883 -21.076  0.00  0.00    +0.292 HD
ENDBRANCH  27  28
ENDBRANCH  21  22
ENDBRANCH  20  21
ENDBRANCH   1  20
TORSDOF 5
ENDMDL
MODEL 8
REMARK VINA RESULT:     -10.2      2.343      9.604
REMARK  Name = 176407
REMARK  5 active torsions:
REMARK  status: ('A' for Active; 'I' for Inactive)
REMARK    1  A    between atoms: N_1  and  C_20
REMARK    2  A    between atoms: C_11  and  C_16
REMARK    3  A    between atoms: C_20  and  C_21
REMARK    4  A    between atoms: C_21  and  C_22
REMARK    5  A    between atoms: C_27  and  O_28
REMARK                            x       y       z     vdW  Elec       q    Type
REMARK                         _______ _______ _______ _____ _____    ______ ____
ROOT
ATOM      1  N   UNL     1      33.445 -12.059 -24.382  0.00  0.00    -0.258 N 
ATOM      2  N   UNL     1      34.265 -15.954 -24.040  0.00  0.00    -0.059 N 
ATOM      3  N   UNL     1      34.335 -13.794 -23.124  0.00  0.00    -0.245 NA
ATOM      4  N   UNL     1      33.390 -14.245 -25.274  0.00  0.00    -0.294 NA
ATOM      5  N   UNL     1      34.600 -17.227 -23.785  0.00  0.00    -0.090 NA
ATOM      6  N   UNL     1      35.180 -15.829 -22.067  0.00  0.00    -0.267 NA
ATOM      7  N   UNL     1      33.346 -16.447 -26.153  0.00  0.00    -0.318 N 
ATOM      8  C   UNL     1      33.743 -13.392 -24.228  0.00  0.00    +0.213 C 
ATOM      9  C   UNL     1      34.609 -15.116 -23.017  0.00  0.00    +0.251 C 
ATOM     10  C   UNL     1      33.644 -15.518 -25.194  0.00  0.00    +0.282 C 
ATOM     11  C   UNL     1      35.153 -17.098 -22.576  0.00  0.00    +0.153 C 
ATOM     12  H   UNL     1      33.002 -11.762 -25.210  0.00  0.00    +0.160 HD
ATOM     13  H   UNL     1      33.573 -17.395 -26.009  0.00  0.00    +0.146 HD
ATOM     14  H   UNL     1      32.902 -16.170 -26.987  0.00  0.00    +0.146 HD
ENDROOT
BRANCH  11  16
ATOM     15  O   UNL     1      37.012 -18.420 -21.541  0.00  0.00    -0.439 OA
ATOM     16  C   UNL     1      35.698 -18.252 -21.838  0.00  0.00    +0.221 C 
ATOM     17  C   UNL     1      34.955 -19.305 -21.355  0.00  0.00    +0.052 C 
ATOM     18  C   UNL     1      35.873 -20.176 -20.721  0.00  0.00    +0.045 C 
ATOM     19  C   UNL     1      37.111 -19.593 -20.862  0.00  0.00    +0.181 C 
ENDBRANCH  11  16
BRANCH   1  20
ATOM     20  C   UNL     1      33.757 -11.092 -23.379  0.00  0.00    +0.103 C 
BRANCH  20  21
ATOM     21  C   UNL     1      34.380  -9.842 -24.000  0.00  0.00    +0.048 C 
BRANCH  21  22
ATOM     22  C   UNL     1      33.788  -8.559 -23.471  0.00  0.00    -0.020 C 
ATOM     23  C   UNL     1      34.169  -7.351 -24.034  0.00  0.00    -0.001 C 
ATOM     24  C   UNL     1      32.873  -8.612 -22.431  0.00  0.00    -0.001 C 
ATOM     25  C   UNL     1      33.622  -6.166 -23.545  0.00  0.00    +0.036 C 
ATOM     26  C   UNL     1      32.326  -7.426 -21.942  0.00  0.00    +0.036 C 
ATOM     27  C   UNL     1      32.700  -6.203 -22.498  0.00  0.00    +0.134 C 
BRANCH  27  28
ATOM     28  O   UNL     1      32.166  -5.045 -22.022  0.00  0.00    -0.506 OA
ATOM     29  H   UNL     1      32.701  -4.445 -21.541  0.00  0.00    +0.292 HD
ENDBRANCH  27  28
ENDBRANCH  21  22
ENDBRANCH  20  21
ENDBRANCH   1  20
TORSDOF 5
ENDMDL
MODEL 9
REMARK VINA RESULT:     -10.1      5.530     11.214
REMARK  Name = 176407
REMARK  5 active torsions:
REMARK  status: ('A' for Active; 'I' for Inactive)
REMARK    1  A    between atoms: N_1  and  C_20
REMARK    2  A    between atoms: C_11  and  C_16
REMARK    3  A    between atoms: C_20  and  C_21
REMARK    4  A    between atoms: C_21  and  C_22
REMARK    5  A    between atoms: C_27  and  O_28
REMARK                            x       y       z     vdW  Elec       q    Type
REMARK                         _______ _______ _______ _____ _____    ______ ____
ROOT
ATOM      1  N   UNL     1      34.007 -21.414 -19.835  0.00  0.00    -0.258 N 
ATOM      2  N   UNL     1      33.910 -23.562 -16.468  0.00  0.00    -0.059 N 
ATOM      3  N   UNL     1      35.159 -22.395 -18.076  0.00  0.00    -0.245 NA
ATOM      4  N   UNL     1      32.780 -22.596 -18.200  0.00  0.00    -0.294 NA
ATOM      5  N   UNL     1      34.032 -24.267 -15.334  0.00  0.00    -0.090 NA
ATOM      6  N   UNL     1      36.058 -23.536 -16.110  0.00  0.00    -0.267 NA
ATOM      7  N   UNL     1      31.565 -23.789 -16.549  0.00  0.00    -0.318 N 
ATOM      8  C   UNL     1      34.013 -22.150 -18.674  0.00  0.00    +0.213 C 
ATOM      9  C   UNL     1      35.116 -23.124 -16.934  0.00  0.00    +0.251 C 
ATOM     10  C   UNL     1      32.714 -23.298 -17.107  0.00  0.00    +0.282 C 
ATOM     11  C   UNL     1      35.355 -24.223 -15.159  0.00  0.00    +0.153 C 
ATOM     12  H   UNL     1      33.148 -21.233 -20.280  0.00  0.00    +0.160 HD
ATOM     13  H   UNL     1      31.607 -24.312 -15.715  0.00  0.00    +0.146 HD
ATOM     14  H   UNL     1      30.696 -23.618 -16.978  0.00  0.00    +0.146 HD
ENDROOT
BRANCH  11  16
ATOM     15  O   UNL     1      35.714 -24.621 -12.711  0.00  0.00    -0.439 OA
ATOM     16  C   UNL     1      36.015 -24.872 -14.012  0.00  0.00    +0.221 C 
ATOM     17  C   UNL     1      37.018 -25.810 -14.103  0.00  0.00    +0.052 C 
ATOM     18  C   UNL     1      37.353 -26.157 -12.772  0.00  0.00    +0.045 C 
ATOM     19  C   UNL     1      36.532 -25.407 -11.964  0.00  0.00    +0.181 C 
ENDBRANCH  11  16
BRANCH   1  20
ATOM     20  C   UNL     1      35.208 -20.903 -20.415  0.00  0.00    +0.103 C 
BRANCH  20  21
ATOM     21  C   UNL     1      35.012 -20.604 -21.901  0.00  0.00    +0.048 C 
BRANCH  21  22
ATOM     22  C   UNL     1      35.047 -19.129 -22.218  0.00  0.00    -0.020 C 
ATOM     23  C   UNL     1      35.329 -18.223 -21.208  0.00  0.00    -0.001 C 
ATOM     24  C   UNL     1      34.798 -18.707 -23.515  0.00  0.00    -0.001 C 
ATOM     25  C   UNL     1      35.361 -16.860 -21.501  0.00  0.00    +0.036 C 
ATOM     26  C   UNL     1      34.829 -17.344 -23.808  0.00  0.00    +0.036 C 
ATOM     27  C   UNL     1      35.111 -16.421 -22.801  0.00  0.00    +0.134 C 
BRANCH  27  28
ATOM     28  O   UNL     1      35.143 -15.090 -23.087  0.00  0.00    -0.506 OA
ATOM     29  H   UNL     1      35.964 -14.661 -23.229  0.00  0.00    +0.292 HD
ENDBRANCH  27  28
ENDBRANCH  21  22
ENDBRANCH  20  21
ENDBRANCH   1  20
TORSDOF 5
ENDMDL
