MODEL 1
REMARK VINA RESULT:     -12.1      0.000      0.000
REMARK  Name = 25174099
REMARK  5 active torsions:
REMARK  status: ('A' for Active; 'I' for Inactive)
REMARK    1  A    between atoms: C_5  and  C_33
REMARK    2  A    between atoms: C_14  and  C_18
REMARK    3  A    between atoms: N_17  and  C_20
REMARK    4  A    between atoms: C_20  and  C_24
REMARK    5  A    between atoms: C_33  and  C_36
REMARK                            x       y       z     vdW  Elec       q    Type
REMARK                         _______ _______ _______ _____ _____    ______ ____
ROOT
ATOM      1  S   UNL     1      35.613 -23.610 -15.409  0.00  0.00    -0.064 S 
ATOM      2  O   UNL     1      32.051 -22.590 -18.679  0.00  0.00    -0.274 OA
ATOM      3  N   UNL     1      36.072 -22.375 -17.739  0.00  0.00    -0.379 NA
ATOM      4  N   UNL     1      34.216 -21.963 -19.191  0.00  0.00    -0.255 N 
ATOM      5  C   UNL     1      31.629 -23.946 -15.882  0.00  0.00    +0.028 C 
ATOM      6  C   UNL     1      31.371 -25.049 -14.826  0.00  0.00    +0.005 C 
ATOM      7  C   UNL     1      33.109 -23.680 -16.025  0.00  0.00    -0.027 C 
ATOM      8  C   UNL     1      32.168 -24.820 -13.534  0.00  0.00    +0.006 C 
ATOM      9  C   UNL     1      33.680 -24.805 -13.791  0.00  0.00    +0.032 C 
ATOM     10  C   UNL     1      34.010 -24.050 -15.042  0.00  0.00    +0.002 C 
ATOM     11  C   UNL     1      33.782 -23.046 -17.122  0.00  0.00    +0.154 C 
ATOM     12  C   UNL     1      35.149 -22.935 -16.905  0.00  0.00    +0.152 C 
ATOM     13  C   UNL     1      33.238 -22.528 -18.374  0.00  0.00    +0.239 C 
ATOM     14  C   UNL     1      35.557 -21.916 -18.838  0.00  0.00    +0.240 C 
ATOM     15  H   UNL     1      33.944 -21.580 -20.056  0.00  0.00    +0.157 HD
ENDROOT
BRANCH  14  18
ATOM     16  O   UNL     1      37.405 -21.923 -20.242  0.00  0.00    -0.266 OA
ATOM     17  N   UNL     1      36.056 -20.005 -20.185  0.00  0.00    -0.294 N 
ATOM     18  C   UNL     1      36.446 -21.280 -19.837  0.00  0.00    +0.290 C 
ATOM     19  H   UNL     1      35.250 -19.630 -19.762  0.00  0.00    +0.150 HD
BRANCH  17  20
ATOM     20  C   UNL     1      36.772 -19.194 -21.143  0.00  0.00    +0.117 C 
BRANCH  20  24
ATOM     21  O   UNL     1      33.404 -17.606 -25.400  0.00  0.00    -0.464 OA
ATOM     22  O   UNL     1      33.371 -14.030 -24.880  0.00  0.00    -0.271 OA
ATOM     23  N   UNL     1      34.467 -15.645 -23.661  0.00  0.00    -0.279 N 
ATOM     24  C   UNL     1      35.890 -18.754 -22.275  0.00  0.00    -0.001 C 
ATOM     25  C   UNL     1      34.787 -16.996 -23.507  0.00  0.00    +0.085 C 
ATOM     26  C   UNL     1      35.602 -17.400 -22.448  0.00  0.00    +0.015 C 
ATOM     27  C   UNL     1      34.254 -17.940 -24.384  0.00  0.00    +0.153 C 
ATOM     28  C   UNL     1      35.356 -19.701 -23.150  0.00  0.00    +0.001 C 
ATOM     29  C   UNL     1      34.531 -19.295 -24.200  0.00  0.00    +0.038 C 
ATOM     30  C   UNL     1      33.484 -16.251 -25.800  0.00  0.00    +0.290 C 
ATOM     31  C   UNL     1      33.734 -15.196 -24.736  0.00  0.00    +0.271 C 
ATOM     32  H   UNL     1      34.773 -14.998 -22.986  0.00  0.00    +0.155 HD
ENDBRANCH  20  24
ENDBRANCH  17  20
ENDBRANCH  14  18
BRANCH   5  33
ATOM     33  C   UNL     1      30.868 -22.665 -15.524  0.00  0.00    +0.089 C 
BRANCH  33  36
ATOM     34  O   UNL     1      28.472 -22.342 -15.321  0.00  0.00    -0.275 OA
ATOM     35  N   UNL     1      29.328 -23.214 -17.270  0.00  0.00    -0.329 N 
ATOM     36  C   UNL     1      29.434 -22.710 -15.992  0.00  0.00    +0.220 C 
ATOM     37  H   UNL     1      28.444 -23.297 -17.695  0.00  0.00    +0.145 HD
ATOM     38  H   UNL     1      30.136 -23.492 -17.758  0.00  0.00    +0.145 HD
ENDBRANCH  33  36
ENDBRANCH   5  33
TORSDOF 5
ENDMDL
MODEL 2
REMARK VINA RESULT:     -12.0      3.112     10.310
REMARK  Name = 25174099
REMARK  5 active torsions:
REMARK  status: ('A' for Active; 'I' for Inactive)
REMARK    1  A    between atoms: C_5  and  C_33
REMARK    2  A    between atoms: C_14  and  C_18
REMARK    3  A    between atoms: N_17  and  C_20
REMARK    4  A    between atoms: C_20  and  C_24
REMARK    5  A    between atoms: C_33  and  C_36
REMARK                            x       y       z     vdW  Elec       q    Type
REMARK                         _______ _______ _______ _____ _____    ______ ____
ROOT
ATOM      1  S   UNL     1      34.552 -17.239 -25.224  0.00  0.00    -0.064 S 
ATOM      2  O   UNL     1      34.776 -14.784 -20.941  0.00  0.00    -0.274 OA
ATOM      3  N   UNL     1      35.454 -18.332 -22.952  0.00  0.00    -0.379 NA
ATOM      4  N   UNL     1      35.481 -16.985 -20.976  0.00  0.00    -0.255 N 
ATOM      5  C   UNL     1      33.657 -13.647 -23.642  0.00  0.00    +0.028 C 
ATOM      6  C   UNL     1      33.588 -12.835 -24.959  0.00  0.00    +0.005 C 
ATOM      7  C   UNL     1      34.108 -15.063 -23.912  0.00  0.00    -0.027 C 
ATOM      8  C   UNL     1      32.865 -13.597 -26.079  0.00  0.00    +0.006 C 
ATOM      9  C   UNL     1      33.569 -14.918 -26.416  0.00  0.00    +0.032 C 
ATOM     10  C   UNL     1      34.023 -15.623 -25.175  0.00  0.00    +0.002 C 
ATOM     11  C   UNL     1      34.663 -15.998 -22.976  0.00  0.00    +0.154 C 
ATOM     12  C   UNL     1      34.936 -17.227 -23.561  0.00  0.00    +0.152 C 
ATOM     13  C   UNL     1      34.959 -15.830 -21.556  0.00  0.00    +0.239 C 
ATOM     14  C   UNL     1      35.698 -18.154 -21.690  0.00  0.00    +0.240 C 
ATOM     15  H   UNL     1      35.706 -16.970 -20.018  0.00  0.00    +0.157 HD
ENDROOT
BRANCH  14  18
ATOM     16  O   UNL     1      37.328 -19.090 -20.329  0.00  0.00    -0.266 OA
ATOM     17  N   UNL     1      35.482 -20.408 -20.925  0.00  0.00    -0.294 N 
ATOM     18  C   UNL     1      36.263 -19.274 -20.903  0.00  0.00    +0.290 C 
ATOM     19  H   UNL     1      34.643 -20.390 -21.440  0.00  0.00    +0.150 HD
BRANCH  17  20
ATOM     20  C   UNL     1      35.834 -21.623 -20.227  0.00  0.00    +0.117 C 
BRANCH  20  24
ATOM     21  O   UNL     1      31.771 -23.209 -16.626  0.00  0.00    -0.464 OA
ATOM     22  O   UNL     1      33.779 -24.738 -14.040  0.00  0.00    -0.271 OA
ATOM     23  N   UNL     1      34.474 -23.758 -16.001  0.00  0.00    -0.279 N 
ATOM     24  C   UNL     1      34.769 -22.040 -19.254  0.00  0.00    -0.001 C 
ATOM     25  C   UNL     1      34.128 -23.072 -17.169  0.00  0.00    +0.085 C 
ATOM     26  C   UNL     1      35.122 -22.693 -18.073  0.00  0.00    +0.015 C 
ATOM     27  C   UNL     1      32.787 -22.808 -17.446  0.00  0.00    +0.153 C 
ATOM     28  C   UNL     1      33.428 -21.778 -19.535  0.00  0.00    +0.001 C 
ATOM     29  C   UNL     1      32.435 -22.169 -18.636  0.00  0.00    +0.038 C 
ATOM     30  C   UNL     1      32.169 -23.461 -15.292  0.00  0.00    +0.290 C 
ATOM     31  C   UNL     1      33.536 -24.078 -15.047  0.00  0.00    +0.271 C 
ATOM     32  H   UNL     1      35.412 -24.019 -15.857  0.00  0.00    +0.155 HD
ENDBRANCH  20  24
ENDBRANCH  17  20
ENDBRANCH  14  18
BRANCH   5  33
ATOM     33  C   UNL     1      32.305 -13.625 -22.919  0.00  0.00    +0.089 C 
BRANCH  33  36
ATOM     34  O   UNL     1      32.131 -11.330 -22.153  0.00  0.00    -0.275 OA
ATOM     35  N   UNL     1      32.297 -13.022 -20.604  0.00  0.00    -0.329 N 
ATOM     36  C   UNL     1      32.234 -12.525 -21.888  0.00  0.00    +0.220 C 
ATOM     37  H   UNL     1      32.260 -12.407 -19.836  0.00  0.00    +0.145 HD
ATOM     38  H   UNL     1      32.378 -13.991 -20.455  0.00  0.00    +0.145 HD
ENDBRANCH  33  36
ENDBRANCH   5  33
TORSDOF 5
ENDMDL
MODEL 3
REMARK VINA RESULT:     -11.4      1.939      2.650
REMARK  Name = 25174099
REMARK  5 active torsions:
REMARK  status: ('A' for Active; 'I' for Inactive)
REMARK    1  A    between atoms: C_5  and  C_33
REMARK    2  A    between atoms: C_14  and  C_18
REMARK    3  A    between atoms: N_17  and  C_20
REMARK    4  A    between atoms: C_20  and  C_24
REMARK    5  A    between atoms: C_33  and  C_36
REMARK                            x       y       z     vdW  Elec       q    Type
REMARK                         _______ _______ _______ _____ _____    ______ ____
ROOT
ATOM      1  S   UNL     1      37.202 -22.364 -16.899  0.00  0.00    -0.064 S 
ATOM      2  O   UNL     1      32.462 -22.976 -18.156  0.00  0.00    -0.274 OA
ATOM      3  N   UNL     1      36.104 -21.242 -19.068  0.00  0.00    -0.379 NA
ATOM      4  N   UNL     1      33.789 -21.651 -19.508  0.00  0.00    -0.255 N 
ATOM      5  C   UNL     1      33.841 -24.158 -15.599  0.00  0.00    +0.028 C 
ATOM      6  C   UNL     1      34.493 -25.190 -14.645  0.00  0.00    +0.005 C 
ATOM      7  C   UNL     1      34.897 -23.387 -16.353  0.00  0.00    -0.027 C 
ATOM      8  C   UNL     1      35.637 -24.582 -13.821  0.00  0.00    +0.006 C 
ATOM      9  C   UNL     1      36.760 -24.041 -14.715  0.00  0.00    +0.032 C 
ATOM     10  C   UNL     1      36.206 -23.323 -15.907  0.00  0.00    +0.002 C 
ATOM     11  C   UNL     1      34.737 -22.645 -17.570  0.00  0.00    +0.154 C 
ATOM     12  C   UNL     1      35.915 -22.028 -17.969  0.00  0.00    +0.152 C 
ATOM     13  C   UNL     1      33.550 -22.463 -18.401  0.00  0.00    +0.239 C 
ATOM     14  C   UNL     1      35.029 -21.093 -19.779  0.00  0.00    +0.240 C 
ATOM     15  H   UNL     1      33.044 -21.465 -20.125  0.00  0.00    +0.157 HD
ENDROOT
BRANCH  14  18
ATOM     16  O   UNL     1      34.176 -20.367 -21.812  0.00  0.00    -0.266 OA
ATOM     17  N   UNL     1      36.204 -19.455 -21.065  0.00  0.00    -0.294 N 
ATOM     18  C   UNL     1      35.088 -20.262 -21.004  0.00  0.00    +0.290 C 
ATOM     19  H   UNL     1      36.848 -19.490 -20.323  0.00  0.00    +0.150 HD
BRANCH  17  20
ATOM     20  C   UNL     1      36.470 -18.558 -22.167  0.00  0.00    +0.117 C 
BRANCH  20  24
ATOM     21  O   UNL     1      33.572 -13.727 -21.662  0.00  0.00    -0.464 OA
ATOM     22  O   UNL     1      33.194 -12.850 -25.147  0.00  0.00    -0.271 OA
ATOM     23  N   UNL     1      34.250 -14.680 -24.238  0.00  0.00    -0.279 N 
ATOM     24  C   UNL     1      35.690 -17.281 -22.051  0.00  0.00    -0.001 C 
ATOM     25  C   UNL     1      34.590 -15.400 -23.089  0.00  0.00    +0.085 C 
ATOM     26  C   UNL     1      35.321 -16.583 -23.202  0.00  0.00    +0.015 C 
ATOM     27  C   UNL     1      34.236 -14.909 -21.833  0.00  0.00    +0.153 C 
ATOM     28  C   UNL     1      35.339 -16.790 -20.794  0.00  0.00    +0.001 C 
ATOM     29  C   UNL     1      34.619 -15.600 -20.683  0.00  0.00    +0.038 C 
ATOM     30  C   UNL     1      32.861 -13.292 -22.805  0.00  0.00    +0.290 C 
ATOM     31  C   UNL     1      33.462 -13.553 -24.176  0.00  0.00    +0.271 C 
ATOM     32  H   UNL     1      34.581 -14.986 -25.113  0.00  0.00    +0.155 HD
ENDBRANCH  20  24
ENDBRANCH  17  20
ENDBRANCH  14  18
BRANCH   5  33
ATOM     33  C   UNL     1      32.913 -23.215 -14.825  0.00  0.00    +0.089 C 
BRANCH  33  36
ATOM     34  O   UNL     1      31.083 -24.124 -13.518  0.00  0.00    -0.275 OA
ATOM     35  N   UNL     1      30.868 -23.980 -15.803  0.00  0.00    -0.329 N 
ATOM     36  C   UNL     1      31.545 -23.816 -14.614  0.00  0.00    +0.220 C 
ATOM     37  H   UNL     1      29.961 -24.363 -15.805  0.00  0.00    +0.145 HD
ATOM     38  H   UNL     1      31.291 -23.714 -16.651  0.00  0.00    +0.145 HD
ENDBRANCH  33  36
ENDBRANCH   5  33
TORSDOF 5
ENDMDL
MODEL 4
REMARK VINA RESULT:     -11.2      4.827     11.747
REMARK  Name = 25174099
REMARK  5 active torsions:
REMARK  status: ('A' for Active; 'I' for Inactive)
REMARK    1  A    between atoms: C_5  and  C_33
REMARK    2  A    between atoms: C_14  and  C_18
REMARK    3  A    between atoms: N_17  and  C_20
REMARK    4  A    between atoms: C_20  and  C_24
REMARK    5  A    between atoms: C_33  and  C_36
REMARK                            x       y       z     vdW  Elec       q    Type
REMARK                         _______ _______ _______ _____ _____    ______ ____
ROOT
ATOM      1  S   UNL     1      32.256 -12.686 -20.995  0.00  0.00    -0.064 S 
ATOM      2  O   UNL     1      33.528 -10.972 -25.452  0.00  0.00    -0.274 OA
ATOM      3  N   UNL     1      33.191 -14.251 -22.956  0.00  0.00    -0.379 NA
ATOM      4  N   UNL     1      33.758 -13.235 -25.046  0.00  0.00    -0.255 N 
ATOM      5  C   UNL     1      32.510  -9.233 -23.048  0.00  0.00    +0.028 C 
ATOM      6  C   UNL     1      31.560  -8.381 -22.170  0.00  0.00    +0.005 C 
ATOM      7  C   UNL     1      32.527 -10.668 -22.579  0.00  0.00    -0.027 C 
ATOM      8  C   UNL     1      31.775  -8.623 -20.670  0.00  0.00    +0.006 C 
ATOM      9  C   UNL     1      31.529 -10.088 -20.287  0.00  0.00    +0.032 C 
ATOM     10  C   UNL     1      32.108 -11.020 -21.307  0.00  0.00    +0.002 C 
ATOM     11  C   UNL     1      32.946 -11.825 -23.316  0.00  0.00    +0.154 C 
ATOM     12  C   UNL     1      32.860 -12.988 -22.562  0.00  0.00    +0.152 C 
ATOM     13  C   UNL     1      33.429 -11.929 -24.690  0.00  0.00    +0.239 C 
ATOM     14  C   UNL     1      33.625 -14.309 -24.177  0.00  0.00    +0.240 C 
ATOM     15  H   UNL     1      34.101 -13.404 -25.953  0.00  0.00    +0.157 HD
ENDROOT
BRANCH  14  18
ATOM     16  O   UNL     1      33.797 -15.830 -25.922  0.00  0.00    -0.266 OA
ATOM     17  N   UNL     1      34.612 -16.456 -23.813  0.00  0.00    -0.294 N 
ATOM     18  C   UNL     1      34.022 -15.621 -24.737  0.00  0.00    +0.290 C 
ATOM     19  H   UNL     1      34.720 -16.130 -22.891  0.00  0.00    +0.150 HD
BRANCH  17  20
ATOM     20  C   UNL     1      35.080 -17.784 -24.135  0.00  0.00    +0.117 C 
BRANCH  20  24
ATOM     21  O   UNL     1      36.039 -20.826 -19.463  0.00  0.00    -0.464 OA
ATOM     22  O   UNL     1      32.777 -22.308 -18.993  0.00  0.00    -0.271 OA
ATOM     23  N   UNL     1      33.470 -20.866 -20.645  0.00  0.00    -0.279 N 
ATOM     24  C   UNL     1      35.321 -18.607 -22.902  0.00  0.00    -0.001 C 
ATOM     25  C   UNL     1      34.516 -20.133 -21.215  0.00  0.00    +0.085 C 
ATOM     26  C   UNL     1      34.284 -19.365 -22.357  0.00  0.00    +0.015 C 
ATOM     27  C   UNL     1      35.774 -20.139 -20.614  0.00  0.00    +0.153 C 
ATOM     28  C   UNL     1      36.579 -18.608 -22.301  0.00  0.00    +0.001 C 
ATOM     29  C   UNL     1      36.805 -19.368 -21.152  0.00  0.00    +0.038 C 
ATOM     30  C   UNL     1      35.137 -21.883 -19.199  0.00  0.00    +0.290 C 
ATOM     31  C   UNL     1      33.675 -21.698 -19.569  0.00  0.00    +0.271 C 
ATOM     32  H   UNL     1      32.565 -20.785 -21.023  0.00  0.00    +0.155 HD
ENDBRANCH  20  24
ENDBRANCH  17  20
ENDBRANCH  14  18
BRANCH   5  33
ATOM     33  C   UNL     1      33.922  -8.636 -23.054  0.00  0.00    +0.089 C 
BRANCH  33  36
ATOM     34  O   UNL     1      33.409  -6.279 -22.791  0.00  0.00    -0.275 OA
ATOM     35  N   UNL     1      34.560  -6.977 -24.656  0.00  0.00    -0.329 N 
ATOM     36  C   UNL     1      33.918  -7.180 -23.453  0.00  0.00    +0.220 C 
ATOM     37  H   UNL     1      34.628  -6.069 -25.031  0.00  0.00    +0.145 HD
ATOM     38  H   UNL     1      34.949  -7.740 -25.141  0.00  0.00    +0.145 HD
ENDBRANCH  33  36
ENDBRANCH   5  33
TORSDOF 5
ENDMDL
MODEL 5
REMARK VINA RESULT:     -10.9      2.589      3.791
REMARK  Name = 25174099
REMARK  5 active torsions:
REMARK  status: ('A' for Active; 'I' for Inactive)
REMARK    1  A    between atoms: C_5  and  C_33
REMARK    2  A    between atoms: C_14  and  C_18
REMARK    3  A    between atoms: N_17  and  C_20
REMARK    4  A    between atoms: C_20  and  C_24
REMARK    5  A    between atoms: C_33  and  C_36
REMARK                            x       y       z     vdW  Elec       q    Type
REMARK                         _______ _______ _______ _____ _____    ______ ____
ROOT
ATOM      1  S   UNL     1      32.575 -22.916 -17.745  0.00  0.00    -0.064 S 
ATOM      2  O   UNL     1      37.256 -22.711 -16.176  0.00  0.00    -0.274 OA
ATOM      3  N   UNL     1      34.554 -21.823 -19.178  0.00  0.00    -0.379 NA
ATOM      4  N   UNL     1      36.759 -21.822 -18.251  0.00  0.00    -0.255 N 
ATOM      5  C   UNL     1      34.871 -24.043 -14.636  0.00  0.00    +0.028 C 
ATOM      6  C   UNL     1      33.746 -24.241 -13.589  0.00  0.00    +0.005 C 
ATOM      7  C   UNL     1      34.309 -23.485 -15.922  0.00  0.00    -0.027 C 
ATOM      8  C   UNL     1      32.516 -24.946 -14.178  0.00  0.00    +0.006 C 
ATOM      9  C   UNL     1      31.901 -24.147 -15.335  0.00  0.00    +0.032 C 
ATOM     10  C   UNL     1      32.962 -23.579 -16.227  0.00  0.00    +0.002 C 
ATOM     11  C   UNL     1      35.022 -22.811 -16.968  0.00  0.00    +0.154 C 
ATOM     12  C   UNL     1      34.194 -22.460 -18.027  0.00  0.00    +0.152 C 
ATOM     13  C   UNL     1      36.438 -22.467 -17.058  0.00  0.00    +0.239 C 
ATOM     14  C   UNL     1      35.819 -21.539 -19.231  0.00  0.00    +0.240 C 
ATOM     15  H   UNL     1      37.695 -21.556 -18.406  0.00  0.00    +0.157 HD
ENDROOT
BRANCH  14  18
ATOM     16  O   UNL     1      37.561 -20.842 -20.597  0.00  0.00    -0.266 OA
ATOM     17  N   UNL     1      35.369 -20.279 -21.212  0.00  0.00    -0.294 N 
ATOM     18  C   UNL     1      36.350 -20.845 -20.427  0.00  0.00    +0.290 C 
ATOM     19  H   UNL     1      34.431 -20.374 -20.931  0.00  0.00    +0.150 HD
BRANCH  17  20
ATOM     20  C   UNL     1      35.653 -19.554 -22.430  0.00  0.00    +0.117 C 
BRANCH  20  24
ATOM     21  O   UNL     1      34.317 -14.078 -21.952  0.00  0.00    -0.464 OA
ATOM     22  O   UNL     1      33.326 -13.371 -25.355  0.00  0.00    -0.271 OA
ATOM     23  N   UNL     1      34.067 -15.358 -24.463  0.00  0.00    -0.279 N 
ATOM     24  C   UNL     1      35.282 -18.103 -22.318  0.00  0.00    -0.001 C 
ATOM     25  C   UNL     1      34.483 -16.064 -23.331  0.00  0.00    +0.085 C 
ATOM     26  C   UNL     1      34.833 -17.411 -23.443  0.00  0.00    +0.015 C 
ATOM     27  C   UNL     1      34.589 -15.409 -22.105  0.00  0.00    +0.153 C 
ATOM     28  C   UNL     1      35.393 -17.449 -21.091  0.00  0.00    +0.001 C 
ATOM     29  C   UNL     1      35.054 -16.099 -20.985  0.00  0.00    +0.038 C 
ATOM     30  C   UNL     1      33.481 -13.540 -22.959  0.00  0.00    +0.290 C 
ATOM     31  C   UNL     1      33.636 -14.053 -24.381  0.00  0.00    +0.271 C 
ATOM     32  H   UNL     1      34.081 -15.804 -25.340  0.00  0.00    +0.155 HD
ENDBRANCH  20  24
ENDBRANCH  17  20
ENDBRANCH  14  18
BRANCH   5  33
ATOM     33  C   UNL     1      35.619 -25.358 -14.883  0.00  0.00    +0.089 C 
BRANCH  33  36
ATOM     34  O   UNL     1      37.088 -25.383 -12.953  0.00  0.00    -0.275 OA
ATOM     35  N   UNL     1      38.003 -25.435 -15.062  0.00  0.00    -0.329 N 
ATOM     36  C   UNL     1      36.951 -25.392 -14.173  0.00  0.00    +0.220 C 
ATOM     37  H   UNL     1      38.929 -25.461 -14.728  0.00  0.00    +0.145 HD
ATOM     38  H   UNL     1      37.830 -25.441 -16.030  0.00  0.00    +0.145 HD
ENDBRANCH  33  36
ENDBRANCH   5  33
TORSDOF 5
ENDMDL
MODEL 6
REMARK VINA RESULT:     -10.4      4.909     11.445
REMARK  Name = 25174099
REMARK  5 active torsions:
REMARK  status: ('A' for Active; 'I' for Inactive)
REMARK    1  A    between atoms: C_5  and  C_33
REMARK    2  A    between atoms: C_14  and  C_18
REMARK    3  A    between atoms: N_17  and  C_20
REMARK    4  A    between atoms: C_20  and  C_24
REMARK    5  A    between atoms: C_33  and  C_36
REMARK                            x       y       z     vdW  Elec       q    Type
REMARK                         _______ _______ _______ _____ _____    ______ ____
ROOT
ATOM      1  S   UNL     1      34.560 -10.773 -25.498  0.00  0.00    -0.064 S 
ATOM      2  O   UNL     1      32.481 -12.733 -21.466  0.00  0.00    -0.274 OA
ATOM      3  N   UNL     1      34.134 -13.399 -25.197  0.00  0.00    -0.379 NA
ATOM      4  N   UNL     1      33.110 -14.158 -23.174  0.00  0.00    -0.255 N 
ATOM      5  C   UNL     1      32.949  -9.674 -21.976  0.00  0.00    +0.028 C 
ATOM      6  C   UNL     1      33.581  -8.263 -21.873  0.00  0.00    +0.005 C 
ATOM      7  C   UNL     1      33.481 -10.409 -23.183  0.00  0.00    -0.027 C 
ATOM      8  C   UNL     1      33.560  -7.514 -23.213  0.00  0.00    +0.006 C 
ATOM      9  C   UNL     1      34.342  -8.265 -24.298  0.00  0.00    +0.032 C 
ATOM     10  C   UNL     1      34.077  -9.738 -24.237  0.00  0.00    +0.002 C 
ATOM     11  C   UNL     1      33.464 -11.823 -23.424  0.00  0.00    +0.154 C 
ATOM     12  C   UNL     1      34.010 -12.152 -24.658  0.00  0.00    +0.152 C 
ATOM     13  C   UNL     1      32.966 -12.905 -22.580  0.00  0.00    +0.239 C 
ATOM     14  C   UNL     1      33.675 -14.337 -24.428  0.00  0.00    +0.240 C 
ATOM     15  H   UNL     1      32.795 -14.951 -22.682  0.00  0.00    +0.157 HD
ENDROOT
BRANCH  14  18
ATOM     16  O   UNL     1      33.117 -16.047 -25.894  0.00  0.00    -0.266 OA
ATOM     17  N   UNL     1      34.537 -16.542 -24.094  0.00  0.00    -0.294 N 
ATOM     18  C   UNL     1      33.745 -15.742 -24.889  0.00  0.00    +0.290 C 
ATOM     19  H   UNL     1      34.977 -16.136 -23.313  0.00  0.00    +0.150 HD
BRANCH  17  20
ATOM     20  C   UNL     1      34.752 -17.947 -24.353  0.00  0.00    +0.117 C 
BRANCH  20  24
ATOM     21  O   UNL     1      35.982 -20.750 -19.596  0.00  0.00    -0.464 OA
ATOM     22  O   UNL     1      32.771 -22.256 -18.901  0.00  0.00    -0.271 OA
ATOM     23  N   UNL     1      33.361 -20.883 -20.651  0.00  0.00    -0.279 N 
ATOM     24  C   UNL     1      35.065 -18.707 -23.096  0.00  0.00    -0.001 C 
ATOM     25  C   UNL     1      34.366 -20.164 -21.303  0.00  0.00    +0.085 C 
ATOM     26  C   UNL     1      34.068 -19.453 -22.467  0.00  0.00    +0.015 C 
ATOM     27  C   UNL     1      35.651 -20.122 -20.764  0.00  0.00    +0.153 C 
ATOM     28  C   UNL     1      36.350 -18.661 -22.556  0.00  0.00    +0.001 C 
ATOM     29  C   UNL     1      36.643 -19.362 -21.385  0.00  0.00    +0.038 C 
ATOM     30  C   UNL     1      35.111 -21.806 -19.240  0.00  0.00    +0.290 C 
ATOM     31  C   UNL     1      33.631 -21.661 -19.548  0.00  0.00    +0.271 C 
ATOM     32  H   UNL     1      32.438 -20.834 -20.988  0.00  0.00    +0.155 HD
ENDBRANCH  20  24
ENDBRANCH  17  20
ENDBRANCH  14  18
BRANCH   5  33
ATOM     33  C   UNL     1      31.420  -9.581 -22.014  0.00  0.00    +0.089 C 
BRANCH  33  36
ATOM     34  O   UNL     1      30.915 -10.162 -19.713  0.00  0.00    -0.275 OA
ATOM     35  N   UNL     1      30.010 -11.419 -21.414  0.00  0.00    -0.329 N 
ATOM     36  C   UNL     1      30.777 -10.389 -20.913  0.00  0.00    +0.220 C 
ATOM     37  H   UNL     1      29.535 -12.023 -20.798  0.00  0.00    +0.145 HD
ATOM     38  H   UNL     1      29.938 -11.550 -22.386  0.00  0.00    +0.145 HD
ENDBRANCH  33  36
ENDBRANCH   5  33
TORSDOF 5
ENDMDL
MODEL 7
REMARK VINA RESULT:     -10.4      3.239     10.192
REMARK  Name = 25174099
REMARK  5 active torsions:
REMARK  status: ('A' for Active; 'I' for Inactive)
REMARK    1  A    between atoms: C_5  and  C_33
REMARK    2  A    between atoms: C_14  and  C_18
REMARK    3  A    between atoms: N_17  and  C_20
REMARK    4  A    between atoms: C_20  and  C_24
REMARK    5  A    between atoms: C_33  and  C_36
REMARK                            x       y       z     vdW  Elec       q    Type
REMARK                         _______ _______ _______ _____ _____    ______ ____
ROOT
ATOM      1  S   UNL     1      37.077 -20.751 -19.925  0.00  0.00    -0.064 S 
ATOM      2  O   UNL     1      32.258 -20.513 -20.994  0.00  0.00    -0.274 OA
ATOM      3  N   UNL     1      35.235 -22.296 -18.746  0.00  0.00    -0.379 NA
ATOM      4  N   UNL     1      32.949 -22.038 -19.401  0.00  0.00    -0.255 N 
ATOM      5  C   UNL     1      34.519 -18.827 -22.367  0.00  0.00    +0.028 C 
ATOM      6  C   UNL     1      35.417 -17.616 -22.721  0.00  0.00    +0.005 C 
ATOM      7  C   UNL     1      35.186 -19.702 -21.333  0.00  0.00    -0.027 C 
ATOM      8  C   UNL     1      36.873 -18.024 -22.986  0.00  0.00    +0.006 C 
ATOM      9  C   UNL     1      37.508 -18.698 -21.763  0.00  0.00    +0.032 C 
ATOM     10  C   UNL     1      36.551 -19.645 -21.107  0.00  0.00    +0.002 C 
ATOM     11  C   UNL     1      34.567 -20.667 -20.472  0.00  0.00    +0.154 C 
ATOM     12  C   UNL     1      35.489 -21.319 -19.664  0.00  0.00    +0.152 C 
ATOM     13  C   UNL     1      33.159 -21.035 -20.346  0.00  0.00    +0.239 C 
ATOM     14  C   UNL     1      33.978 -22.606 -18.665  0.00  0.00    +0.240 C 
ATOM     15  H   UNL     1      32.031 -22.358 -19.250  0.00  0.00    +0.157 HD
ENDROOT
BRANCH  14  18
ATOM     16  O   UNL     1      33.350 -24.779 -18.143  0.00  0.00    -0.266 OA
ATOM     17  N   UNL     1      33.458 -23.204 -16.409  0.00  0.00    -0.294 N 
ATOM     18  C   UNL     1      33.559 -23.655 -17.707  0.00  0.00    +0.290 C 
ATOM     19  H   UNL     1      33.664 -22.259 -16.224  0.00  0.00    +0.150 HD
BRANCH  17  20
ATOM     20  C   UNL     1      33.066 -24.052 -15.306  0.00  0.00    +0.117 C 
BRANCH  20  24
ATOM     21  O   UNL     1      37.461 -25.714 -12.157  0.00  0.00    -0.464 OA
ATOM     22  O   UNL     1      39.668 -26.935 -14.746  0.00  0.00    -0.271 OA
ATOM     23  N   UNL     1      37.566 -26.025 -14.967  0.00  0.00    -0.279 N 
ATOM     24  C   UNL     1      34.247 -24.487 -14.487  0.00  0.00    -0.001 C 
ATOM     25  C   UNL     1      36.460 -25.437 -14.347  0.00  0.00    +0.085 C 
ATOM     26  C   UNL     1      35.363 -25.041 -15.113  0.00  0.00    +0.015 C 
ATOM     27  C   UNL     1      36.440 -25.290 -12.960  0.00  0.00    +0.153 C 
ATOM     28  C   UNL     1      34.223 -24.342 -13.099  0.00  0.00    +0.001 C 
ATOM     29  C   UNL     1      35.316 -24.750 -12.334  0.00  0.00    +0.038 C 
ATOM     30  C   UNL     1      38.701 -25.856 -12.824  0.00  0.00    +0.290 C 
ATOM     31  C   UNL     1      38.699 -26.355 -14.259  0.00  0.00    +0.271 C 
ATOM     32  H   UNL     1      37.535 -26.208 -15.934  0.00  0.00    +0.155 HD
ENDBRANCH  20  24
ENDBRANCH  17  20
ENDBRANCH  14  18
BRANCH   5  33
ATOM     33  C   UNL     1      34.168 -19.627 -23.627  0.00  0.00    +0.089 C 
BRANCH  33  36
ATOM     34  O   UNL     1      34.501 -17.795 -25.181  0.00  0.00    -0.275 OA
ATOM     35  N   UNL     1      32.602 -19.082 -25.352  0.00  0.00    -0.329 N 
ATOM     36  C   UNL     1      33.808 -18.729 -24.785  0.00  0.00    +0.220 C 
ATOM     37  H   UNL     1      32.251 -18.575 -26.118  0.00  0.00    +0.145 HD
ATOM     38  H   UNL     1      32.093 -19.842 -24.989  0.00  0.00    +0.145 HD
ENDBRANCH  33  36
ENDBRANCH   5  33
TORSDOF 5
ENDMDL
MODEL 8
REMARK VINA RESULT:     -10.1      4.465     11.389
REMARK  Name = 25174099
REMARK  5 active torsions:
REMARK  status: ('A' for Active; 'I' for Inactive)
REMARK    1  A    between atoms: C_5  and  C_33
REMARK    2  A    between atoms: C_14  and  C_18
REMARK    3  A    between atoms: N_17  and  C_20
REMARK    4  A    between atoms: C_20  and  C_24
REMARK    5  A    between atoms: C_33  and  C_36
REMARK                            x       y       z     vdW  Elec       q    Type
REMARK                         _______ _______ _______ _____ _____    ______ ____
ROOT
ATOM      1  S   UNL     1      32.514 -13.152 -20.648  0.00  0.00    -0.064 S 
ATOM      2  O   UNL     1      33.940 -12.198 -25.282  0.00  0.00    -0.274 OA
ATOM      3  N   UNL     1      33.746 -14.950 -22.202  0.00  0.00    -0.379 NA
ATOM      4  N   UNL     1      34.365 -14.299 -24.419  0.00  0.00    -0.255 N 
ATOM      5  C   UNL     1      32.574 -10.154 -23.334  0.00  0.00    +0.028 C 
ATOM      6  C   UNL     1      31.479  -9.262 -22.697  0.00  0.00    +0.005 C 
ATOM      7  C   UNL     1      32.699 -11.460 -22.587  0.00  0.00    -0.027 C 
ATOM      8  C   UNL     1      31.604  -9.184 -21.169  0.00  0.00    +0.006 C 
ATOM      9  C   UNL     1      31.478 -10.566 -20.515  0.00  0.00    +0.032 C 
ATOM     10  C   UNL     1      32.223 -11.605 -21.295  0.00  0.00    +0.002 C 
ATOM     11  C   UNL     1      33.286 -12.683 -23.054  0.00  0.00    +0.154 C 
ATOM     12  C   UNL     1      33.261 -13.680 -22.088  0.00  0.00    +0.152 C 
ATOM     13  C   UNL     1      33.880 -12.994 -24.351  0.00  0.00    +0.239 C 
ATOM     14  C   UNL     1      34.275 -15.193 -23.362  0.00  0.00    +0.240 C 
ATOM     15  H   UNL     1      34.790 -14.601 -25.254  0.00  0.00    +0.157 HD
ENDROOT
BRANCH  14  18
ATOM     16  O   UNL     1      34.935 -16.899 -24.790  0.00  0.00    -0.266 OA
ATOM     17  N   UNL     1      35.202 -17.212 -22.481  0.00  0.00    -0.294 N 
ATOM     18  C   UNL     1      34.843 -16.535 -23.625  0.00  0.00    +0.290 C 
ATOM     19  H   UNL     1      35.061 -16.772 -21.612  0.00  0.00    +0.150 HD
BRANCH  17  20
ATOM     20  C   UNL     1      35.779 -18.537 -22.496  0.00  0.00    +0.117 C 
BRANCH  20  24
ATOM     21  O   UNL     1      32.809 -22.168 -19.335  0.00  0.00    -0.464 OA
ATOM     22  O   UNL     1      35.420 -23.394 -17.158  0.00  0.00    -0.271 OA
ATOM     23  N   UNL     1      35.577 -21.846 -18.852  0.00  0.00    -0.279 N 
ATOM     24  C   UNL     1      35.003 -19.496 -21.639  0.00  0.00    -0.001 C 
ATOM     25  C   UNL     1      34.924 -21.098 -19.836  0.00  0.00    +0.085 C 
ATOM     26  C   UNL     1      35.652 -20.214 -20.634  0.00  0.00    +0.015 C 
ATOM     27  C   UNL     1      33.557 -21.273 -20.047  0.00  0.00    +0.153 C 
ATOM     28  C   UNL     1      33.636 -19.672 -21.854  0.00  0.00    +0.001 C 
ATOM     29  C   UNL     1      32.913 -20.566 -21.063  0.00  0.00    +0.038 C 
ATOM     30  C   UNL     1      33.375 -22.536 -18.091  0.00  0.00    +0.290 C 
ATOM     31  C   UNL     1      34.885 -22.667 -17.993  0.00  0.00    +0.271 C 
ATOM     32  H   UNL     1      36.556 -21.783 -18.771  0.00  0.00    +0.155 HD
ENDBRANCH  20  24
ENDBRANCH  17  20
ENDBRANCH  14  18
BRANCH   5  33
ATOM     33  C   UNL     1      33.915  -9.413 -23.383  0.00  0.00    +0.089 C 
BRANCH  33  36
ATOM     34  O   UNL     1      32.877  -7.438 -24.336  0.00  0.00    -0.275 OA
ATOM     35  N   UNL     1      34.650  -7.190 -22.891  0.00  0.00    -0.329 N 
ATOM     36  C   UNL     1      33.734  -7.932 -23.607  0.00  0.00    +0.220 C 
ATOM     37  H   UNL     1      34.640  -6.208 -22.949  0.00  0.00    +0.145 HD
ATOM     38  H   UNL     1      35.313  -7.644 -22.323  0.00  0.00    +0.145 HD
ENDBRANCH  33  36
ENDBRANCH   5  33
TORSDOF 5
ENDMDL
MODEL 9
REMARK VINA RESULT:      -9.6      9.055     15.940
REMARK  Name = 25174099
REMARK  5 active torsions:
REMARK  status: ('A' for Active; 'I' for Inactive)
REMARK    1  A    between atoms: C_5  and  C_33
REMARK    2  A    between atoms: C_14  and  C_18
REMARK    3  A    between atoms: N_17  and  C_20
REMARK    4  A    between atoms: C_20  and  C_24
REMARK    5  A    between atoms: C_33  and  C_36
REMARK                            x       y       z     vdW  Elec       q    Type
REMARK                         _______ _______ _______ _____ _____    ______ ____
ROOT
ATOM      1  S   UNL     1      34.268  -6.777 -25.098  0.00  0.00    -0.064 S 
ATOM      2  O   UNL     1      30.905  -4.759 -22.092  0.00  0.00    -0.274 OA
ATOM      3  N   UNL     1      33.181  -8.081 -23.028  0.00  0.00    -0.379 NA
ATOM      4  N   UNL     1      31.564  -6.937 -21.689  0.00  0.00    -0.255 N 
ATOM      5  C   UNL     1      32.182  -3.370 -24.598  0.00  0.00    +0.028 C 
ATOM      6  C   UNL     1      33.084  -2.431 -25.437  0.00  0.00    +0.005 C 
ATOM      7  C   UNL     1      32.794  -4.747 -24.496  0.00  0.00    -0.027 C 
ATOM      8  C   UNL     1      33.554  -3.086 -26.744  0.00  0.00    +0.006 C 
ATOM      9  C   UNL     1      34.369  -4.359 -26.484  0.00  0.00    +0.032 C 
ATOM     10  C   UNL     1      33.760  -5.179 -25.389  0.00  0.00    +0.002 C 
ATOM     11  C   UNL     1      32.503  -5.765 -23.528  0.00  0.00    +0.154 C 
ATOM     12  C   UNL     1      33.230  -6.927 -23.753  0.00  0.00    +0.152 C 
ATOM     13  C   UNL     1      31.582  -5.736 -22.395  0.00  0.00    +0.239 C 
ATOM     14  C   UNL     1      32.348  -8.027 -22.035  0.00  0.00    +0.240 C 
ATOM     15  H   UNL     1      30.967  -7.016 -20.910  0.00  0.00    +0.157 HD
ENDROOT
BRANCH  14  18
ATOM     16  O   UNL     1      32.296  -9.054 -19.954  0.00  0.00    -0.266 OA
ATOM     17  N   UNL     1      31.944 -10.377 -21.858  0.00  0.00    -0.294 N 
ATOM     18  C   UNL     1      32.193  -9.214 -21.163  0.00  0.00    +0.290 C 
ATOM     19  H   UNL     1      31.890 -10.333 -22.840  0.00  0.00    +0.150 HD
BRANCH  17  20
ATOM     20  C   UNL     1      31.756 -11.657 -21.215  0.00  0.00    +0.117 C 
BRANCH  20  24
ATOM     21  O   UNL     1      35.218 -15.560 -23.401  0.00  0.00    -0.464 OA
ATOM     22  O   UNL     1      35.794 -17.603 -20.476  0.00  0.00    -0.271 OA
ATOM     23  N   UNL     1      34.501 -15.711 -20.669  0.00  0.00    -0.279 N 
ATOM     24  C   UNL     1      32.666 -12.708 -21.782  0.00  0.00    -0.001 C 
ATOM     25  C   UNL     1      33.987 -14.707 -21.496  0.00  0.00    +0.085 C 
ATOM     26  C   UNL     1      33.148 -13.729 -20.961  0.00  0.00    +0.015 C 
ATOM     27  C   UNL     1      34.353 -14.663 -22.840  0.00  0.00    +0.153 C 
ATOM     28  C   UNL     1      33.033 -12.660 -23.127  0.00  0.00    +0.001 C 
ATOM     29  C   UNL     1      33.883 -13.632 -23.655  0.00  0.00    +0.038 C 
ATOM     30  C   UNL     1      35.331 -16.777 -22.688  0.00  0.00    +0.290 C 
ATOM     31  C   UNL     1      35.265 -16.738 -21.171  0.00  0.00    +0.271 C 
ATOM     32  H   UNL     1      34.310 -15.682 -19.703  0.00  0.00    +0.155 HD
ENDBRANCH  20  24
ENDBRANCH  17  20
ENDBRANCH  14  18
BRANCH   5  33
ATOM     33  C   UNL     1      30.769  -3.434 -25.188  0.00  0.00    +0.089 C 
BRANCH  33  36
ATOM     34  O   UNL     1      28.994  -1.786 -25.304  0.00  0.00    -0.275 OA
ATOM     35  N   UNL     1      30.195  -2.009 -23.355  0.00  0.00    -0.329 N 
ATOM     36  C   UNL     1      29.885  -2.333 -24.658  0.00  0.00    +0.220 C 
ATOM     37  H   UNL     1      29.690  -1.303 -22.890  0.00  0.00    +0.145 HD
ATOM     38  H   UNL     1      30.921  -2.483 -22.890  0.00  0.00    +0.145 HD
ENDBRANCH  33  36
ENDBRANCH   5  33
TORSDOF 5
ENDMDL
