MODEL 1
REMARK VINA RESULT:     -11.7      0.000      0.000
REMARK  Name = 198752
REMARK  6 active torsions:
REMARK  status: ('A' for Active; 'I' for Inactive)
REMARK    1  A    between atoms: C_1  and  C_3
REMARK    2  A    between atoms: C_1  and  C_16
REMARK    3  A    between atoms: N_2  and  C_9
REMARK    4  A    between atoms: C_9  and  C_10
REMARK    5  A    between atoms: C_16  and  C_18
REMARK    6  A    between atoms: C_18  and  C_20
REMARK                            x       y       z     vdW  Elec       q    Type
REMARK                         _______ _______ _______ _____ _____    ______ ____
ROOT
ATOM      1  C   UNL     1      34.116 -14.005 -22.970  0.00  0.00    +0.008 C 
ENDROOT
BRANCH   1   3
ATOM      2  N   UNL     1      35.121 -18.112 -22.089  0.00  0.00    +0.390 N 
ATOM      3  C   UNL     1      34.956 -15.254 -22.722  0.00  0.00    -0.004 C 
ATOM      4  C   UNL     1      34.639 -16.344 -23.751  0.00  0.00    -0.023 C 
ATOM      5  C   UNL     1      34.731 -15.797 -21.307  0.00  0.00    -0.023 C 
ATOM      6  C   UNL     1      35.404 -17.634 -23.449  0.00  0.00    -0.077 C 
ATOM      7  C   UNL     1      35.493 -17.106 -21.086  0.00  0.00    -0.077 C 
ATOM      8  H   UNL     1      34.117 -18.274 -22.015  0.00  0.00    -0.079 HD
BRANCH   2   9
ATOM      9  C   UNL     1      35.818 -19.372 -21.832  0.00  0.00    -0.050 C 
BRANCH   9  10
ATOM     10  C   UNL     1      35.020 -20.282 -20.938  0.00  0.00    -0.043 C 
ATOM     11  C   UNL     1      35.682 -21.155 -20.086  0.00  0.00    -0.006 C 
ATOM     12  C   UNL     1      33.633 -20.236 -20.976  0.00  0.00    -0.006 C 
ATOM     13  C   UNL     1      34.942 -21.999 -19.257  0.00  0.00    -0.000 C 
ATOM     14  C   UNL     1      32.894 -21.079 -20.148  0.00  0.00    -0.000 C 
ATOM     15  C   UNL     1      33.549 -21.961 -19.288  0.00  0.00    -0.000 C 
ENDBRANCH   9  10
ENDBRANCH   2   9
ENDBRANCH   1   3
BRANCH   1  16
ATOM     16  C   UNL     1      33.298 -14.125 -24.257  0.00  0.00    +0.069 C 
BRANCH  16  18
ATOM     17  O   UNL     1      33.466 -13.137 -26.449  0.00  0.00    -0.291 OA
ATOM     18  C   UNL     1      33.487 -12.936 -25.217  0.00  0.00    +0.173 C 
BRANCH  18  20
ATOM     19  N   UNL     1      31.740  -9.138 -22.744  0.00  0.00    -0.333 N 
ATOM     20  C   UNL     1      33.685 -11.598 -24.684  0.00  0.00    +0.036 C 
ATOM     21  C   UNL     1      34.054  -9.015 -23.631  0.00  0.00    -0.009 C 
ATOM     22  C   UNL     1      34.378  -7.646 -23.066  0.00  0.00    +0.028 C 
ATOM     23  C   UNL     1      32.826  -9.681 -23.417  0.00  0.00    +0.041 C 
ATOM     24  C   UNL     1      33.914  -7.457 -21.622  0.00  0.00    +0.006 C 
ATOM     25  C   UNL     1      32.426  -7.141 -21.479  0.00  0.00    +0.022 C 
ATOM     26  C   UNL     1      32.677 -10.983 -23.942  0.00  0.00    +0.017 C 
ATOM     27  C   UNL     1      31.537  -7.717 -22.571  0.00  0.00    +0.087 C 
ATOM     28  C   UNL     1      34.873 -10.924 -24.921  0.00  0.00    +0.003 C 
ATOM     29  C   UNL     1      35.055  -9.644 -24.401  0.00  0.00    -0.003 C 
ATOM     30  H   UNL     1      31.071  -9.753 -22.365  0.00  0.00    +0.147 HD
ENDBRANCH  18  20
ENDBRANCH  16  18
ENDBRANCH   1  16
TORSDOF 6
ENDMDL
MODEL 2
REMARK VINA RESULT:     -11.6      4.633     11.966
REMARK  Name = 198752
REMARK  6 active torsions:
REMARK  status: ('A' for Active; 'I' for Inactive)
REMARK    1  A    between atoms: C_1  and  C_3
REMARK    2  A    between atoms: C_1  and  C_16
REMARK    3  A    between atoms: N_2  and  C_9
REMARK    4  A    between atoms: C_9  and  C_10
REMARK    5  A    between atoms: C_16  and  C_18
REMARK    6  A    between atoms: C_18  and  C_20
REMARK                            x       y       z     vdW  Elec       q    Type
REMARK                         _______ _______ _______ _____ _____    ______ ____
ROOT
ATOM      1  C   UNL     1      36.389 -21.625 -19.023  0.00  0.00    +0.008 C 
ENDROOT
BRANCH   1   3
ATOM      2  N   UNL     1      35.551 -18.553 -21.942  0.00  0.00    +0.390 N 
ATOM      3  C   UNL     1      36.237 -20.935 -20.375  0.00  0.00    -0.004 C 
ATOM      4  C   UNL     1      37.170 -19.724 -20.484  0.00  0.00    -0.023 C 
ATOM      5  C   UNL     1      34.788 -20.494 -20.609  0.00  0.00    -0.023 C 
ATOM      6  C   UNL     1      36.952 -18.969 -21.797  0.00  0.00    -0.077 C 
ATOM      7  C   UNL     1      34.649 -19.713 -21.917  0.00  0.00    -0.077 C 
ATOM      8  H   UNL     1      35.316 -17.956 -21.150  0.00  0.00    -0.079 HD
BRANCH   2   9
ATOM      9  C   UNL     1      35.368 -17.789 -23.176  0.00  0.00    -0.050 C 
BRANCH   9  10
ATOM     10  C   UNL     1      34.879 -16.391 -22.901  0.00  0.00    -0.043 C 
ATOM     11  C   UNL     1      34.947 -15.885 -21.610  0.00  0.00    -0.006 C 
ATOM     12  C   UNL     1      34.369 -15.628 -23.942  0.00  0.00    -0.006 C 
ATOM     13  C   UNL     1      34.494 -14.591 -21.356  0.00  0.00    -0.000 C 
ATOM     14  C   UNL     1      33.917 -14.334 -23.688  0.00  0.00    -0.000 C 
ATOM     15  C   UNL     1      33.979 -13.815 -22.394  0.00  0.00    -0.000 C 
ENDBRANCH   9  10
ENDBRANCH   2   9
ENDBRANCH   1   3
BRANCH   1  16
ATOM     16  C   UNL     1      35.095 -22.318 -18.598  0.00  0.00    +0.069 C 
BRANCH  16  18
ATOM     17  O   UNL     1      36.266 -23.118 -16.648  0.00  0.00    -0.291 OA
ATOM     18  C   UNL     1      35.154 -22.910 -17.177  0.00  0.00    +0.173 C 
BRANCH  18  20
ATOM     19  N   UNL     1      30.300 -23.071 -17.139  0.00  0.00    -0.333 N 
ATOM     20  C   UNL     1      33.923 -23.221 -16.469  0.00  0.00    +0.036 C 
ATOM     21  C   UNL     1      31.529 -23.829 -15.122  0.00  0.00    -0.009 C 
ATOM     22  C   UNL     1      30.306 -24.237 -14.324  0.00  0.00    +0.028 C 
ATOM     23  C   UNL     1      31.473 -23.330 -16.443  0.00  0.00    +0.041 C 
ATOM     24  C   UNL     1      29.275 -25.013 -15.142  0.00  0.00    +0.006 C 
ATOM     25  C   UNL     1      28.384 -24.136 -16.021  0.00  0.00    +0.022 C 
ATOM     26  C   UNL     1      32.690 -23.051 -17.099  0.00  0.00    +0.017 C 
ATOM     27  C   UNL     1      29.025 -22.841 -16.498  0.00  0.00    +0.087 C 
ATOM     28  C   UNL     1      33.969 -23.675 -15.160  0.00  0.00    +0.003 C 
ATOM     29  C   UNL     1      32.783 -23.975 -14.492  0.00  0.00    -0.003 C 
ATOM     30  H   UNL     1      30.339 -23.041 -18.123  0.00  0.00    +0.147 HD
ENDBRANCH  18  20
ENDBRANCH  16  18
ENDBRANCH   1  16
TORSDOF 6
ENDMDL
MODEL 3
REMARK VINA RESULT:     -11.5      2.926      5.671
REMARK  Name = 198752
REMARK  6 active torsions:
REMARK  status: ('A' for Active; 'I' for Inactive)
REMARK    1  A    between atoms: C_1  and  C_3
REMARK    2  A    between atoms: C_1  and  C_16
REMARK    3  A    between atoms: N_2  and  C_9
REMARK    4  A    between atoms: C_9  and  C_10
REMARK    5  A    between atoms: C_16  and  C_18
REMARK    6  A    between atoms: C_18  and  C_20
REMARK                            x       y       z     vdW  Elec       q    Type
REMARK                         _______ _______ _______ _____ _____    ______ ____
ROOT
ATOM      1  C   UNL     1      35.822 -18.648 -21.294  0.00  0.00    +0.008 C 
ENDROOT
BRANCH   1   3
ATOM      2  N   UNL     1      34.253 -22.028 -19.110  0.00  0.00    +0.390 N 
ATOM      3  C   UNL     1      35.327 -20.061 -21.000  0.00  0.00    -0.004 C 
ATOM      4  C   UNL     1      33.865 -20.048 -20.540  0.00  0.00    -0.023 C 
ATOM      5  C   UNL     1      36.197 -20.741 -19.938  0.00  0.00    -0.023 C 
ATOM      6  C   UNL     1      33.392 -21.449 -20.149  0.00  0.00    -0.077 C 
ATOM      7  C   UNL     1      35.647 -22.119 -19.566  0.00  0.00    -0.077 C 
ATOM      8  H   UNL     1      34.228 -21.410 -18.299  0.00  0.00    -0.079 HD
BRANCH   2   9
ATOM      9  C   UNL     1      33.759 -23.345 -18.709  0.00  0.00    -0.050 C 
BRANCH   9  10
ATOM     10  C   UNL     1      33.319 -23.365 -17.269  0.00  0.00    -0.043 C 
ATOM     11  C   UNL     1      31.974 -23.200 -16.964  0.00  0.00    -0.006 C 
ATOM     12  C   UNL     1      34.261 -23.547 -16.267  0.00  0.00    -0.006 C 
ATOM     13  C   UNL     1      31.566 -23.217 -15.630  0.00  0.00    -0.000 C 
ATOM     14  C   UNL     1      33.853 -23.565 -14.934  0.00  0.00    -0.000 C 
ATOM     15  C   UNL     1      32.505 -23.399 -14.616  0.00  0.00    -0.000 C 
ENDBRANCH   9  10
ENDBRANCH   2   9
ENDBRANCH   1   3
BRANCH   1  16
ATOM     16  C   UNL     1      36.295 -18.508 -22.741  0.00  0.00    +0.069 C 
BRANCH  16  18
ATOM     17  O   UNL     1      34.710 -19.645 -24.158  0.00  0.00    -0.291 OA
ATOM     18  C   UNL     1      35.146 -18.542 -23.767  0.00  0.00    +0.173 C 
BRANCH  18  20
ATOM     19  N   UNL     1      34.320 -13.797 -23.140  0.00  0.00    -0.333 N 
ATOM     20  C   UNL     1      34.584 -17.299 -24.267  0.00  0.00    +0.036 C 
ATOM     21  C   UNL     1      33.516 -14.877 -25.223  0.00  0.00    -0.009 C 
ATOM     22  C   UNL     1      32.950 -13.622 -25.856  0.00  0.00    +0.028 C 
ATOM     23  C   UNL     1      34.179 -14.897 -23.976  0.00  0.00    +0.041 C 
ATOM     24  C   UNL     1      33.866 -12.405 -25.722  0.00  0.00    +0.006 C 
ATOM     25  C   UNL     1      33.802 -11.721 -24.357  0.00  0.00    +0.022 C 
ATOM     26  C   UNL     1      34.720 -16.122 -23.531  0.00  0.00    +0.017 C 
ATOM     27  C   UNL     1      33.457 -12.639 -23.193  0.00  0.00    +0.087 C 
ATOM     28  C   UNL     1      33.899 -17.279 -25.472  0.00  0.00    +0.003 C 
ATOM     29  C   UNL     1      33.369 -16.081 -25.945  0.00  0.00    -0.003 C 
ATOM     30  H   UNL     1      35.046 -13.807 -22.475  0.00  0.00    +0.147 HD
ENDBRANCH  18  20
ENDBRANCH  16  18
ENDBRANCH   1  16
TORSDOF 6
ENDMDL
MODEL 4
REMARK VINA RESULT:     -11.4      5.308     13.281
REMARK  Name = 198752
REMARK  6 active torsions:
REMARK  status: ('A' for Active; 'I' for Inactive)
REMARK    1  A    between atoms: C_1  and  C_3
REMARK    2  A    between atoms: C_1  and  C_16
REMARK    3  A    between atoms: N_2  and  C_9
REMARK    4  A    between atoms: C_9  and  C_10
REMARK    5  A    between atoms: C_16  and  C_18
REMARK    6  A    between atoms: C_18  and  C_20
REMARK                            x       y       z     vdW  Elec       q    Type
REMARK                         _______ _______ _______ _____ _____    ______ ____
ROOT
ATOM      1  C   UNL     1      33.083 -22.464 -18.857  0.00  0.00    +0.008 C 
ENDROOT
BRANCH   1   3
ATOM      2  N   UNL     1      35.182 -19.367 -21.016  0.00  0.00    +0.390 N 
ATOM      3  C   UNL     1      33.833 -21.756 -19.982  0.00  0.00    -0.004 C 
ATOM      4  C   UNL     1      35.239 -21.346 -19.533  0.00  0.00    -0.023 C 
ATOM      5  C   UNL     1      33.064 -20.522 -20.465  0.00  0.00    -0.023 C 
ATOM      6  C   UNL     1      35.960 -20.548 -20.621  0.00  0.00    -0.077 C 
ATOM      7  C   UNL     1      33.857 -19.751 -21.522  0.00  0.00    -0.077 C 
ATOM      8  H   UNL     1      35.045 -18.788 -20.188  0.00  0.00    -0.079 HD
BRANCH   2   9
ATOM      9  C   UNL     1      35.906 -18.586 -22.019  0.00  0.00    -0.050 C 
BRANCH   9  10
ATOM     10  C   UNL     1      35.387 -17.177 -22.114  0.00  0.00    -0.043 C 
ATOM     11  C   UNL     1      35.133 -16.626 -23.363  0.00  0.00    -0.006 C 
ATOM     12  C   UNL     1      35.167 -16.448 -20.954  0.00  0.00    -0.006 C 
ATOM     13  C   UNL     1      34.652 -15.319 -23.451  0.00  0.00    -0.000 C 
ATOM     14  C   UNL     1      34.686 -15.142 -21.042  0.00  0.00    -0.000 C 
ATOM     15  C   UNL     1      34.429 -14.577 -22.292  0.00  0.00    -0.000 C 
ENDBRANCH   9  10
ENDBRANCH   2   9
ENDBRANCH   1   3
BRANCH   1  16
ATOM     16  C   UNL     1      34.042 -23.194 -17.916  0.00  0.00    +0.069 C 
BRANCH  16  18
ATOM     17  O   UNL     1      32.186 -23.408 -16.392  0.00  0.00    -0.291 OA
ATOM     18  C   UNL     1      33.418 -23.539 -16.551  0.00  0.00    +0.173 C 
BRANCH  18  20
ATOM     19  N   UNL     1      37.579 -25.579 -15.099  0.00  0.00    -0.333 N 
ATOM     20  C   UNL     1      34.262 -24.010 -15.465  0.00  0.00    +0.036 C 
ATOM     21  C   UNL     1      35.919 -24.915 -13.380  0.00  0.00    -0.009 C 
ATOM     22  C   UNL     1      36.750 -25.323 -12.178  0.00  0.00    +0.028 C 
ATOM     23  C   UNL     1      36.369 -25.018 -14.715  0.00  0.00    +0.041 C 
ATOM     24  C   UNL     1      38.216 -24.903 -12.280  0.00  0.00    +0.006 C 
ATOM     25  C   UNL     1      39.070 -25.820 -13.155  0.00  0.00    +0.022 C 
ATOM     26  C   UNL     1      35.524 -24.540 -15.739  0.00  0.00    +0.017 C 
ATOM     27  C   UNL     1      38.321 -26.514 -14.283  0.00  0.00    +0.087 C 
ATOM     28  C   UNL     1      33.813 -23.947 -14.156  0.00  0.00    +0.003 C 
ATOM     29  C   UNL     1      34.632 -24.396 -13.123  0.00  0.00    -0.003 C 
ATOM     30  H   UNL     1      37.953 -25.328 -15.975  0.00  0.00    +0.147 HD
ENDBRANCH  18  20
ENDBRANCH  16  18
ENDBRANCH   1  16
TORSDOF 6
ENDMDL
MODEL 5
REMARK VINA RESULT:     -11.2      1.482      2.180
REMARK  Name = 198752
REMARK  6 active torsions:
REMARK  status: ('A' for Active; 'I' for Inactive)
REMARK    1  A    between atoms: C_1  and  C_3
REMARK    2  A    between atoms: C_1  and  C_16
REMARK    3  A    between atoms: N_2  and  C_9
REMARK    4  A    between atoms: C_9  and  C_10
REMARK    5  A    between atoms: C_16  and  C_18
REMARK    6  A    between atoms: C_18  and  C_20
REMARK                            x       y       z     vdW  Elec       q    Type
REMARK                         _______ _______ _______ _____ _____    ______ ____
ROOT
ATOM      1  C   UNL     1      33.926 -14.785 -23.899  0.00  0.00    +0.008 C 
ENDROOT
BRANCH   1   3
ATOM      2  N   UNL     1      35.272 -18.377 -21.915  0.00  0.00    +0.390 N 
ATOM      3  C   UNL     1      34.868 -15.835 -23.319  0.00  0.00    -0.004 C 
ATOM      4  C   UNL     1      34.666 -17.193 -24.000  0.00  0.00    -0.023 C 
ATOM      5  C   UNL     1      34.667 -15.981 -21.807  0.00  0.00    -0.023 C 
ATOM      6  C   UNL     1      35.536 -18.274 -23.356  0.00  0.00    -0.077 C 
ATOM      7  C   UNL     1      35.537 -17.102 -21.235  0.00  0.00    -0.077 C 
ATOM      8  H   UNL     1      34.285 -18.601 -21.790  0.00  0.00    -0.079 HD
BRANCH   2   9
ATOM      9  C   UNL     1      36.072 -19.449 -21.322  0.00  0.00    -0.050 C 
BRANCH   9  10
ATOM     10  C   UNL     1      35.219 -20.439 -20.575  0.00  0.00    -0.043 C 
ATOM     11  C   UNL     1      35.826 -21.397 -19.775  0.00  0.00    -0.006 C 
ATOM     12  C   UNL     1      33.837 -20.380 -20.696  0.00  0.00    -0.006 C 
ATOM     13  C   UNL     1      35.034 -22.315 -19.084  0.00  0.00    -0.000 C 
ATOM     14  C   UNL     1      33.047 -21.296 -20.005  0.00  0.00    -0.000 C 
ATOM     15  C   UNL     1      33.646 -22.265 -19.198  0.00  0.00    -0.000 C 
ENDBRANCH   9  10
ENDBRANCH   2   9
ENDBRANCH   1   3
BRANCH   1  16
ATOM     16  C   UNL     1      34.146 -13.416 -23.255  0.00  0.00    +0.069 C 
BRANCH  16  18
ATOM     17  O   UNL     1      32.023 -13.583 -22.124  0.00  0.00    -0.291 OA
ATOM     18  C   UNL     1      32.869 -12.819 -22.633  0.00  0.00    +0.173 C 
BRANCH  18  20
ATOM     19  N   UNL     1      34.405  -8.402 -23.944  0.00  0.00    -0.333 N 
ATOM     20  C   UNL     1      32.662 -11.380 -22.644  0.00  0.00    +0.036 C 
ATOM     21  C   UNL     1      32.274  -8.594 -22.690  0.00  0.00    -0.009 C 
ATOM     22  C   UNL     1      31.940  -7.115 -22.699  0.00  0.00    +0.028 C 
ATOM     23  C   UNL     1      33.413  -9.144 -23.319  0.00  0.00    +0.041 C 
ATOM     24  C   UNL     1      32.176  -6.444 -24.052  0.00  0.00    +0.006 C 
ATOM     25  C   UNL     1      33.638  -6.095 -24.331  0.00  0.00    +0.022 C 
ATOM     26  C   UNL     1      33.572 -10.546 -23.295  0.00  0.00    +0.017 C 
ATOM     27  C   UNL     1      34.656  -7.006 -23.662  0.00  0.00    +0.087 C 
ATOM     28  C   UNL     1      31.567 -10.829 -21.997  0.00  0.00    +0.003 C 
ATOM     29  C   UNL     1      31.375  -9.450 -22.018  0.00  0.00    -0.003 C 
ATOM     30  H   UNL     1      34.970  -8.849 -24.616  0.00  0.00    +0.147 HD
ENDBRANCH  18  20
ENDBRANCH  16  18
ENDBRANCH   1  16
TORSDOF 6
ENDMDL
MODEL 6
REMARK VINA RESULT:     -11.0      6.178     12.976
REMARK  Name = 198752
REMARK  6 active torsions:
REMARK  status: ('A' for Active; 'I' for Inactive)
REMARK    1  A    between atoms: C_1  and  C_3
REMARK    2  A    between atoms: C_1  and  C_16
REMARK    3  A    between atoms: N_2  and  C_9
REMARK    4  A    between atoms: C_9  and  C_10
REMARK    5  A    between atoms: C_16  and  C_18
REMARK    6  A    between atoms: C_18  and  C_20
REMARK                            x       y       z     vdW  Elec       q    Type
REMARK                         _______ _______ _______ _____ _____    ______ ____
ROOT
ATOM      1  C   UNL     1      33.784 -23.055 -18.758  0.00  0.00    +0.008 C 
ENDROOT
BRANCH   1   3
ATOM      2  N   UNL     1      35.422 -20.062 -21.407  0.00  0.00    +0.390 N 
ATOM      3  C   UNL     1      34.360 -21.726 -19.239  0.00  0.00    -0.004 C 
ATOM      4  C   UNL     1      33.461 -21.091 -20.305  0.00  0.00    -0.023 C 
ATOM      5  C   UNL     1      35.775 -21.908 -19.798  0.00  0.00    -0.023 C 
ATOM      6  C   UNL     1      34.081 -19.809 -20.865  0.00  0.00    -0.077 C 
ATOM      7  C   UNL     1      36.318 -20.599 -20.374  0.00  0.00    -0.077 C 
ATOM      8  H   UNL     1      35.337 -20.761 -22.144  0.00  0.00    -0.079 HD
BRANCH   2   9
ATOM      9  C   UNL     1      35.982 -18.840 -21.984  0.00  0.00    -0.050 C 
BRANCH   9  10
ATOM     10  C   UNL     1      35.250 -18.423 -23.232  0.00  0.00    -0.043 C 
ATOM     11  C   UNL     1      34.689 -19.394 -24.051  0.00  0.00    -0.006 C 
ATOM     12  C   UNL     1      35.143 -17.075 -23.546  0.00  0.00    -0.006 C 
ATOM     13  C   UNL     1      34.011 -19.008 -25.208  0.00  0.00    -0.000 C 
ATOM     14  C   UNL     1      34.465 -16.689 -24.701  0.00  0.00    -0.000 C 
ATOM     15  C   UNL     1      33.900 -17.656 -25.533  0.00  0.00    -0.000 C 
ENDBRANCH   9  10
ENDBRANCH   2   9
ENDBRANCH   1   3
BRANCH   1  16
ATOM     16  C   UNL     1      32.721 -22.848 -17.679  0.00  0.00    +0.069 C 
BRANCH  16  18
ATOM     17  O   UNL     1      32.080 -24.047 -15.688  0.00  0.00    -0.291 OA
ATOM     18  C   UNL     1      33.026 -23.595 -16.367  0.00  0.00    +0.173 C 
BRANCH  18  20
ATOM     19  N   UNL     1      36.413 -26.377 -14.275  0.00  0.00    -0.333 N 
ATOM     20  C   UNL     1      34.402 -23.768 -15.933  0.00  0.00    +0.036 C 
ATOM     21  C   UNL     1      37.065 -24.130 -15.098  0.00  0.00    -0.009 C 
ATOM     22  C   UNL     1      38.533 -24.237 -14.735  0.00  0.00    +0.028 C 
ATOM     23  C   UNL     1      36.130 -25.170 -14.900  0.00  0.00    +0.041 C 
ATOM     24  C   UNL     1      39.154 -25.586 -15.096  0.00  0.00    +0.006 C 
ATOM     25  C   UNL     1      38.846 -26.704 -14.100  0.00  0.00    +0.022 C 
ATOM     26  C   UNL     1      34.806 -24.967 -15.345  0.00  0.00    +0.017 C 
ATOM     27  C   UNL     1      37.521 -26.565 -13.366  0.00  0.00    +0.087 C 
ATOM     28  C   UNL     1      35.316 -22.738 -16.090  0.00  0.00    +0.003 C 
ATOM     29  C   UNL     1      36.634 -22.916 -15.675  0.00  0.00    -0.003 C 
ATOM     30  H   UNL     1      35.827 -27.147 -14.460  0.00  0.00    +0.147 HD
ENDBRANCH  18  20
ENDBRANCH  16  18
ENDBRANCH   1  16
TORSDOF 6
ENDMDL
MODEL 7
REMARK VINA RESULT:     -10.9      3.208      4.975
REMARK  Name = 198752
REMARK  6 active torsions:
REMARK  status: ('A' for Active; 'I' for Inactive)
REMARK    1  A    between atoms: C_1  and  C_3
REMARK    2  A    between atoms: C_1  and  C_16
REMARK    3  A    between atoms: N_2  and  C_9
REMARK    4  A    between atoms: C_9  and  C_10
REMARK    5  A    between atoms: C_16  and  C_18
REMARK    6  A    between atoms: C_18  and  C_20
REMARK                            x       y       z     vdW  Elec       q    Type
REMARK                         _______ _______ _______ _____ _____    ______ ____
ROOT
ATOM      1  C   UNL     1      31.140 -11.181 -21.677  0.00  0.00    +0.008 C 
ENDROOT
BRANCH   1   3
ATOM      2  N   UNL     1      33.806 -14.407 -22.743  0.00  0.00    +0.390 N 
ATOM      3  C   UNL     1      32.414 -12.015 -21.777  0.00  0.00    -0.004 C 
ATOM      4  C   UNL     1      32.850 -12.180 -23.237  0.00  0.00    -0.023 C 
ATOM      5  C   UNL     1      32.223 -13.393 -21.135  0.00  0.00    -0.023 C 
ATOM      6  C   UNL     1      34.068 -13.098 -23.354  0.00  0.00    -0.077 C 
ATOM      7  C   UNL     1      33.462 -14.270 -21.322  0.00  0.00    -0.077 C 
ATOM      8  H   UNL     1      33.007 -14.823 -23.221  0.00  0.00    -0.079 HD
BRANCH   2   9
ATOM      9  C   UNL     1      34.960 -15.291 -22.908  0.00  0.00    -0.050 C 
BRANCH   9  10
ATOM     10  C   UNL     1      34.622 -16.509 -23.726  0.00  0.00    -0.043 C 
ATOM     11  C   UNL     1      34.959 -17.767 -23.247  0.00  0.00    -0.006 C 
ATOM     12  C   UNL     1      33.978 -16.357 -24.946  0.00  0.00    -0.006 C 
ATOM     13  C   UNL     1      34.647 -18.896 -24.006  0.00  0.00    -0.000 C 
ATOM     14  C   UNL     1      33.665 -17.484 -25.703  0.00  0.00    -0.000 C 
ATOM     15  C   UNL     1      34.000 -18.755 -25.233  0.00  0.00    -0.000 C 
ENDBRANCH   9  10
ENDBRANCH   2   9
ENDBRANCH   1   3
BRANCH   1  16
ATOM     16  C   UNL     1      31.002 -10.532 -20.299  0.00  0.00    +0.069 C 
BRANCH  16  18
ATOM     17  O   UNL     1      32.865  -9.658 -19.044  0.00  0.00    -0.291 OA
ATOM     18  C   UNL     1      32.088  -9.480 -20.005  0.00  0.00    +0.173 C 
BRANCH  18  20
ATOM     19  N   UNL     1      34.003  -7.299 -23.899  0.00  0.00    -0.333 N 
ATOM     20  C   UNL     1      32.197  -8.297 -20.842  0.00  0.00    +0.036 C 
ATOM     21  C   UNL     1      32.413  -6.023 -22.486  0.00  0.00    -0.009 C 
ATOM     22  C   UNL     1      32.415  -4.762 -23.327  0.00  0.00    +0.028 C 
ATOM     23  C   UNL     1      33.138  -7.189 -22.819  0.00  0.00    +0.041 C 
ATOM     24  C   UNL     1      32.330  -5.031 -24.829  0.00  0.00    +0.006 C 
ATOM     25  C   UNL     1      33.657  -5.436 -25.469  0.00  0.00    +0.022 C 
ATOM     26  C   UNL     1      32.996  -8.320 -21.986  0.00  0.00    +0.017 C 
ATOM     27  C   UNL     1      34.622  -6.164 -24.545  0.00  0.00    +0.087 C 
ATOM     28  C   UNL     1      31.518  -7.138 -20.502  0.00  0.00    +0.003 C 
ATOM     29  C   UNL     1      31.626  -6.011 -21.314  0.00  0.00    -0.003 C 
ATOM     30  H   UNL     1      34.207  -8.199 -24.243  0.00  0.00    +0.147 HD
ENDBRANCH  18  20
ENDBRANCH  16  18
ENDBRANCH   1  16
TORSDOF 6
ENDMDL
MODEL 8
REMARK VINA RESULT:     -10.8      2.276     11.091
REMARK  Name = 198752
REMARK  6 active torsions:
REMARK  status: ('A' for Active; 'I' for Inactive)
REMARK    1  A    between atoms: C_1  and  C_3
REMARK    2  A    between atoms: C_1  and  C_16
REMARK    3  A    between atoms: N_2  and  C_9
REMARK    4  A    between atoms: C_9  and  C_10
REMARK    5  A    between atoms: C_16  and  C_18
REMARK    6  A    between atoms: C_18  and  C_20
REMARK                            x       y       z     vdW  Elec       q    Type
REMARK                         _______ _______ _______ _____ _____    ______ ____
ROOT
ATOM      1  C   UNL     1      34.286 -11.531 -24.629  0.00  0.00    +0.008 C 
ENDROOT
BRANCH   1   3
ATOM      2  N   UNL     1      33.129  -7.541 -23.447  0.00  0.00    +0.390 N 
ATOM      3  C   UNL     1      34.019 -10.319 -23.741  0.00  0.00    -0.004 C 
ATOM      4  C   UNL     1      32.540  -9.919 -23.785  0.00  0.00    -0.023 C 
ATOM      5  C   UNL     1      34.889  -9.128 -24.157  0.00  0.00    -0.023 C 
ATOM      6  C   UNL     1      32.283  -8.646 -22.977  0.00  0.00    -0.077 C 
ATOM      7  C   UNL     1      34.554  -7.881 -23.337  0.00  0.00    -0.077 C 
ATOM      8  H   UNL     1      32.919  -7.380 -24.432  0.00  0.00    -0.079 HD
BRANCH   2   9
ATOM      9  C   UNL     1      32.836  -6.317 -22.700  0.00  0.00    -0.050 C 
BRANCH   9  10
ATOM     10  C   UNL     1      32.531  -5.161 -23.616  0.00  0.00    -0.043 C 
ATOM     11  C   UNL     1      33.109  -5.119 -24.877  0.00  0.00    -0.006 C 
ATOM     12  C   UNL     1      31.677  -4.155 -23.187  0.00  0.00    -0.006 C 
ATOM     13  C   UNL     1      32.828  -4.047 -25.725  0.00  0.00    -0.000 C 
ATOM     14  C   UNL     1      31.395  -3.085 -24.035  0.00  0.00    -0.000 C 
ATOM     15  C   UNL     1      31.971  -3.031 -25.305  0.00  0.00    -0.000 C 
ENDBRANCH   9  10
ENDBRANCH   2   9
ENDBRANCH   1   3
BRANCH   1  16
ATOM     16  C   UNL     1      33.581 -12.780 -24.100  0.00  0.00    +0.069 C 
BRANCH  16  18
ATOM     17  O   UNL     1      33.020 -13.629 -26.285  0.00  0.00    -0.291 OA
ATOM     18  C   UNL     1      33.454 -13.902 -25.147  0.00  0.00    +0.173 C 
BRANCH  18  20
ATOM     19  N   UNL     1      35.504 -16.978 -21.997  0.00  0.00    -0.333 N 
ATOM     20  C   UNL     1      33.839 -15.262 -24.804  0.00  0.00    +0.036 C 
ATOM     21  C   UNL     1      34.578 -17.887 -24.111  0.00  0.00    -0.009 C 
ATOM     22  C   UNL     1      34.885 -19.342 -23.818  0.00  0.00    +0.028 C 
ATOM     23  C   UNL     1      34.849 -16.831 -23.212  0.00  0.00    +0.041 C 
ATOM     24  C   UNL     1      34.546 -19.761 -22.388  0.00  0.00    +0.006 C 
ATOM     25  C   UNL     1      35.592 -19.352 -21.351  0.00  0.00    +0.022 C 
ATOM     26  C   UNL     1      34.451 -15.528 -23.578  0.00  0.00    +0.017 C 
ATOM     27  C   UNL     1      36.374 -18.091 -21.688  0.00  0.00    +0.087 C 
ATOM     28  C   UNL     1      33.609 -16.297 -25.696  0.00  0.00    +0.003 C 
ATOM     29  C   UNL     1      33.976 -17.596 -25.354  0.00  0.00    -0.003 C 
ATOM     30  H   UNL     1      35.370 -16.288 -21.308  0.00  0.00    +0.147 HD
ENDBRANCH  18  20
ENDBRANCH  16  18
ENDBRANCH   1  16
TORSDOF 6
ENDMDL
MODEL 9
REMARK VINA RESULT:     -10.6      3.994      7.318
REMARK  Name = 198752
REMARK  6 active torsions:
REMARK  status: ('A' for Active; 'I' for Inactive)
REMARK    1  A    between atoms: C_1  and  C_3
REMARK    2  A    between atoms: C_1  and  C_16
REMARK    3  A    between atoms: N_2  and  C_9
REMARK    4  A    between atoms: C_9  and  C_10
REMARK    5  A    between atoms: C_16  and  C_18
REMARK    6  A    between atoms: C_18  and  C_20
REMARK                            x       y       z     vdW  Elec       q    Type
REMARK                         _______ _______ _______ _____ _____    ______ ____
ROOT
ATOM      1  C   UNL     1      36.825 -20.667 -19.952  0.00  0.00    +0.008 C 
ENDROOT
BRANCH   1   3
ATOM      2  N   UNL     1      34.406 -22.916 -17.169  0.00  0.00    +0.390 N 
ATOM      3  C   UNL     1      36.220 -21.858 -19.214  0.00  0.00    -0.004 C 
ATOM      4  C   UNL     1      34.702 -21.914 -19.411  0.00  0.00    -0.023 C 
ATOM      5  C   UNL     1      36.546 -21.803 -17.718  0.00  0.00    -0.023 C 
ATOM      6  C   UNL     1      34.076 -23.046 -18.594  0.00  0.00    -0.077 C 
ATOM      7  C   UNL     1      35.859 -22.938 -16.957  0.00  0.00    -0.077 C 
ATOM      8  H   UNL     1      34.055 -22.014 -16.846  0.00  0.00    -0.079 HD
BRANCH   2   9
ATOM      9  C   UNL     1      33.759 -23.974 -16.393  0.00  0.00    -0.050 C 
BRANCH   9  10
ATOM     10  C   UNL     1      32.388 -23.567 -15.923  0.00  0.00    -0.043 C 
ATOM     11  C   UNL     1      32.159 -23.380 -14.567  0.00  0.00    -0.006 C 
ATOM     12  C   UNL     1      31.372 -23.384 -16.851  0.00  0.00    -0.006 C 
ATOM     13  C   UNL     1      30.889 -23.003 -14.131  0.00  0.00    -0.000 C 
ATOM     14  C   UNL     1      30.103 -23.006 -16.415  0.00  0.00    -0.000 C 
ATOM     15  C   UNL     1      29.861 -22.816 -15.055  0.00  0.00    -0.000 C 
ENDBRANCH   9  10
ENDBRANCH   2   9
ENDBRANCH   1   3
BRANCH   1  16
ATOM     16  C   UNL     1      35.795 -19.982 -20.850  0.00  0.00    +0.069 C 
BRANCH  16  18
ATOM     17  O   UNL     1      37.610 -18.613 -21.654  0.00  0.00    -0.291 OA
ATOM     18  C   UNL     1      36.405 -18.915 -21.779  0.00  0.00    +0.173 C 
BRANCH  18  20
ATOM     19  N   UNL     1      34.337 -14.875 -23.508  0.00  0.00    -0.333 N 
ATOM     20  C   UNL     1      35.578 -18.272 -22.787  0.00  0.00    +0.036 C 
ATOM     21  C   UNL     1      33.992 -17.003 -24.734  0.00  0.00    -0.009 C 
ATOM     22  C   UNL     1      33.168 -16.416 -25.863  0.00  0.00    +0.028 C 
ATOM     23  C   UNL     1      34.546 -16.236 -23.686  0.00  0.00    +0.041 C 
ATOM     24  C   UNL     1      33.726 -15.099 -26.405  0.00  0.00    +0.006 C 
ATOM     25  C   UNL     1      33.389 -13.878 -25.550  0.00  0.00    +0.022 C 
ATOM     26  C   UNL     1      35.352 -16.896 -22.733  0.00  0.00    +0.017 C 
ATOM     27  C   UNL     1      33.210 -14.161 -24.066  0.00  0.00    +0.087 C 
ATOM     28  C   UNL     1      35.001 -19.024 -23.797  0.00  0.00    +0.003 C 
ATOM     29  C   UNL     1      34.214 -18.397 -24.761  0.00  0.00    -0.003 C 
ATOM     30  H   UNL     1      34.990 -14.368 -22.973  0.00  0.00    +0.147 HD
ENDBRANCH  18  20
ENDBRANCH  16  18
ENDBRANCH   1  16
TORSDOF 6
ENDMDL
