MODEL 1
REMARK VINA RESULT:     -11.8      0.000      0.000
REMARK  Name = 657131
REMARK  7 active torsions:
REMARK  status: ('A' for Active; 'I' for Inactive)
REMARK    1  A    between atoms: C_1  and  CA_2
REMARK    2  A    between atoms: C_1  and  C_3
REMARK    3  A    between atoms: CA_2  and  C_28
REMARK    4  A    between atoms: C_4  and  O_9
REMARK    5  A    between atoms: O_9  and  C_11
REMARK    6  A    between atoms: C_19  and  C_21
REMARK    7  A    between atoms: C_28  and  O_29
REMARK                            x       y       z     vdW  Elec       q    Type
REMARK                         _______ _______ _______ _____ _____    ______ ____
ROOT
ATOM      1  C   UNL     1      31.501 -11.827 -21.541  0.00  0.00    +0.074 C 
ENDROOT
BRANCH   1   2
ATOM      2  C   UNL     1      32.503 -12.812 -21.915  0.00  0.00    -0.016 C 
ATOM      3  C   UNL     1      34.424 -14.701 -22.636  0.00  0.00    +0.145 C 
ATOM      4  C   UNL     1      32.910 -13.779 -20.996  0.00  0.00    -0.001 C 
ATOM      5  C   UNL     1      33.057 -12.790 -23.195  0.00  0.00    -0.001 C 
ATOM      6  C   UNL     1      33.870 -14.724 -21.356  0.00  0.00    +0.037 C 
ATOM      7  C   UNL     1      34.018 -13.735 -23.555  0.00  0.00    +0.037 C 
BRANCH   3   8
ATOM      8  O   UNL     1      35.361 -15.624 -22.987  0.00  0.00    -0.453 OA
BRANCH   8  10
ATOM      9 BR   UNL     1      35.843 -18.242 -21.355  0.00  0.00    -0.046 Br
ATOM     10  C   UNL     1      34.929 -16.761 -23.649  0.00  0.00    +0.151 C 
ATOM     11  C   UNL     1      35.066 -18.011 -23.068  0.00  0.00    +0.069 C 
ATOM     12  C   UNL     1      34.360 -16.602 -24.900  0.00  0.00    +0.038 C 
ATOM     13  C   UNL     1      34.620 -19.136 -23.762  0.00  0.00    +0.010 C 
ATOM     14  C   UNL     1      33.914 -17.728 -25.594  0.00  0.00    +0.003 C 
ATOM     15  C   UNL     1      34.045 -18.994 -25.025  0.00  0.00    +0.001 C 
ENDBRANCH   8  10
ENDBRANCH   3   8
ENDBRANCH   1   2
BRANCH   1  16
ATOM     16  CA  UNL     1      31.739 -10.554 -21.148  0.00  0.00    +0.108 C 
ATOM     17  O   UNL     1      32.272  -7.838 -20.447  0.00  0.00    -0.270 OA
ATOM     18  N   UNL     1      32.164  -9.570 -21.996  0.00  0.00    -0.278 N 
ATOM     19  C   UNL     1      32.406  -8.266 -21.592  0.00  0.00    +0.249 C 
ATOM     20  H   UNL     1      32.306  -9.800 -22.943  0.00  0.00    +0.155 HD
BRANCH  19  21
ATOM     21  C   UNL     1      32.886  -7.344 -22.654  0.00  0.00    +0.054 C 
ATOM     22  C   UNL     1      34.165  -7.504 -23.145  0.00  0.00    +0.005 C 
ATOM     23  C   UNL     1      32.037  -6.361 -23.115  0.00  0.00    +0.005 C 
ATOM     24  C   UNL     1      34.616  -6.640 -24.142  0.00  0.00    +0.000 C 
ATOM     25  C   UNL     1      32.488  -5.496 -24.113  0.00  0.00    +0.000 C 
ATOM     26  C   UNL     1      33.778  -5.635 -24.626  0.00  0.00    +0.000 C 
ENDBRANCH  19  21
BRANCH  16  28
ATOM     27  OXT UNL     1      30.461 -10.033 -19.170  0.00  0.00    -0.244 OA
ATOM     28  C   UNL     1      31.541 -10.212 -19.714  0.00  0.00    +0.348 C 
BRANCH  28  29
ATOM     29  O   UNL     1      32.730 -10.120 -19.071  0.00  0.00    -0.476 OA
ATOM     30  H   UNL     1      33.267 -10.880 -18.968  0.00  0.00    +0.295 HD
ENDBRANCH  28  29
ENDBRANCH  16  28
ENDBRANCH   1  16
TORSDOF 7
ENDMDL
MODEL 2
REMARK VINA RESULT:     -11.7      1.088      2.018
REMARK  Name = 657131
REMARK  7 active torsions:
REMARK  status: ('A' for Active; 'I' for Inactive)
REMARK    1  A    between atoms: C_1  and  CA_2
REMARK    2  A    between atoms: C_1  and  C_3
REMARK    3  A    between atoms: CA_2  and  C_28
REMARK    4  A    between atoms: C_4  and  O_9
REMARK    5  A    between atoms: O_9  and  C_11
REMARK    6  A    between atoms: C_19  and  C_21
REMARK    7  A    between atoms: C_28  and  O_29
REMARK                            x       y       z     vdW  Elec       q    Type
REMARK                         _______ _______ _______ _____ _____    ______ ____
ROOT
ATOM      1  C   UNL     1      31.531 -12.010 -21.493  0.00  0.00    +0.074 C 
ENDROOT
BRANCH   1   2
ATOM      2  C   UNL     1      32.561 -12.959 -21.880  0.00  0.00    -0.016 C 
ATOM      3  C   UNL     1      34.539 -14.782 -22.621  0.00  0.00    +0.145 C 
ATOM      4  C   UNL     1      32.977 -13.037 -23.210  0.00  0.00    -0.001 C 
ATOM      5  C   UNL     1      33.136 -13.794 -20.921  0.00  0.00    -0.001 C 
ATOM      6  C   UNL     1      33.966 -13.948 -23.581  0.00  0.00    +0.037 C 
ATOM      7  C   UNL     1      34.125 -14.705 -21.292  0.00  0.00    +0.037 C 
BRANCH   3   8
ATOM      8  O   UNL     1      35.505 -15.670 -22.983  0.00  0.00    -0.453 OA
BRANCH   8  10
ATOM      9 BR   UNL     1      34.333 -17.133 -25.480  0.00  0.00    -0.046 Br
ATOM     10  C   UNL     1      35.261 -17.015 -22.757  0.00  0.00    +0.151 C 
ATOM     11  C   UNL     1      34.740 -17.816 -23.759  0.00  0.00    +0.069 C 
ATOM     12  C   UNL     1      35.555 -17.521 -21.503  0.00  0.00    +0.038 C 
ATOM     13  C   UNL     1      34.506 -19.166 -23.498  0.00  0.00    +0.010 C 
ATOM     14  C   UNL     1      35.322 -18.872 -21.243  0.00  0.00    +0.003 C 
ATOM     15  C   UNL     1      34.797 -19.694 -22.240  0.00  0.00    +0.001 C 
ENDBRANCH   8  10
ENDBRANCH   3   8
ENDBRANCH   1   2
BRANCH   1  16
ATOM     16  CA  UNL     1      31.725 -10.718 -21.141  0.00  0.00    +0.108 C 
ATOM     17  O   UNL     1      32.168  -7.965 -20.529  0.00  0.00    -0.270 OA
ATOM     18  N   UNL     1      32.135  -9.751 -22.017  0.00  0.00    -0.278 N 
ATOM     19  C   UNL     1      32.332  -8.428 -21.656  0.00  0.00    +0.249 C 
ATOM     20  H   UNL     1      32.298 -10.009 -22.953  0.00  0.00    +0.155 HD
BRANCH  19  21
ATOM     21  C   UNL     1      32.802  -7.529 -22.742  0.00  0.00    +0.054 C 
ATOM     22  C   UNL     1      31.877  -6.753 -23.410  0.00  0.00    +0.005 C 
ATOM     23  C   UNL     1      34.146  -7.498 -23.045  0.00  0.00    +0.005 C 
ATOM     24  C   UNL     1      32.317  -5.910 -24.429  0.00  0.00    +0.000 C 
ATOM     25  C   UNL     1      34.587  -6.653 -24.065  0.00  0.00    +0.000 C 
ATOM     26  C   UNL     1      33.671  -5.859 -24.757  0.00  0.00    +0.000 C 
ENDBRANCH  19  21
BRANCH  16  28
ATOM     27  OXT UNL     1      30.404 -10.129 -19.212  0.00  0.00    -0.244 OA
ATOM     28  C   UNL     1      31.495 -10.333 -19.724  0.00  0.00    +0.348 C 
BRANCH  28  29
ATOM     29  O   UNL     1      32.669 -10.232 -19.054  0.00  0.00    -0.476 OA
ATOM     30  H   UNL     1      32.689  -9.844 -18.201  0.00  0.00    +0.295 HD
ENDBRANCH  28  29
ENDBRANCH  16  28
ENDBRANCH   1  16
TORSDOF 7
ENDMDL
MODEL 3
REMARK VINA RESULT:     -10.9      7.123     12.301
REMARK  Name = 657131
REMARK  7 active torsions:
REMARK  status: ('A' for Active; 'I' for Inactive)
REMARK    1  A    between atoms: C_1  and  CA_2
REMARK    2  A    between atoms: C_1  and  C_3
REMARK    3  A    between atoms: CA_2  and  C_28
REMARK    4  A    between atoms: C_4  and  O_9
REMARK    5  A    between atoms: O_9  and  C_11
REMARK    6  A    between atoms: C_19  and  C_21
REMARK    7  A    between atoms: C_28  and  O_29
REMARK                            x       y       z     vdW  Elec       q    Type
REMARK                         _______ _______ _______ _____ _____    ______ ____
ROOT
ATOM      1  C   UNL     1      35.767 -22.270 -19.435  0.00  0.00    +0.074 C 
ENDROOT
BRANCH   1   2
ATOM      2  C   UNL     1      35.741 -20.999 -20.139  0.00  0.00    -0.016 C 
ATOM      3  C   UNL     1      35.688 -18.560 -21.492  0.00  0.00    +0.145 C 
ATOM      4  C   UNL     1      36.926 -20.297 -20.358  0.00  0.00    -0.001 C 
ATOM      5  C   UNL     1      34.529 -20.481 -20.597  0.00  0.00    -0.001 C 
ATOM      6  C   UNL     1      36.900 -19.077 -21.035  0.00  0.00    +0.037 C 
ATOM      7  C   UNL     1      34.503 -19.261 -21.274  0.00  0.00    +0.037 C 
BRANCH   3   8
ATOM      8  O   UNL     1      35.663 -17.370 -22.152  0.00  0.00    -0.453 OA
BRANCH   8  10
ATOM      9 BR   UNL     1      34.504 -14.540 -22.782  0.00  0.00    -0.046 Br
ATOM     10  C   UNL     1      34.989 -17.318 -23.361  0.00  0.00    +0.151 C 
ATOM     11  C   UNL     1      34.411 -16.138 -23.797  0.00  0.00    +0.069 C 
ATOM     12  C   UNL     1      34.916 -18.481 -24.108  0.00  0.00    +0.038 C 
ATOM     13  C   UNL     1      33.739 -16.121 -25.020  0.00  0.00    +0.010 C 
ATOM     14  C   UNL     1      34.245 -18.463 -25.332  0.00  0.00    +0.003 C 
ATOM     15  C   UNL     1      33.656 -17.283 -25.787  0.00  0.00    +0.001 C 
ENDBRANCH   8  10
ENDBRANCH   3   8
ENDBRANCH   1   2
BRANCH   1  16
ATOM     16  CA  UNL     1      35.689 -22.445 -18.095  0.00  0.00    +0.108 C 
ATOM     17  O   UNL     1      35.397 -22.859 -15.286  0.00  0.00    -0.270 OA
ATOM     18  N   UNL     1      34.575 -22.921 -17.461  0.00  0.00    -0.278 N 
ATOM     19  C   UNL     1      34.497 -23.100 -16.088  0.00  0.00    +0.249 C 
ATOM     20  H   UNL     1      33.789 -23.149 -18.007  0.00  0.00    +0.155 HD
BRANCH  19  21
ATOM     21  C   UNL     1      33.196 -23.606 -15.580  0.00  0.00    +0.054 C 
ATOM     22  C   UNL     1      32.058 -23.382 -16.328  0.00  0.00    +0.005 C 
ATOM     23  C   UNL     1      33.168 -24.285 -14.381  0.00  0.00    +0.005 C 
ATOM     24  C   UNL     1      30.837 -23.856 -15.852  0.00  0.00    +0.000 C 
ATOM     25  C   UNL     1      31.945 -24.760 -13.905  0.00  0.00    +0.000 C 
ATOM     26  C   UNL     1      30.780 -24.545 -14.641  0.00  0.00    +0.000 C 
ENDBRANCH  19  21
BRANCH  16  28
ATOM     27  OXT UNL     1      37.208 -20.948 -16.970  0.00  0.00    -0.244 OA
ATOM     28  C   UNL     1      36.871 -22.084 -17.269  0.00  0.00    +0.348 C 
BRANCH  28  29
ATOM     29  O   UNL     1      37.546 -23.193 -16.881  0.00  0.00    -0.476 OA
ATOM     30  H   UNL     1      37.404 -24.007 -17.323  0.00  0.00    +0.295 HD
ENDBRANCH  28  29
ENDBRANCH  16  28
ENDBRANCH   1  16
TORSDOF 7
ENDMDL
MODEL 4
REMARK VINA RESULT:     -10.7      3.437     10.002
REMARK  Name = 657131
REMARK  7 active torsions:
REMARK  status: ('A' for Active; 'I' for Inactive)
REMARK    1  A    between atoms: C_1  and  CA_2
REMARK    2  A    between atoms: C_1  and  C_3
REMARK    3  A    between atoms: CA_2  and  C_28
REMARK    4  A    between atoms: C_4  and  O_9
REMARK    5  A    between atoms: O_9  and  C_11
REMARK    6  A    between atoms: C_19  and  C_21
REMARK    7  A    between atoms: C_28  and  O_29
REMARK                            x       y       z     vdW  Elec       q    Type
REMARK                         _______ _______ _______ _____ _____    ______ ____
ROOT
ATOM      1  C   UNL     1      35.085 -15.442 -22.065  0.00  0.00    +0.074 C 
ENDROOT
BRANCH   1   2
ATOM      2  C   UNL     1      34.120 -14.355 -22.073  0.00  0.00    -0.016 C 
ATOM      3  C   UNL     1      32.271 -12.267 -22.091  0.00  0.00    +0.145 C 
ATOM      4  C   UNL     1      33.217 -14.214 -21.020  0.00  0.00    -0.001 C 
ATOM      5  C   UNL     1      34.099 -13.450 -23.136  0.00  0.00    -0.001 C 
ATOM      6  C   UNL     1      32.292 -13.170 -21.028  0.00  0.00    +0.037 C 
ATOM      7  C   UNL     1      33.174 -12.406 -23.144  0.00  0.00    +0.037 C 
BRANCH   3   8
ATOM      8  O   UNL     1      31.369 -11.247 -22.098  0.00  0.00    -0.453 OA
BRANCH   8  10
ATOM      9 BR   UNL     1      31.648 -10.200 -19.170  0.00  0.00    -0.046 Br
ATOM     10  C   UNL     1      31.858  -9.953 -22.030  0.00  0.00    +0.151 C 
ATOM     11  C   UNL     1      32.044  -9.332 -20.808  0.00  0.00    +0.069 C 
ATOM     12  C   UNL     1      32.150  -9.312 -23.222  0.00  0.00    +0.038 C 
ATOM     13  C   UNL     1      32.539  -8.028 -20.776  0.00  0.00    +0.010 C 
ATOM     14  C   UNL     1      32.645  -8.008 -23.189  0.00  0.00    +0.003 C 
ATOM     15  C   UNL     1      32.839  -7.366 -21.966  0.00  0.00    +0.001 C 
ENDBRANCH   8  10
ENDBRANCH   3   8
ENDBRANCH   1   2
BRANCH   1  16
ATOM     16  CA  UNL     1      34.872 -16.704 -22.506  0.00  0.00    +0.108 C 
ATOM     17  O   UNL     1      34.431 -19.409 -23.306  0.00  0.00    -0.270 OA
ATOM     18  N   UNL     1      34.839 -17.795 -21.682  0.00  0.00    -0.278 N 
ATOM     19  C   UNL     1      34.619 -19.086 -22.135  0.00  0.00    +0.249 C 
ATOM     20  H   UNL     1      34.977 -17.655 -20.717  0.00  0.00    +0.155 HD
BRANCH  19  21
ATOM     21  C   UNL     1      34.642 -20.144 -21.091  0.00  0.00    +0.054 C 
ATOM     22  C   UNL     1      35.861 -20.601 -20.634  0.00  0.00    +0.005 C 
ATOM     23  C   UNL     1      33.445 -20.633 -20.612  0.00  0.00    +0.005 C 
ATOM     24  C   UNL     1      35.883 -21.593 -19.655  0.00  0.00    +0.000 C 
ATOM     25  C   UNL     1      33.467 -21.625 -19.632  0.00  0.00    +0.000 C 
ATOM     26  C   UNL     1      34.686 -22.106 -19.154  0.00  0.00    +0.000 C 
ENDBRANCH  19  21
BRANCH  16  28
ATOM     27  OXT UNL     1      33.658 -16.670 -24.589  0.00  0.00    -0.244 OA
ATOM     28  C   UNL     1      34.679 -16.917 -23.965  0.00  0.00    +0.348 C 
BRANCH  28  29
ATOM     29  O   UNL     1      35.798 -17.430 -24.530  0.00  0.00    -0.476 OA
ATOM     30  H   UNL     1      36.635 -17.268 -24.144  0.00  0.00    +0.295 HD
ENDBRANCH  28  29
ENDBRANCH  16  28
ENDBRANCH   1  16
TORSDOF 7
ENDMDL
MODEL 5
REMARK VINA RESULT:     -10.7      7.485     12.439
REMARK  Name = 657131
REMARK  7 active torsions:
REMARK  status: ('A' for Active; 'I' for Inactive)
REMARK    1  A    between atoms: C_1  and  CA_2
REMARK    2  A    between atoms: C_1  and  C_3
REMARK    3  A    between atoms: CA_2  and  C_28
REMARK    4  A    between atoms: C_4  and  O_9
REMARK    5  A    between atoms: O_9  and  C_11
REMARK    6  A    between atoms: C_19  and  C_21
REMARK    7  A    between atoms: C_28  and  O_29
REMARK                            x       y       z     vdW  Elec       q    Type
REMARK                         _______ _______ _______ _____ _____    ______ ____
ROOT
ATOM      1  C   UNL     1      34.763 -23.053 -18.994  0.00  0.00    +0.074 C 
ENDROOT
BRANCH   1   2
ATOM      2  C   UNL     1      34.935 -21.809 -19.725  0.00  0.00    -0.016 C 
ATOM      3  C   UNL     1      35.269 -19.420 -21.127  0.00  0.00    +0.145 C 
ATOM      4  C   UNL     1      33.823 -21.130 -20.223  0.00  0.00    -0.001 C 
ATOM      5  C   UNL     1      36.216 -21.292 -19.928  0.00  0.00    -0.001 C 
ATOM      6  C   UNL     1      33.990 -19.936 -20.924  0.00  0.00    +0.037 C 
ATOM      7  C   UNL     1      36.382 -20.097 -20.629  0.00  0.00    +0.037 C 
BRANCH   3   8
ATOM      8  O   UNL     1      35.432 -18.254 -21.810  0.00  0.00    -0.453 OA
BRANCH   8  10
ATOM      9 BR   UNL     1      34.838 -15.348 -22.784  0.00  0.00    -0.046 Br
ATOM     10  C   UNL     1      34.975 -18.204 -23.117  0.00  0.00    +0.151 C 
ATOM     11  C   UNL     1      34.663 -16.993 -23.710  0.00  0.00    +0.069 C 
ATOM     12  C   UNL     1      34.845 -19.400 -23.800  0.00  0.00    +0.038 C 
ATOM     13  C   UNL     1      34.206 -16.978 -25.028  0.00  0.00    +0.010 C 
ATOM     14  C   UNL     1      34.388 -19.385 -25.118  0.00  0.00    +0.003 C 
ATOM     15  C   UNL     1      34.069 -18.174 -25.732  0.00  0.00    +0.001 C 
ENDBRANCH   8  10
ENDBRANCH   3   8
ENDBRANCH   1   2
BRANCH   1  16
ATOM     16  CA  UNL     1      34.317 -23.179 -17.723  0.00  0.00    +0.108 C 
ATOM     17  O   UNL     1      33.250 -23.461 -15.090  0.00  0.00    -0.270 OA
ATOM     18  N   UNL     1      33.001 -23.365 -17.400  0.00  0.00    -0.278 N 
ATOM     19  C   UNL     1      32.547 -23.495 -16.097  0.00  0.00    +0.249 C 
ATOM     20  H   UNL     1      32.344 -23.410 -18.131  0.00  0.00    +0.155 HD
BRANCH  19  21
ATOM     21  C   UNL     1      31.079 -23.668 -15.944  0.00  0.00    +0.054 C 
ATOM     22  C   UNL     1      30.235 -22.807 -16.615  0.00  0.00    +0.005 C 
ATOM     23  C   UNL     1      30.608 -24.683 -15.140  0.00  0.00    +0.005 C 
ATOM     24  C   UNL     1      28.857 -22.968 -16.472  0.00  0.00    +0.000 C 
ATOM     25  C   UNL     1      29.229 -24.845 -14.998  0.00  0.00    +0.000 C 
ATOM     26  C   UNL     1      28.354 -23.987 -15.664  0.00  0.00    +0.000 C 
ENDBRANCH  19  21
BRANCH  16  28
ATOM     27  OXT UNL     1      35.814 -22.066 -16.196  0.00  0.00    -0.244 OA
ATOM     28  C   UNL     1      35.309 -23.095 -16.618  0.00  0.00    +0.348 C 
BRANCH  28  29
ATOM     29  O   UNL     1      35.591 -24.326 -16.127  0.00  0.00    -0.476 OA
ATOM     30  H   UNL     1      36.192 -24.884 -16.579  0.00  0.00    +0.295 HD
ENDBRANCH  28  29
ENDBRANCH  16  28
ENDBRANCH   1  16
TORSDOF 7
ENDMDL
MODEL 6
REMARK VINA RESULT:     -10.5      3.690     10.313
REMARK  Name = 657131
REMARK  7 active torsions:
REMARK  status: ('A' for Active; 'I' for Inactive)
REMARK    1  A    between atoms: C_1  and  CA_2
REMARK    2  A    between atoms: C_1  and  C_3
REMARK    3  A    between atoms: CA_2  and  C_28
REMARK    4  A    between atoms: C_4  and  O_9
REMARK    5  A    between atoms: O_9  and  C_11
REMARK    6  A    between atoms: C_19  and  C_21
REMARK    7  A    between atoms: C_28  and  O_29
REMARK                            x       y       z     vdW  Elec       q    Type
REMARK                         _______ _______ _______ _____ _____    ______ ____
ROOT
ATOM      1  C   UNL     1      35.178 -15.850 -21.622  0.00  0.00    +0.074 C 
ENDROOT
BRANCH   1   2
ATOM      2  C   UNL     1      34.221 -14.765 -21.770  0.00  0.00    -0.016 C 
ATOM      3  C   UNL     1      32.384 -12.685 -22.053  0.00  0.00    +0.145 C 
ATOM      4  C   UNL     1      34.267 -13.942 -22.896  0.00  0.00    -0.001 C 
ATOM      5  C   UNL     1      33.256 -14.548 -20.786  0.00  0.00    -0.001 C 
ATOM      6  C   UNL     1      33.349 -12.902 -23.037  0.00  0.00    +0.037 C 
ATOM      7  C   UNL     1      32.338 -13.507 -20.928  0.00  0.00    +0.037 C 
BRANCH   3   8
ATOM      8  O   UNL     1      31.488 -11.670 -22.192  0.00  0.00    -0.453 OA
BRANCH   8  10
ATOM      9 BR   UNL     1      32.918  -9.467 -23.880  0.00  0.00    -0.046 Br
ATOM     10  C   UNL     1      31.717 -10.505 -21.479  0.00  0.00    +0.151 C 
ATOM     11  C   UNL     1      32.343  -9.424 -22.075  0.00  0.00    +0.069 C 
ATOM     12  C   UNL     1      31.300 -10.465 -20.160  0.00  0.00    +0.038 C 
ATOM     13  C   UNL     1      32.558  -8.266 -21.327  0.00  0.00    +0.010 C 
ATOM     14  C   UNL     1      31.515  -9.306 -19.413  0.00  0.00    +0.003 C 
ATOM     15  C   UNL     1      32.144  -8.207 -19.997  0.00  0.00    +0.001 C 
ENDBRANCH   8  10
ENDBRANCH   3   8
ENDBRANCH   1   2
BRANCH   1  16
ATOM     16  CA  UNL     1      35.021 -17.120 -22.061  0.00  0.00    +0.108 C 
ATOM     17  O   UNL     1      34.685 -19.841 -22.859  0.00  0.00    -0.270 OA
ATOM     18  N   UNL     1      34.888 -18.195 -21.228  0.00  0.00    -0.278 N 
ATOM     19  C   UNL     1      34.727 -19.496 -21.680  0.00  0.00    +0.249 C 
ATOM     20  H   UNL     1      34.907 -18.037 -20.256  0.00  0.00    +0.155 HD
BRANCH  19  21
ATOM     21  C   UNL     1      34.623 -20.534 -20.622  0.00  0.00    +0.054 C 
ATOM     22  C   UNL     1      33.370 -20.941 -20.210  0.00  0.00    +0.005 C 
ATOM     23  C   UNL     1      35.780 -21.060 -20.088  0.00  0.00    +0.005 C 
ATOM     24  C   UNL     1      33.272 -21.915 -19.218  0.00  0.00    +0.000 C 
ATOM     25  C   UNL     1      35.681 -22.035 -19.095  0.00  0.00    +0.000 C 
ATOM     26  C   UNL     1      34.426 -22.463 -18.660  0.00  0.00    +0.000 C 
ENDBRANCH  19  21
BRANCH  16  28
ATOM     27  OXT UNL     1      34.083 -17.101 -24.282  0.00  0.00    -0.244 OA
ATOM     28  C   UNL     1      35.010 -17.360 -23.529  0.00  0.00    +0.348 C 
BRANCH  28  29
ATOM     29  O   UNL     1      36.176 -17.915 -23.937  0.00  0.00    -0.476 OA
ATOM     30  H   UNL     1      36.167 -18.655 -24.512  0.00  0.00    +0.295 HD
ENDBRANCH  28  29
ENDBRANCH  16  28
ENDBRANCH   1  16
TORSDOF 7
ENDMDL
MODEL 7
REMARK VINA RESULT:     -10.4      6.994     12.204
REMARK  Name = 657131
REMARK  7 active torsions:
REMARK  status: ('A' for Active; 'I' for Inactive)
REMARK    1  A    between atoms: C_1  and  CA_2
REMARK    2  A    between atoms: C_1  and  C_3
REMARK    3  A    between atoms: CA_2  and  C_28
REMARK    4  A    between atoms: C_4  and  O_9
REMARK    5  A    between atoms: O_9  and  C_11
REMARK    6  A    between atoms: C_19  and  C_21
REMARK    7  A    between atoms: C_28  and  O_29
REMARK                            x       y       z     vdW  Elec       q    Type
REMARK                         _______ _______ _______ _____ _____    ______ ____
ROOT
ATOM      1  C   UNL     1      36.023 -21.951 -19.925  0.00  0.00    +0.074 C 
ENDROOT
BRANCH   1   2
ATOM      2  C   UNL     1      35.915 -20.623 -20.505  0.00  0.00    -0.016 C 
ATOM      3  C   UNL     1      35.705 -18.074 -21.619  0.00  0.00    +0.145 C 
ATOM      4  C   UNL     1      37.057 -19.843 -20.684  0.00  0.00    -0.001 C 
ATOM      5  C   UNL     1      34.667 -20.128 -20.885  0.00  0.00    -0.001 C 
ATOM      6  C   UNL     1      36.953 -18.568 -21.241  0.00  0.00    +0.037 C 
ATOM      7  C   UNL     1      34.562 -18.853 -21.442  0.00  0.00    +0.037 C 
BRANCH   3   8
ATOM      8  O   UNL     1      35.603 -16.831 -22.164  0.00  0.00    -0.453 OA
BRANCH   8  10
ATOM      9 BR   UNL     1      34.176 -14.072 -22.483  0.00  0.00    -0.046 Br
ATOM     10  C   UNL     1      34.926 -16.707 -23.366  0.00  0.00    +0.151 C 
ATOM     11  C   UNL     1      34.237 -15.546 -23.672  0.00  0.00    +0.069 C 
ATOM     12  C   UNL     1      34.965 -17.779 -24.241  0.00  0.00    +0.038 C 
ATOM     13  C   UNL     1      33.566 -15.455 -24.892  0.00  0.00    +0.010 C 
ATOM     14  C   UNL     1      34.295 -17.687 -25.461  0.00  0.00    +0.003 C 
ATOM     15  C   UNL     1      33.595 -16.525 -25.786  0.00  0.00    +0.001 C 
ENDBRANCH   8  10
ENDBRANCH   3   8
ENDBRANCH   1   2
BRANCH   1  16
ATOM     16  CA  UNL     1      35.216 -22.478 -18.975  0.00  0.00    +0.108 C 
ATOM     17  O   UNL     1      33.615 -23.571 -16.880  0.00  0.00    -0.270 OA
ATOM     18  N   UNL     1      35.600 -22.656 -17.675  0.00  0.00    -0.278 N 
ATOM     19  C   UNL     1      34.772 -23.194 -16.702  0.00  0.00    +0.249 C 
ATOM     20  H   UNL     1      36.511 -22.388 -17.416  0.00  0.00    +0.155 HD
BRANCH  19  21
ATOM     21  C   UNL     1      35.374 -23.332 -15.351  0.00  0.00    +0.054 C 
ATOM     22  C   UNL     1      36.650 -22.852 -15.140  0.00  0.00    +0.005 C 
ATOM     23  C   UNL     1      34.638 -23.931 -14.351  0.00  0.00    +0.005 C 
ATOM     24  C   UNL     1      37.216 -22.980 -13.872  0.00  0.00    +0.000 C 
ATOM     25  C   UNL     1      35.203 -24.058 -13.082  0.00  0.00    +0.000 C 
ATOM     26  C   UNL     1      36.493 -23.583 -12.843  0.00  0.00    +0.000 C 
ENDBRANCH  19  21
BRANCH  16  28
ATOM     27  OXT UNL     1      32.852 -22.189 -19.346  0.00  0.00    -0.244 OA
ATOM     28  C   UNL     1      33.846 -22.899 -19.370  0.00  0.00    +0.348 C 
BRANCH  28  29
ATOM     29  O   UNL     1      33.834 -24.194 -19.766  0.00  0.00    -0.476 OA
ATOM     30  H   UNL     1      33.031 -24.676 -19.766  0.00  0.00    +0.295 HD
ENDBRANCH  28  29
ENDBRANCH  16  28
ENDBRANCH   1  16
TORSDOF 7
ENDMDL
MODEL 8
REMARK VINA RESULT:     -10.3      8.019     12.906
REMARK  Name = 657131
REMARK  7 active torsions:
REMARK  status: ('A' for Active; 'I' for Inactive)
REMARK    1  A    between atoms: C_1  and  CA_2
REMARK    2  A    between atoms: C_1  and  C_3
REMARK    3  A    between atoms: CA_2  and  C_28
REMARK    4  A    between atoms: C_4  and  O_9
REMARK    5  A    between atoms: O_9  and  C_11
REMARK    6  A    between atoms: C_19  and  C_21
REMARK    7  A    between atoms: C_28  and  O_29
REMARK                            x       y       z     vdW  Elec       q    Type
REMARK                         _______ _______ _______ _____ _____    ______ ____
ROOT
ATOM      1  C   UNL     1      36.846 -22.384 -17.354  0.00  0.00    +0.074 C 
ENDROOT
BRANCH   1   2
ATOM      2  C   UNL     1      36.219 -21.826 -18.541  0.00  0.00    -0.016 C 
ATOM      3  C   UNL     1      35.014 -20.756 -20.818  0.00  0.00    +0.145 C 
ATOM      4  C   UNL     1      36.980 -21.102 -19.458  0.00  0.00    -0.001 C 
ATOM      5  C   UNL     1      34.855 -22.016 -18.763  0.00  0.00    -0.001 C 
ATOM      6  C   UNL     1      36.378 -20.566 -20.597  0.00  0.00    +0.037 C 
ATOM      7  C   UNL     1      34.253 -21.480 -19.902  0.00  0.00    +0.037 C 
BRANCH   3   8
ATOM      8  O   UNL     1      34.428 -20.235 -21.930  0.00  0.00    -0.453 OA
BRANCH   8  10
ATOM      9 BR   UNL     1      34.355 -19.686 -25.002  0.00  0.00    -0.046 Br
ATOM     10  C   UNL     1      34.712 -18.918 -22.251  0.00  0.00    +0.151 C 
ATOM     11  C   UNL     1      34.723 -18.500 -23.571  0.00  0.00    +0.069 C 
ATOM     12  C   UNL     1      34.982 -18.045 -21.212  0.00  0.00    +0.038 C 
ATOM     13  C   UNL     1      35.013 -17.166 -23.860  0.00  0.00    +0.010 C 
ATOM     14  C   UNL     1      35.272 -16.711 -21.502  0.00  0.00    +0.003 C 
ATOM     15  C   UNL     1      35.288 -16.272 -22.825  0.00  0.00    +0.001 C 
ENDBRANCH   8  10
ENDBRANCH   3   8
ENDBRANCH   1   2
BRANCH   1  16
ATOM     16  CA  UNL     1      36.212 -23.002 -16.330  0.00  0.00    +0.108 C 
ATOM     17  O   UNL     1      34.757 -24.270 -14.226  0.00  0.00    -0.270 OA
ATOM     18  N   UNL     1      34.852 -23.042 -16.199  0.00  0.00    -0.278 N 
ATOM     19  C   UNL     1      34.204 -23.677 -15.151  0.00  0.00    +0.249 C 
ATOM     20  H   UNL     1      34.304 -22.598 -16.886  0.00  0.00    +0.155 HD
BRANCH  19  21
ATOM     21  C   UNL     1      32.721 -23.593 -15.168  0.00  0.00    +0.054 C 
ATOM     22  C   UNL     1      32.085 -23.304 -16.357  0.00  0.00    +0.005 C 
ATOM     23  C   UNL     1      32.028 -23.809 -13.995  0.00  0.00    +0.005 C 
ATOM     24  C   UNL     1      30.693 -23.226 -16.374  0.00  0.00    +0.000 C 
ATOM     25  C   UNL     1      30.636 -23.730 -14.012  0.00  0.00    +0.000 C 
ATOM     26  C   UNL     1      29.968 -23.438 -15.202  0.00  0.00    +0.000 C 
ENDBRANCH  19  21
BRANCH  16  28
ATOM     27  OXT UNL     1      37.564 -23.093 -14.336  0.00  0.00    -0.244 OA
ATOM     28  C   UNL     1      37.040 -23.659 -15.284  0.00  0.00    +0.348 C 
BRANCH  28  29
ATOM     29  O   UNL     1      37.147 -24.989 -15.516  0.00  0.00    -0.476 OA
ATOM     30  H   UNL     1      37.458 -25.297 -16.345  0.00  0.00    +0.295 HD
ENDBRANCH  28  29
ENDBRANCH  16  28
ENDBRANCH   1  16
TORSDOF 7
ENDMDL
MODEL 9
REMARK VINA RESULT:     -10.0      7.935     12.759
REMARK  Name = 657131
REMARK  7 active torsions:
REMARK  status: ('A' for Active; 'I' for Inactive)
REMARK    1  A    between atoms: C_1  and  CA_2
REMARK    2  A    between atoms: C_1  and  C_3
REMARK    3  A    between atoms: CA_2  and  C_28
REMARK    4  A    between atoms: C_4  and  O_9
REMARK    5  A    between atoms: O_9  and  C_11
REMARK    6  A    between atoms: C_19  and  C_21
REMARK    7  A    between atoms: C_28  and  O_29
REMARK                            x       y       z     vdW  Elec       q    Type
REMARK                         _______ _______ _______ _____ _____    ______ ____
ROOT
ATOM      1  C   UNL     1      33.769 -23.239 -18.803  0.00  0.00    +0.074 C 
ENDROOT
BRANCH   1   2
ATOM      2  C   UNL     1      34.251 -22.081 -19.538  0.00  0.00    -0.016 C 
ATOM      3  C   UNL     1      35.177 -19.859 -20.948  0.00  0.00    +0.145 C 
ATOM      4  C   UNL     1      33.344 -21.200 -20.127  0.00  0.00    -0.001 C 
ATOM      5  C   UNL     1      35.622 -21.850 -19.654  0.00  0.00    -0.001 C 
ATOM      6  C   UNL     1      33.807 -20.089 -20.832  0.00  0.00    +0.037 C 
ATOM      7  C   UNL     1      36.085 -20.738 -20.359  0.00  0.00    +0.037 C 
BRANCH   3   8
ATOM      8  O   UNL     1      35.629 -18.774 -21.635  0.00  0.00    -0.453 OA
BRANCH   8  10
ATOM      9 BR   UNL     1      35.055 -15.766 -22.243  0.00  0.00    -0.046 Br
ATOM     10  C   UNL     1      35.130 -18.566 -22.910  0.00  0.00    +0.151 C 
ATOM     11  C   UNL     1      34.820 -17.289 -23.347  0.00  0.00    +0.069 C 
ATOM     12  C   UNL     1      34.956 -19.672 -23.723  0.00  0.00    +0.038 C 
ATOM     13  C   UNL     1      34.320 -17.115 -24.637  0.00  0.00    +0.010 C 
ATOM     14  C   UNL     1      34.456 -19.497 -25.013  0.00  0.00    +0.003 C 
ATOM     15  C   UNL     1      34.138 -18.218 -25.470  0.00  0.00    +0.001 C 
ENDBRANCH   8  10
ENDBRANCH   3   8
ENDBRANCH   1   2
BRANCH   1  16
ATOM     16  CA  UNL     1      33.402 -23.264 -17.501  0.00  0.00    +0.108 C 
ATOM     17  O   UNL     1      32.758 -23.330 -14.721  0.00  0.00    -0.270 OA
ATOM     18  N   UNL     1      34.289 -23.402 -16.470  0.00  0.00    -0.278 N 
ATOM     19  C   UNL     1      33.911 -23.426 -15.137  0.00  0.00    +0.249 C 
ATOM     20  H   UNL     1      35.245 -23.487 -16.686  0.00  0.00    +0.155 HD
BRANCH  19  21
ATOM     21  C   UNL     1      35.016 -23.607 -14.160  0.00  0.00    +0.054 C 
ATOM     22  C   UNL     1      34.722 -24.105 -12.907  0.00  0.00    +0.005 C 
ATOM     23  C   UNL     1      36.299 -23.274 -14.538  0.00  0.00    +0.005 C 
ATOM     24  C   UNL     1      35.758 -24.275 -11.991  0.00  0.00    +0.000 C 
ATOM     25  C   UNL     1      37.337 -23.444 -13.620  0.00  0.00    +0.000 C 
ATOM     26  C   UNL     1      37.066 -23.945 -12.347  0.00  0.00    +0.000 C 
ENDBRANCH  19  21
BRANCH  16  28
ATOM     27  OXT UNL     1      31.235 -22.207 -17.463  0.00  0.00    -0.244 OA
ATOM     28  C   UNL     1      31.955 -23.152 -17.176  0.00  0.00    +0.348 C 
BRANCH  28  29
ATOM     29  O   UNL     1      31.523 -24.249 -16.508  0.00  0.00    -0.476 OA
ATOM     30  H   UNL     1      30.926 -24.156 -15.792  0.00  0.00    +0.295 HD
ENDBRANCH  28  29
ENDBRANCH  16  28
ENDBRANCH   1  16
TORSDOF 7
ENDMDL
