MODEL 1
REMARK VINA RESULT:     -11.5      0.000      0.000
REMARK  Name = 10361208
REMARK  3 active torsions:
REMARK  status: ('A' for Active; 'I' for Inactive)
REMARK    1  A    between atoms: N_1  and  C_12
REMARK    2  A    between atoms: C_10  and  C_18
REMARK    3  A    between atoms: C_21  and  C_27
REMARK                            x       y       z     vdW  Elec       q    Type
REMARK                         _______ _______ _______ _____ _____    ______ ____
ROOT
ATOM      1  N   UNL     1      35.254 -24.776 -14.510  0.00  0.00    -0.318 N 
ATOM      2  N   UNL     1      34.265 -23.633 -16.240  0.00  0.00    -0.147 NA
ATOM      3  N   UNL     1      33.087 -23.243 -16.789  0.00  0.00    -0.190 N 
ATOM      4  N   UNL     1      30.939 -22.955 -17.137  0.00  0.00    -0.127 NA
ATOM      5  N   UNL     1      31.634 -22.324 -18.149  0.00  0.00    -0.127 NA
ATOM      6  C   UNL     1      34.151 -24.338 -15.138  0.00  0.00    +0.149 C 
ATOM      7  C   UNL     1      32.815 -24.684 -14.536  0.00  0.00    +0.039 C 
ATOM      8  C   UNL     1      31.819 -23.502 -16.327  0.00  0.00    +0.187 A 
ATOM      9  C   UNL     1      31.703 -24.259 -15.146  0.00  0.00    +0.044 C 
ATOM     10  C   UNL     1      32.916 -22.508 -17.925  0.00  0.00    +0.187 A 
ATOM     11  H   UNL     1      35.147 -25.317 -13.694  0.00  0.00    +0.148 HD
ENDROOT
BRANCH   1  12
ATOM     12  C   UNL     1      36.595 -24.488 -14.982  0.00  0.00    +0.070 C 
ATOM     13  C   UNL     1      37.248 -23.425 -14.092  0.00  0.00    +0.020 C 
ATOM     14  C   UNL     1      37.425 -25.775 -15.023  0.00  0.00    +0.020 C 
ATOM     15  C   UNL     1      37.604 -23.955 -12.702  0.00  0.00    +0.002 C 
ATOM     16  C   UNL     1      37.780 -26.296 -13.630  0.00  0.00    +0.002 C 
ATOM     17  C   UNL     1      38.451 -25.220 -12.781  0.00  0.00    +0.000 C 
ENDBRANCH   1  12
BRANCH  10  18
ATOM     18  C   UNL     1      34.002 -22.016 -18.738  0.00  0.00    +0.038 C 
ATOM     19  C   UNL     1      33.739 -21.171 -19.817  0.00  0.00    +0.007 C 
ATOM     20  C   UNL     1      35.314 -22.387 -18.446  0.00  0.00    +0.003 C 
ATOM     21  C   UNL     1      34.789 -20.697 -20.602  0.00  0.00    +0.072 C 
ATOM     22  C   UNL     1      36.365 -21.913 -19.232  0.00  0.00    +0.000 C 
ATOM     23  C   UNL     1      36.101 -21.067 -20.311  0.00  0.00    +0.004 C 
BRANCH  21  27
ATOM     24  F   UNL     1      34.852 -18.491 -21.524  0.00  0.00    -0.166 F 
ATOM     25  F   UNL     1      35.175 -20.139 -22.896  0.00  0.00    -0.166 F 
ATOM     26  F   UNL     1      33.188 -19.769 -22.096  0.00  0.00    -0.166 F 
ATOM     27  C   UNL     1      34.510 -19.792 -21.755  0.00  0.00    +0.419 C 
ENDBRANCH  21  27
ENDBRANCH  10  18
TORSDOF 3
ENDMDL
MODEL 2
REMARK VINA RESULT:     -11.2      3.370      5.349
REMARK  Name = 10361208
REMARK  3 active torsions:
REMARK  status: ('A' for Active; 'I' for Inactive)
REMARK    1  A    between atoms: N_1  and  C_12
REMARK    2  A    between atoms: C_10  and  C_18
REMARK    3  A    between atoms: C_21  and  C_27
REMARK                            x       y       z     vdW  Elec       q    Type
REMARK                         _______ _______ _______ _____ _____    ______ ____
ROOT
ATOM      1  N   UNL     1      36.967 -23.089 -14.569  0.00  0.00    -0.318 N 
ATOM      2  N   UNL     1      35.046 -23.074 -15.829  0.00  0.00    -0.147 NA
ATOM      3  N   UNL     1      34.516 -22.811 -17.050  0.00  0.00    -0.190 N 
ATOM      4  N   UNL     1      34.310 -22.225 -19.156  0.00  0.00    -0.127 NA
ATOM      5  N   UNL     1      33.069 -22.597 -18.682  0.00  0.00    -0.127 NA
ATOM      6  C   UNL     1      36.338 -22.862 -15.733  0.00  0.00    +0.149 C 
ATOM      7  C   UNL     1      37.163 -22.366 -16.891  0.00  0.00    +0.039 C 
ATOM      8  C   UNL     1      35.172 -22.358 -18.169  0.00  0.00    +0.187 A 
ATOM      9  C   UNL     1      36.556 -22.132 -18.061  0.00  0.00    +0.044 C 
ATOM     10  C   UNL     1      33.211 -22.943 -17.422  0.00  0.00    +0.187 A 
ATOM     11  H   UNL     1      37.933 -22.909 -14.513  0.00  0.00    +0.148 HD
ENDROOT
BRANCH   1  12
ATOM     12  C   UNL     1      36.284 -23.588 -13.390  0.00  0.00    +0.070 C 
ATOM     13  C   UNL     1      35.952 -25.073 -13.564  0.00  0.00    +0.020 C 
ATOM     14  C   UNL     1      37.141 -23.344 -12.144  0.00  0.00    +0.020 C 
ATOM     15  C   UNL     1      37.191 -25.967 -13.504  0.00  0.00    +0.002 C 
ATOM     16  C   UNL     1      38.376 -24.244 -12.090  0.00  0.00    +0.002 C 
ATOM     17  C   UNL     1      38.006 -25.717 -12.240  0.00  0.00    +0.000 C 
ENDBRANCH   1  12
BRANCH  10  18
ATOM     18  C   UNL     1      32.163 -23.400 -16.541  0.00  0.00    +0.038 C 
ATOM     19  C   UNL     1      30.826 -23.254 -16.912  0.00  0.00    +0.007 C 
ATOM     20  C   UNL     1      32.488 -23.987 -15.319  0.00  0.00    +0.003 C 
ATOM     21  C   UNL     1      29.815 -23.695 -16.060  0.00  0.00    +0.072 C 
ATOM     22  C   UNL     1      31.476 -24.428 -14.466  0.00  0.00    +0.000 C 
ATOM     23  C   UNL     1      30.139 -24.282 -14.837  0.00  0.00    +0.004 C 
BRANCH  21  27
ATOM     24  F   UNL     1      27.555 -23.255 -15.409  0.00  0.00    -0.166 F 
ATOM     25  F   UNL     1      28.172 -22.543 -17.363  0.00  0.00    -0.166 F 
ATOM     26  F   UNL     1      27.874 -24.671 -17.028  0.00  0.00    -0.166 F 
ATOM     27  C   UNL     1      28.384 -23.542 -16.455  0.00  0.00    +0.419 C 
ENDBRANCH  21  27
ENDBRANCH  10  18
TORSDOF 3
ENDMDL
MODEL 3
REMARK VINA RESULT:     -10.5      2.158      2.703
REMARK  Name = 10361208
REMARK  3 active torsions:
REMARK  status: ('A' for Active; 'I' for Inactive)
REMARK    1  A    between atoms: N_1  and  C_12
REMARK    2  A    between atoms: C_10  and  C_18
REMARK    3  A    between atoms: C_21  and  C_27
REMARK                            x       y       z     vdW  Elec       q    Type
REMARK                         _______ _______ _______ _____ _____    ______ ____
ROOT
ATOM      1  N   UNL     1      34.777 -24.856 -13.548  0.00  0.00    -0.318 N 
ATOM      2  N   UNL     1      33.594 -23.956 -15.300  0.00  0.00    -0.147 NA
ATOM      3  N   UNL     1      32.358 -23.742 -15.817  0.00  0.00    -0.190 N 
ATOM      4  N   UNL     1      30.179 -23.724 -16.081  0.00  0.00    -0.127 NA
ATOM      5  N   UNL     1      30.756 -23.091 -17.163  0.00  0.00    -0.127 NA
ATOM      6  C   UNL     1      33.606 -24.591 -14.150  0.00  0.00    +0.149 C 
ATOM      7  C   UNL     1      32.345 -25.043 -13.464  0.00  0.00    +0.039 C 
ATOM      8  C   UNL     1      31.148 -24.110 -15.279  0.00  0.00    +0.187 A 
ATOM      9  C   UNL     1      31.168 -24.790 -14.047  0.00  0.00    +0.044 C 
ATOM     10  C   UNL     1      32.058 -23.112 -16.989  0.00  0.00    +0.187 A 
ATOM     11  H   UNL     1      34.766 -25.347 -12.694  0.00  0.00    +0.148 HD
ENDROOT
BRANCH   1  12
ATOM     12  C   UNL     1      36.056 -24.451 -14.100  0.00  0.00    +0.070 C 
ATOM     13  C   UNL     1      36.910 -23.788 -13.015  0.00  0.00    +0.020 C 
ATOM     14  C   UNL     1      36.768 -25.660 -14.717  0.00  0.00    +0.020 C 
ATOM     15  C   UNL     1      37.418 -24.783 -11.971  0.00  0.00    +0.002 C 
ATOM     16  C   UNL     1      37.275 -26.647 -13.666  0.00  0.00    +0.002 C 
ATOM     17  C   UNL     1      38.143 -25.958 -12.618  0.00  0.00    +0.000 C 
ENDBRANCH   1  12
BRANCH  10  18
ATOM     18  C   UNL     1      33.046 -22.559 -17.883  0.00  0.00    +0.038 C 
ATOM     19  C   UNL     1      34.394 -22.568 -17.526  0.00  0.00    +0.007 C 
ATOM     20  C   UNL     1      32.651 -22.013 -19.104  0.00  0.00    +0.003 C 
ATOM     21  C   UNL     1      35.348 -22.032 -18.391  0.00  0.00    +0.072 C 
ATOM     22  C   UNL     1      33.605 -21.476 -19.969  0.00  0.00    +0.000 C 
ATOM     23  C   UNL     1      34.954 -21.486 -19.612  0.00  0.00    +0.004 C 
BRANCH  21  27
ATOM     24  F   UNL     1      37.232 -20.855 -17.504  0.00  0.00    -0.166 F 
ATOM     25  F   UNL     1      37.099 -22.973 -17.060  0.00  0.00    -0.166 F 
ATOM     26  F   UNL     1      37.609 -22.317 -19.069  0.00  0.00    -0.166 F 
ATOM     27  C   UNL     1      36.791 -22.043 -18.011  0.00  0.00    +0.419 C 
ENDBRANCH  21  27
ENDBRANCH  10  18
TORSDOF 3
ENDMDL
MODEL 4
REMARK VINA RESULT:     -10.4      4.413      7.340
REMARK  Name = 10361208
REMARK  3 active torsions:
REMARK  status: ('A' for Active; 'I' for Inactive)
REMARK    1  A    between atoms: N_1  and  C_12
REMARK    2  A    between atoms: C_10  and  C_18
REMARK    3  A    between atoms: C_21  and  C_27
REMARK                            x       y       z     vdW  Elec       q    Type
REMARK                         _______ _______ _______ _____ _____    ______ ____
ROOT
ATOM      1  N   UNL     1      31.731 -23.440 -17.025  0.00  0.00    -0.318 N 
ATOM      2  N   UNL     1      33.985 -23.204 -16.650  0.00  0.00    -0.147 NA
ATOM      3  N   UNL     1      35.157 -22.746 -17.157  0.00  0.00    -0.190 N 
ATOM      4  N   UNL     1      36.641 -21.834 -18.493  0.00  0.00    -0.127 NA
ATOM      5  N   UNL     1      37.286 -22.261 -17.350  0.00  0.00    -0.127 NA
ATOM      6  C   UNL     1      32.942 -23.024 -17.428  0.00  0.00    +0.149 C 
ATOM      7  C   UNL     1      33.045 -22.360 -18.775  0.00  0.00    +0.039 C 
ATOM      8  C   UNL     1      35.364 -22.129 -18.366  0.00  0.00    +0.187 A 
ATOM      9  C   UNL     1      34.243 -21.939 -19.196  0.00  0.00    +0.044 C 
ATOM     10  C   UNL     1      36.384 -22.804 -16.564  0.00  0.00    +0.187 A 
ATOM     11  H   UNL     1      30.964 -23.310 -17.630  0.00  0.00    +0.148 HD
ENDROOT
BRANCH   1  12
ATOM     12  C   UNL     1      31.502 -24.073 -15.740  0.00  0.00    +0.070 C 
ATOM     13  C   UNL     1      30.978 -23.044 -14.734  0.00  0.00    +0.020 C 
ATOM     14  C   UNL     1      30.535 -25.250 -15.899  0.00  0.00    +0.020 C 
ATOM     15  C   UNL     1      29.543 -22.606 -15.030  0.00  0.00    +0.002 C 
ATOM     16  C   UNL     1      29.102 -24.803 -16.190  0.00  0.00    +0.002 C 
ATOM     17  C   UNL     1      28.603 -23.800 -15.155  0.00  0.00    +0.000 C 
ENDBRANCH   1  12
BRANCH  10  18
ATOM     18  C   UNL     1      36.625 -23.380 -15.262  0.00  0.00    +0.038 C 
ATOM     19  C   UNL     1      37.655 -24.304 -15.088  0.00  0.00    +0.007 C 
ATOM     20  C   UNL     1      35.826 -23.013 -14.180  0.00  0.00    +0.003 C 
ATOM     21  C   UNL     1      37.886 -24.861 -13.831  0.00  0.00    +0.072 C 
ATOM     22  C   UNL     1      36.057 -23.571 -12.922  0.00  0.00    +0.000 C 
ATOM     23  C   UNL     1      37.088 -24.495 -12.748  0.00  0.00    +0.004 C 
BRANCH  21  27
ATOM     24  F   UNL     1      39.005 -26.837 -14.585  0.00  0.00    -0.166 F 
ATOM     25  F   UNL     1      40.235 -25.292 -13.689  0.00  0.00    -0.166 F 
ATOM     26  F   UNL     1      38.918 -26.490 -12.440  0.00  0.00    -0.166 F 
ATOM     27  C   UNL     1      38.989 -25.849 -13.643  0.00  0.00    +0.419 C 
ENDBRANCH  21  27
ENDBRANCH  10  18
TORSDOF 3
ENDMDL
MODEL 5
REMARK VINA RESULT:      -9.6      4.383      7.449
REMARK  Name = 10361208
REMARK  3 active torsions:
REMARK  status: ('A' for Active; 'I' for Inactive)
REMARK    1  A    between atoms: N_1  and  C_12
REMARK    2  A    between atoms: C_10  and  C_18
REMARK    3  A    between atoms: C_21  and  C_27
REMARK                            x       y       z     vdW  Elec       q    Type
REMARK                         _______ _______ _______ _____ _____    ______ ____
ROOT
ATOM      1  N   UNL     1      31.717 -23.592 -16.848  0.00  0.00    -0.318 N 
ATOM      2  N   UNL     1      33.973 -23.599 -16.410  0.00  0.00    -0.147 NA
ATOM      3  N   UNL     1      35.190 -23.173 -16.830  0.00  0.00    -0.190 N 
ATOM      4  N   UNL     1      36.777 -22.210 -18.003  0.00  0.00    -0.127 NA
ATOM      5  N   UNL     1      37.356 -22.844 -16.923  0.00  0.00    -0.127 NA
ATOM      6  C   UNL     1      32.968 -23.226 -17.170  0.00  0.00    +0.149 C 
ATOM      7  C   UNL     1      33.159 -22.391 -18.408  0.00  0.00    +0.039 C 
ATOM      8  C   UNL     1      35.478 -22.412 -17.938  0.00  0.00    +0.187 A 
ATOM      9  C   UNL     1      34.398 -22.016 -18.748  0.00  0.00    +0.044 C 
ATOM     10  C   UNL     1      36.393 -23.415 -16.234  0.00  0.00    +0.187 A 
ATOM     11  H   UNL     1      30.979 -23.315 -17.439  0.00  0.00    +0.148 HD
ENDROOT
BRANCH   1  12
ATOM     12  C   UNL     1      31.406 -24.377 -15.669  0.00  0.00    +0.070 C 
ATOM     13  C   UNL     1      30.978 -23.456 -14.522  0.00  0.00    +0.020 C 
ATOM     14  C   UNL     1      30.322 -25.409 -15.996  0.00  0.00    +0.020 C 
ATOM     15  C   UNL     1      29.601 -22.829 -14.749  0.00  0.00    +0.002 C 
ATOM     16  C   UNL     1      28.948 -24.775 -16.217  0.00  0.00    +0.002 C 
ATOM     17  C   UNL     1      28.543 -23.886 -15.046  0.00  0.00    +0.000 C 
ENDBRANCH   1  12
BRANCH  10  18
ATOM     18  C   UNL     1      36.553 -24.186 -15.024  0.00  0.00    +0.038 C 
ATOM     19  C   UNL     1      36.259 -23.613 -13.787  0.00  0.00    +0.007 C 
ATOM     20  C   UNL     1      37.004 -25.504 -15.093  0.00  0.00    +0.003 C 
ATOM     21  C   UNL     1      36.414 -24.359 -12.619  0.00  0.00    +0.072 C 
ATOM     22  C   UNL     1      37.161 -26.250 -13.925  0.00  0.00    +0.000 C 
ATOM     23  C   UNL     1      36.865 -25.676 -12.687  0.00  0.00    +0.004 C 
BRANCH  21  27
ATOM     24  F   UNL     1      36.264 -24.604 -10.244  0.00  0.00    -0.166 F 
ATOM     25  F   UNL     1      36.870 -22.662 -10.996  0.00  0.00    -0.166 F 
ATOM     26  F   UNL     1      34.807 -23.313 -11.214  0.00  0.00    -0.166 F 
ATOM     27  C   UNL     1      36.098 -23.748 -11.295  0.00  0.00    +0.419 C 
ENDBRANCH  21  27
ENDBRANCH  10  18
TORSDOF 3
ENDMDL
MODEL 6
REMARK VINA RESULT:      -9.5      1.694      4.569
REMARK  Name = 10361208
REMARK  3 active torsions:
REMARK  status: ('A' for Active; 'I' for Inactive)
REMARK    1  A    between atoms: N_1  and  C_12
REMARK    2  A    between atoms: C_10  and  C_18
REMARK    3  A    between atoms: C_21  and  C_27
REMARK                            x       y       z     vdW  Elec       q    Type
REMARK                         _______ _______ _______ _____ _____    ______ ____
ROOT
ATOM      1  N   UNL     1      32.596 -23.970 -14.706  0.00  0.00    -0.318 N 
ATOM      2  N   UNL     1      34.087 -23.149 -16.249  0.00  0.00    -0.147 NA
ATOM      3  N   UNL     1      35.399 -22.986 -16.554  0.00  0.00    -0.190 N 
ATOM      4  N   UNL     1      37.591 -23.040 -16.447  0.00  0.00    -0.127 NA
ATOM      5  N   UNL     1      37.226 -22.417 -17.622  0.00  0.00    -0.127 NA
ATOM      6  C   UNL     1      33.859 -23.756 -15.107  0.00  0.00    +0.149 C 
ATOM      7  C   UNL     1      34.971 -24.232 -14.211  0.00  0.00    +0.039 C 
ATOM      8  C   UNL     1      36.487 -23.379 -15.814  0.00  0.00    +0.187 A 
ATOM      9  C   UNL     1      36.238 -24.028 -14.591  0.00  0.00    +0.044 C 
ATOM     10  C   UNL     1      35.913 -22.392 -17.669  0.00  0.00    +0.187 A 
ATOM     11  H   UNL     1      32.446 -24.413 -13.839  0.00  0.00    +0.148 HD
ENDROOT
BRANCH   1  12
ATOM     12  C   UNL     1      31.443 -23.577 -15.493  0.00  0.00    +0.070 C 
ATOM     13  C   UNL     1      30.896 -24.783 -16.264  0.00  0.00    +0.020 C 
ATOM     14  C   UNL     1      30.374 -22.956 -14.587  0.00  0.00    +0.020 C 
ATOM     15  C   UNL     1      30.213 -25.805 -15.354  0.00  0.00    +0.002 C 
ATOM     16  C   UNL     1      29.694 -23.985 -13.684  0.00  0.00    +0.002 C 
ATOM     17  C   UNL     1      29.139 -25.159 -14.486  0.00  0.00    +0.000 C 
ENDBRANCH   1  12
BRANCH  10  18
ATOM     18  C   UNL     1      35.108 -21.831 -18.728  0.00  0.00    +0.038 C 
ATOM     19  C   UNL     1      35.671 -20.926 -19.627  0.00  0.00    +0.007 C 
ATOM     20  C   UNL     1      33.768 -22.195 -18.851  0.00  0.00    +0.003 C 
ATOM     21  C   UNL     1      34.893 -20.384 -20.650  0.00  0.00    +0.072 C 
ATOM     22  C   UNL     1      32.989 -21.653 -19.874  0.00  0.00    +0.000 C 
ATOM     23  C   UNL     1      33.552 -20.747 -20.773  0.00  0.00    +0.004 C 
BRANCH  21  27
ATOM     24  F   UNL     1      35.076 -18.130 -21.428  0.00  0.00    -0.166 F 
ATOM     25  F   UNL     1      36.857 -19.361 -21.554  0.00  0.00    -0.166 F 
ATOM     26  F   UNL     1      35.196 -19.716 -22.911  0.00  0.00    -0.166 F 
ATOM     27  C   UNL     1      35.494 -19.416 -21.613  0.00  0.00    +0.419 C 
ENDBRANCH  21  27
ENDBRANCH  10  18
TORSDOF 3
ENDMDL
MODEL 7
REMARK VINA RESULT:      -9.4      2.174      5.093
REMARK  Name = 10361208
REMARK  3 active torsions:
REMARK  status: ('A' for Active; 'I' for Inactive)
REMARK    1  A    between atoms: N_1  and  C_12
REMARK    2  A    between atoms: C_10  and  C_18
REMARK    3  A    between atoms: C_21  and  C_27
REMARK                            x       y       z     vdW  Elec       q    Type
REMARK                         _______ _______ _______ _____ _____    ______ ____
ROOT
ATOM      1  N   UNL     1      32.198 -24.571 -14.381  0.00  0.00    -0.318 N 
ATOM      2  N   UNL     1      34.192 -23.713 -15.134  0.00  0.00    -0.147 NA
ATOM      3  N   UNL     1      35.484 -23.452 -14.814  0.00  0.00    -0.190 N 
ATOM      4  N   UNL     1      37.374 -23.305 -13.706  0.00  0.00    -0.127 NA
ATOM      5  N   UNL     1      37.567 -22.787 -14.970  0.00  0.00    -0.127 NA
ATOM      6  C   UNL     1      33.490 -24.270 -14.174  0.00  0.00    +0.149 C 
ATOM      7  C   UNL     1      34.079 -24.592 -12.826  0.00  0.00    +0.039 C 
ATOM      8  C   UNL     1      36.121 -23.703 -13.623  0.00  0.00    +0.187 A 
ATOM      9  C   UNL     1      35.364 -24.299 -12.598  0.00  0.00    +0.044 C 
ATOM     10  C   UNL     1      36.427 -22.882 -15.618  0.00  0.00    +0.187 A 
ATOM     11  H   UNL     1      31.685 -24.973 -13.643  0.00  0.00    +0.148 HD
ENDROOT
BRANCH   1  12
ATOM     12  C   UNL     1      31.526 -24.328 -15.644  0.00  0.00    +0.070 C 
ATOM     13  C   UNL     1      30.461 -25.402 -15.887  0.00  0.00    +0.020 C 
ATOM     14  C   UNL     1      30.920 -22.921 -15.655  0.00  0.00    +0.020 C 
ATOM     15  C   UNL     1      29.255 -25.260 -14.956  0.00  0.00    +0.002 C 
ATOM     16  C   UNL     1      29.713 -22.789 -14.725  0.00  0.00    +0.002 C 
ATOM     17  C   UNL     1      28.662 -23.857 -15.011  0.00  0.00    +0.000 C 
ENDBRANCH   1  12
BRANCH  10  18
ATOM     18  C   UNL     1      36.182 -22.458 -16.975  0.00  0.00    +0.038 C 
ATOM     19  C   UNL     1      34.883 -22.459 -17.483  0.00  0.00    +0.007 C 
ATOM     20  C   UNL     1      37.245 -22.048 -17.779  0.00  0.00    +0.003 C 
ATOM     21  C   UNL     1      34.647 -22.049 -18.795  0.00  0.00    +0.072 C 
ATOM     22  C   UNL     1      37.009 -21.639 -19.092  0.00  0.00    +0.000 C 
ATOM     23  C   UNL     1      35.709 -21.640 -19.600  0.00  0.00    +0.004 C 
BRANCH  21  27
ATOM     24  F   UNL     1      32.293 -22.137 -18.376  0.00  0.00    -0.166 F 
ATOM     25  F   UNL     1      32.950 -20.924 -20.050  0.00  0.00    -0.166 F 
ATOM     26  F   UNL     1      33.026 -23.093 -20.187  0.00  0.00    -0.166 F 
ATOM     27  C   UNL     1      33.258 -22.049 -19.339  0.00  0.00    +0.419 C 
ENDBRANCH  21  27
ENDBRANCH  10  18
TORSDOF 3
ENDMDL
MODEL 8
REMARK VINA RESULT:      -9.0      5.891      9.146
REMARK  Name = 10361208
REMARK  3 active torsions:
REMARK  status: ('A' for Active; 'I' for Inactive)
REMARK    1  A    between atoms: N_1  and  C_12
REMARK    2  A    between atoms: C_10  and  C_18
REMARK    3  A    between atoms: C_21  and  C_27
REMARK                            x       y       z     vdW  Elec       q    Type
REMARK                         _______ _______ _______ _____ _____    ______ ____
ROOT
ATOM      1  N   UNL     1      34.936 -20.062 -22.526  0.00  0.00    -0.318 N 
ATOM      2  N   UNL     1      34.423 -17.959 -23.296  0.00  0.00    -0.147 NA
ATOM      3  N   UNL     1      34.116 -17.217 -24.390  0.00  0.00    -0.190 N 
ATOM      4  N   UNL     1      33.688 -16.626 -26.460  0.00  0.00    -0.127 NA
ATOM      5  N   UNL     1      33.599 -15.506 -25.659  0.00  0.00    -0.127 NA
ATOM      6  C   UNL     1      34.625 -19.234 -23.537  0.00  0.00    +0.149 C 
ATOM      7  C   UNL     1      34.523 -19.821 -24.919  0.00  0.00    +0.039 C 
ATOM      8  C   UNL     1      33.997 -17.647 -25.690  0.00  0.00    +0.187 A 
ATOM      9  C   UNL     1      34.216 -19.014 -25.941  0.00  0.00    +0.044 C 
ATOM     10  C   UNL     1      33.859 -15.878 -24.425  0.00  0.00    +0.187 A 
ATOM     11  H   UNL     1      35.100 -21.012 -22.730  0.00  0.00    +0.148 HD
ENDROOT
BRANCH   1  12
ATOM     12  C   UNL     1      35.042 -19.618 -21.149  0.00  0.00    +0.070 C 
ATOM     13  C   UNL     1      33.808 -20.064 -20.357  0.00  0.00    +0.020 C 
ATOM     14  C   UNL     1      36.335 -20.149 -20.524  0.00  0.00    +0.020 C 
ATOM     15  C   UNL     1      33.779 -21.573 -20.109  0.00  0.00    +0.002 C 
ATOM     16  C   UNL     1      36.296 -21.658 -20.275  0.00  0.00    +0.002 C 
ATOM     17  C   UNL     1      35.070 -22.063 -19.462  0.00  0.00    +0.000 C 
ENDBRANCH   1  12
BRANCH  10  18
ATOM     18  C   UNL     1      33.875 -15.022 -23.263  0.00  0.00    +0.038 C 
ATOM     19  C   UNL     1      33.011 -13.930 -23.188  0.00  0.00    +0.007 C 
ATOM     20  C   UNL     1      34.756 -15.288 -22.215  0.00  0.00    +0.003 C 
ATOM     21  C   UNL     1      33.028 -13.104 -22.065  0.00  0.00    +0.072 C 
ATOM     22  C   UNL     1      34.774 -14.461 -21.092  0.00  0.00    +0.000 C 
ATOM     23  C   UNL     1      33.909 -13.369 -21.017  0.00  0.00    +0.004 C 
BRANCH  21  27
ATOM     24  F   UNL     1      32.379 -10.955 -22.892  0.00  0.00    -0.166 F 
ATOM     25  F   UNL     1      30.794 -12.260 -22.194  0.00  0.00    -0.166 F 
ATOM     26  F   UNL     1      32.137 -11.325 -20.763  0.00  0.00    -0.166 F 
ATOM     27  C   UNL     1      32.104 -11.936 -21.983  0.00  0.00    +0.419 C 
ENDBRANCH  21  27
ENDBRANCH  10  18
TORSDOF 3
ENDMDL
MODEL 9
REMARK VINA RESULT:      -8.7     11.082     14.388
REMARK  Name = 10361208
REMARK  3 active torsions:
REMARK  status: ('A' for Active; 'I' for Inactive)
REMARK    1  A    between atoms: N_1  and  C_12
REMARK    2  A    between atoms: C_10  and  C_18
REMARK    3  A    between atoms: C_21  and  C_27
REMARK                            x       y       z     vdW  Elec       q    Type
REMARK                         _______ _______ _______ _____ _____    ______ ____
ROOT
ATOM      1  N   UNL     1      31.823  -8.264 -22.382  0.00  0.00    -0.318 N 
ATOM      2  N   UNL     1      32.267 -10.518 -22.413  0.00  0.00    -0.147 NA
ATOM      3  N   UNL     1      32.331 -11.651 -21.670  0.00  0.00    -0.190 N 
ATOM      4  N   UNL     1      32.247 -13.048 -19.979  0.00  0.00    -0.127 NA
ATOM      5  N   UNL     1      32.620 -13.750 -21.107  0.00  0.00    -0.127 NA
ATOM      6  C   UNL     1      31.918  -9.442 -21.745  0.00  0.00    +0.149 C 
ATOM      7  C   UNL     1      31.613  -9.471 -20.271  0.00  0.00    +0.039 C 
ATOM      8  C   UNL     1      32.076 -11.791 -20.328  0.00  0.00    +0.187 A 
ATOM      9  C   UNL     1      31.702 -10.635 -19.617  0.00  0.00    +0.044 C 
ATOM     10  C   UNL     1      32.666 -12.899 -22.108  0.00  0.00    +0.187 A 
ATOM     11  H   UNL     1      31.575  -7.466 -21.860  0.00  0.00    +0.148 HD
ENDROOT
BRANCH   1  12
ATOM     12  C   UNL     1      32.071  -8.114 -23.803  0.00  0.00    +0.070 C 
ATOM     13  C   UNL     1      31.098  -7.094 -24.402  0.00  0.00    +0.020 C 
ATOM     14  C   UNL     1      33.529  -7.710 -24.043  0.00  0.00    +0.020 C 
ATOM     15  C   UNL     1      31.402  -5.660 -23.966  0.00  0.00    +0.002 C 
ATOM     16  C   UNL     1      33.824  -6.275 -23.608  0.00  0.00    +0.002 C 
ATOM     17  C   UNL     1      32.854  -5.283 -24.242  0.00  0.00    +0.000 C 
ENDBRANCH   1  12
BRANCH  10  18
ATOM     18  C   UNL     1      33.012 -13.209 -23.474  0.00  0.00    +0.038 C 
ATOM     19  C   UNL     1      33.228 -14.533 -23.857  0.00  0.00    +0.007 C 
ATOM     20  C   UNL     1      33.132 -12.184 -24.412  0.00  0.00    +0.003 C 
ATOM     21  C   UNL     1      33.563 -14.831 -25.177  0.00  0.00    +0.072 C 
ATOM     22  C   UNL     1      33.468 -12.482 -25.733  0.00  0.00    +0.000 C 
ATOM     23  C   UNL     1      33.683 -13.807 -26.115  0.00  0.00    +0.004 C 
BRANCH  21  27
ATOM     24  F   UNL     1      34.924 -16.424 -26.331  0.00  0.00    -0.166 F 
ATOM     25  F   UNL     1      33.918 -17.108 -24.535  0.00  0.00    -0.166 F 
ATOM     26  F   UNL     1      32.773 -16.744 -26.347  0.00  0.00    -0.166 F 
ATOM     27  C   UNL     1      33.792 -16.247 -25.588  0.00  0.00    +0.419 C 
ENDBRANCH  21  27
ENDBRANCH  10  18
TORSDOF 3
ENDMDL
