MODEL 1
REMARK VINA RESULT:     -11.4      0.000      0.000
REMARK  Name = 23650961
REMARK  5 active torsions:
REMARK  status: ('A' for Active; 'I' for Inactive)
REMARK    1  A    between atoms: N_1  and  C_23
REMARK    2  A    between atoms: C_5  and  C_12
REMARK    3  A    between atoms: C_23  and  C_24
REMARK    4  A    between atoms: C_24  and  C_25
REMARK    5  A    between atoms: C_25  and  C_27
REMARK                            x       y       z     vdW  Elec       q    Type
REMARK                         _______ _______ _______ _____ _____    ______ ____
ROOT
ATOM      1  N   UNL     1      34.476 -18.056 -24.880  0.00  0.00    -0.268 N 
ATOM      2  N   UNL     1      33.610 -15.977 -25.539  0.00  0.00    -0.342 NA
ATOM      3  N   UNL     1      34.802 -16.218 -23.459  0.00  0.00    -0.170 NA
ATOM      4  C   UNL     1      34.291 -16.707 -24.617  0.00  0.00    +0.144 C 
ATOM      5  C   UNL     1      33.926 -14.070 -24.104  0.00  0.00    +0.061 C 
ATOM      6  C   UNL     1      33.447 -14.669 -25.252  0.00  0.00    +0.123 C 
ATOM      7  C   UNL     1      34.603 -14.902 -23.235  0.00  0.00    +0.113 C 
ATOM      8  C   UNL     1      32.697 -13.876 -26.273  0.00  0.00    +0.067 C 
ATOM      9  H   UNL     1      34.109 -18.420 -25.717  0.00  0.00    +0.159 HD
ENDROOT
BRANCH   5  12
ATOM     10  N   UNL     1      34.541 -11.705 -24.356  0.00  0.00    -0.314 N 
ATOM     11  N   UNL     1      32.835 -12.161 -23.007  0.00  0.00    -0.315 N 
ATOM     12  C   UNL     1      33.746 -12.674 -23.807  0.00  0.00    +0.171 C 
ATOM     13  C   UNL     1      34.117 -10.491 -23.878  0.00  0.00    +0.059 C 
ATOM     14  C   UNL     1      33.051 -10.802 -23.039  0.00  0.00    +0.055 C 
ATOM     15  C   UNL     1      32.375  -9.764 -22.376  0.00  0.00    -0.008 C 
ATOM     16  C   UNL     1      34.560  -9.186 -24.103  0.00  0.00    +0.011 C 
ATOM     17  C   UNL     1      33.877  -8.166 -23.434  0.00  0.00    -0.021 C 
ATOM     18  C   UNL     1      32.804  -8.447 -22.586  0.00  0.00    -0.007 C 
ATOM     19  C   UNL     1      31.223 -10.014 -21.458  0.00  0.00    +0.032 C 
ATOM     20  C   UNL     1      34.303  -6.748 -23.634  0.00  0.00    +0.031 C 
ATOM     21  H   UNL     1      35.286 -11.852 -24.981  0.00  0.00    +0.149 HD
ATOM     22  H   UNL     1      32.147 -12.646 -22.495  0.00  0.00    +0.149 HD
ENDBRANCH   5  12
BRANCH   1  23
ATOM     23  C   UNL     1      35.177 -18.955 -23.996  0.00  0.00    +0.098 C 
BRANCH  23  24
ATOM     24  C   UNL     1      34.273 -19.404 -22.851  0.00  0.00    +0.022 C 
BRANCH  24  25
ATOM     25  C   UNL     1      35.019 -19.499 -21.520  0.00  0.00    +0.002 C 
BRANCH  25  27
ATOM     26  N   UNL     1      34.070 -22.283 -18.356  0.00  0.00    +0.385 N 
ATOM     27  C   UNL     1      34.718 -20.818 -20.811  0.00  0.00    -0.004 C 
ATOM     28  C   UNL     1      33.318 -20.801 -20.189  0.00  0.00    -0.023 C 
ATOM     29  C   UNL     1      35.762 -21.112 -19.729  0.00  0.00    -0.023 C 
ATOM     30  C   UNL     1      33.047 -22.077 -19.391  0.00  0.00    -0.077 C 
ATOM     31  C   UNL     1      35.411 -22.379 -18.947  0.00  0.00    -0.077 C 
ATOM     32  C   UNL     1      33.770 -23.479 -17.569  0.00  0.00    -0.101 C 
ATOM     33  H   UNL     1      34.057 -21.472 -17.736  0.00  0.00    -0.080 HD
ENDBRANCH  25  27
ENDBRANCH  24  25
ENDBRANCH  23  24
ENDBRANCH   1  23
TORSDOF 5
ENDMDL
MODEL 2
REMARK VINA RESULT:     -11.0      3.593     12.917
REMARK  Name = 23650961
REMARK  5 active torsions:
REMARK  status: ('A' for Active; 'I' for Inactive)
REMARK    1  A    between atoms: N_1  and  C_23
REMARK    2  A    between atoms: C_5  and  C_12
REMARK    3  A    between atoms: C_23  and  C_24
REMARK    4  A    between atoms: C_24  and  C_25
REMARK    5  A    between atoms: C_25  and  C_27
REMARK                            x       y       z     vdW  Elec       q    Type
REMARK                         _______ _______ _______ _____ _____    ______ ____
ROOT
ATOM      1  N   UNL     1      34.803 -20.905 -20.718  0.00  0.00    -0.268 N 
ATOM      2  N   UNL     1      34.055 -22.200 -18.909  0.00  0.00    -0.342 NA
ATOM      3  N   UNL     1      36.317 -21.375 -18.988  0.00  0.00    -0.170 NA
ATOM      4  C   UNL     1      35.067 -21.512 -19.500  0.00  0.00    +0.144 C 
ATOM      5  C   UNL     1      35.583 -22.702 -17.118  0.00  0.00    +0.061 C 
ATOM      6  C   UNL     1      34.346 -22.779 -17.726  0.00  0.00    +0.123 C 
ATOM      7  C   UNL     1      36.540 -21.980 -17.802  0.00  0.00    +0.113 C 
ATOM      8  C   UNL     1      33.225 -23.532 -17.086  0.00  0.00    +0.067 C 
ATOM      9  H   UNL     1      33.900 -20.999 -21.096  0.00  0.00    +0.159 HD
ENDROOT
BRANCH   5  12
ATOM     10  N   UNL     1      35.159 -23.061 -14.725  0.00  0.00    -0.314 N 
ATOM     11  N   UNL     1      36.847 -24.190 -15.627  0.00  0.00    -0.315 N 
ATOM     12  C   UNL     1      35.883 -23.323 -15.856  0.00  0.00    +0.171 C 
ATOM     13  C   UNL     1      35.690 -23.804 -13.702  0.00  0.00    +0.059 C 
ATOM     14  C   UNL     1      36.742 -24.500 -14.290  0.00  0.00    +0.055 C 
ATOM     15  C   UNL     1      37.513 -25.372 -13.502  0.00  0.00    -0.008 C 
ATOM     16  C   UNL     1      35.351 -23.924 -12.353  0.00  0.00    +0.011 C 
ATOM     17  C   UNL     1      36.128 -24.794 -11.583  0.00  0.00    -0.021 C 
ATOM     18  C   UNL     1      37.190 -25.507 -12.144  0.00  0.00    -0.007 C 
ATOM     19  C   UNL     1      38.658 -26.154 -14.055  0.00  0.00    +0.032 C 
ATOM     20  C   UNL     1      35.814 -24.967 -10.133  0.00  0.00    +0.031 C 
ATOM     21  H   UNL     1      34.393 -22.447 -14.657  0.00  0.00    +0.149 HD
ATOM     22  H   UNL     1      37.503 -24.540 -16.272  0.00  0.00    +0.149 HD
ENDBRANCH   5  12
BRANCH   1  23
ATOM     23  C   UNL     1      35.778 -20.144 -21.461  0.00  0.00    +0.098 C 
BRANCH  23  24
ATOM     24  C   UNL     1      35.100 -19.048 -22.278  0.00  0.00    +0.022 C 
BRANCH  24  25
ATOM     25  C   UNL     1      35.634 -17.655 -21.944  0.00  0.00    +0.002 C 
BRANCH  25  27
ATOM     26  N   UNL     1      33.456 -15.197 -24.750  0.00  0.00    +0.385 N 
ATOM     27  C   UNL     1      35.361 -16.671 -23.080  0.00  0.00    -0.004 C 
ATOM     28  C   UNL     1      34.601 -15.441 -22.571  0.00  0.00    -0.023 C 
ATOM     29  C   UNL     1      34.569 -17.339 -24.208  0.00  0.00    -0.023 C 
ATOM     30  C   UNL     1      34.235 -14.499 -23.719  0.00  0.00    -0.077 C 
ATOM     31  C   UNL     1      34.205 -16.333 -25.302  0.00  0.00    -0.077 C 
ATOM     32  C   UNL     1      33.069 -14.272 -25.815  0.00  0.00    -0.101 C 
ATOM     33  H   UNL     1      32.609 -15.562 -24.311  0.00  0.00    -0.080 HD
ENDBRANCH  25  27
ENDBRANCH  24  25
ENDBRANCH  23  24
ENDBRANCH   1  23
TORSDOF 5
ENDMDL
MODEL 3
REMARK VINA RESULT:     -10.8      2.093     11.590
REMARK  Name = 23650961
REMARK  5 active torsions:
REMARK  status: ('A' for Active; 'I' for Inactive)
REMARK    1  A    between atoms: N_1  and  C_23
REMARK    2  A    between atoms: C_5  and  C_12
REMARK    3  A    between atoms: C_23  and  C_24
REMARK    4  A    between atoms: C_24  and  C_25
REMARK    5  A    between atoms: C_25  and  C_27
REMARK                            x       y       z     vdW  Elec       q    Type
REMARK                         _______ _______ _______ _____ _____    ______ ____
ROOT
ATOM      1  N   UNL     1      35.173 -19.315 -22.880  0.00  0.00    -0.268 N 
ATOM      2  N   UNL     1      35.736 -20.554 -20.968  0.00  0.00    -0.342 NA
ATOM      3  N   UNL     1      33.432 -20.166 -21.558  0.00  0.00    -0.170 NA
ATOM      4  C   UNL     1      34.767 -20.034 -21.767  0.00  0.00    +0.144 C 
ATOM      5  C   UNL     1      33.974 -21.441 -19.588  0.00  0.00    +0.061 C 
ATOM      6  C   UNL     1      35.307 -21.247 -19.894  0.00  0.00    +0.123 C 
ATOM      7  C   UNL     1      33.072 -20.871 -20.465  0.00  0.00    +0.113 C 
ATOM      8  C   UNL     1      36.381 -21.813 -19.023  0.00  0.00    +0.067 C 
ATOM      9  H   UNL     1      36.139 -19.214 -23.041  0.00  0.00    +0.159 HD
ENDROOT
BRANCH   5  12
ATOM     10  N   UNL     1      32.198 -22.355 -18.158  0.00  0.00    -0.314 N 
ATOM     11  N   UNL     1      34.294 -22.767 -17.545  0.00  0.00    -0.315 N 
ATOM     12  C   UNL     1      33.527 -22.181 -18.440  0.00  0.00    +0.171 C 
ATOM     13  C   UNL     1      32.105 -23.099 -17.010  0.00  0.00    +0.059 C 
ATOM     14  C   UNL     1      33.426 -23.344 -16.647  0.00  0.00    +0.055 C 
ATOM     15  C   UNL     1      33.691 -24.096 -15.490  0.00  0.00    -0.008 C 
ATOM     16  C   UNL     1      31.010 -23.565 -16.279  0.00  0.00    +0.011 C 
ATOM     17  C   UNL     1      31.291 -24.311 -15.130  0.00  0.00    -0.021 C 
ATOM     18  C   UNL     1      32.606 -24.573 -14.741  0.00  0.00    -0.007 C 
ATOM     19  C   UNL     1      35.078 -24.402 -15.031  0.00  0.00    +0.032 C 
ATOM     20  C   UNL     1      30.162 -24.838 -14.307  0.00  0.00    +0.031 C 
ATOM     21  H   UNL     1      31.444 -22.008 -18.686  0.00  0.00    +0.149 HD
ATOM     22  H   UNL     1      35.279 -22.788 -17.523  0.00  0.00    +0.149 HD
ENDBRANCH   5  12
BRANCH   1  23
ATOM     23  C   UNL     1      34.260 -18.706 -23.817  0.00  0.00    +0.098 C 
BRANCH  23  24
ATOM     24  C   UNL     1      34.800 -17.365 -24.307  0.00  0.00    +0.022 C 
BRANCH  24  25
ATOM     25  C   UNL     1      33.886 -16.711 -25.344  0.00  0.00    +0.002 C 
BRANCH  25  27
ATOM     26  N   UNL     1      34.098 -12.510 -24.362  0.00  0.00    +0.385 N 
ATOM     27  C   UNL     1      33.450 -15.318 -24.895  0.00  0.00    -0.004 C 
ATOM     28  C   UNL     1      33.645 -14.293 -26.016  0.00  0.00    -0.023 C 
ATOM     29  C   UNL     1      34.220 -14.875 -23.648  0.00  0.00    -0.023 C 
ATOM     30  C   UNL     1      33.306 -12.879 -25.543  0.00  0.00    -0.077 C 
ATOM     31  C   UNL     1      33.861 -13.441 -23.252  0.00  0.00    -0.077 C 
ATOM     32  C   UNL     1      33.800 -11.138 -23.952  0.00  0.00    -0.101 C 
ATOM     33  H   UNL     1      35.085 -12.568 -24.616  0.00  0.00    -0.080 HD
ENDBRANCH  25  27
ENDBRANCH  24  25
ENDBRANCH  23  24
ENDBRANCH   1  23
TORSDOF 5
ENDMDL
MODEL 4
REMARK VINA RESULT:     -10.8      2.964     11.873
REMARK  Name = 23650961
REMARK  5 active torsions:
REMARK  status: ('A' for Active; 'I' for Inactive)
REMARK    1  A    between atoms: N_1  and  C_23
REMARK    2  A    between atoms: C_5  and  C_12
REMARK    3  A    between atoms: C_23  and  C_24
REMARK    4  A    between atoms: C_24  and  C_25
REMARK    5  A    between atoms: C_25  and  C_27
REMARK                            x       y       z     vdW  Elec       q    Type
REMARK                         _______ _______ _______ _____ _____    ______ ____
ROOT
ATOM      1  N   UNL     1      31.966  -8.833 -23.045  0.00  0.00    -0.268 N 
ATOM      2  N   UNL     1      31.957 -10.958 -22.049  0.00  0.00    -0.342 NA
ATOM      3  N   UNL     1      33.382 -10.480 -23.932  0.00  0.00    -0.170 NA
ATOM      4  C   UNL     1      32.451 -10.131 -23.008  0.00  0.00    +0.144 C 
ATOM      5  C   UNL     1      33.397 -12.671 -22.936  0.00  0.00    +0.061 C 
ATOM      6  C   UNL     1      32.449 -12.214 -22.042  0.00  0.00    +0.123 C 
ATOM      7  C   UNL     1      33.831 -11.751 -23.868  0.00  0.00    +0.113 C 
ATOM      8  C   UNL     1      31.899 -13.113 -20.984  0.00  0.00    +0.067 C 
ATOM      9  H   UNL     1      31.291  -8.571 -22.378  0.00  0.00    +0.159 HD
ENDROOT
BRANCH   5  12
ATOM     10  N   UNL     1      34.480 -14.562 -21.800  0.00  0.00    -0.314 N 
ATOM     11  N   UNL     1      33.916 -14.857 -23.930  0.00  0.00    -0.315 N 
ATOM     12  C   UNL     1      33.915 -14.013 -22.920  0.00  0.00    +0.171 C 
ATOM     13  C   UNL     1      34.870 -15.840 -22.109  0.00  0.00    +0.059 C 
ATOM     14  C   UNL     1      34.507 -16.001 -23.443  0.00  0.00    +0.055 C 
ATOM     15  C   UNL     1      34.771 -17.224 -24.083  0.00  0.00    -0.008 C 
ATOM     16  C   UNL     1      35.490 -16.840 -21.358  0.00  0.00    +0.011 C 
ATOM     17  C   UNL     1      35.746 -18.050 -22.010  0.00  0.00    -0.021 C 
ATOM     18  C   UNL     1      35.394 -18.242 -23.347  0.00  0.00    -0.007 C 
ATOM     19  C   UNL     1      34.414 -17.477 -25.511  0.00  0.00    +0.032 C 
ATOM     20  C   UNL     1      36.406 -19.160 -21.259  0.00  0.00    +0.031 C 
ATOM     21  H   UNL     1      34.587 -14.119 -20.929  0.00  0.00    +0.149 HD
ATOM     22  H   UNL     1      33.569 -14.704 -24.839  0.00  0.00    +0.149 HD
ENDBRANCH   5  12
BRANCH   1  23
ATOM     23  C   UNL     1      32.396  -7.844 -24.004  0.00  0.00    +0.098 C 
BRANCH  23  24
ATOM     24  C   UNL     1      33.274  -6.789 -23.338  0.00  0.00    +0.022 C 
BRANCH  24  25
ATOM     25  C   UNL     1      34.439  -6.353 -24.227  0.00  0.00    +0.002 C 
BRANCH  25  27
ATOM     26  N   UNL     1      33.847  -3.097 -27.003  0.00  0.00    +0.385 N 
ATOM     27  C   UNL     1      33.943  -5.579 -25.446  0.00  0.00    -0.004 C 
ATOM     28  C   UNL     1      35.116  -5.104 -26.311  0.00  0.00    -0.023 C 
ATOM     29  C   UNL     1      33.091  -4.377 -25.027  0.00  0.00    -0.023 C 
ATOM     30  C   UNL     1      34.634  -4.243 -27.479  0.00  0.00    -0.077 C 
ATOM     31  C   UNL     1      32.675  -3.540 -26.238  0.00  0.00    -0.077 C 
ATOM     32  C   UNL     1      33.437  -2.255 -28.127  0.00  0.00    -0.101 C 
ATOM     33  H   UNL     1      34.439  -2.546 -26.381  0.00  0.00    -0.080 HD
ENDBRANCH  25  27
ENDBRANCH  24  25
ENDBRANCH  23  24
ENDBRANCH   1  23
TORSDOF 5
ENDMDL
MODEL 5
REMARK VINA RESULT:     -10.6      2.094      4.110
REMARK  Name = 23650961
REMARK  5 active torsions:
REMARK  status: ('A' for Active; 'I' for Inactive)
REMARK    1  A    between atoms: N_1  and  C_23
REMARK    2  A    between atoms: C_5  and  C_12
REMARK    3  A    between atoms: C_23  and  C_24
REMARK    4  A    between atoms: C_24  and  C_25
REMARK    5  A    between atoms: C_25  and  C_27
REMARK                            x       y       z     vdW  Elec       q    Type
REMARK                         _______ _______ _______ _____ _____    ______ ____
ROOT
ATOM      1  N   UNL     1      33.470 -14.728 -22.995  0.00  0.00    -0.268 N 
ATOM      2  N   UNL     1      32.464 -12.797 -22.118  0.00  0.00    -0.342 NA
ATOM      3  N   UNL     1      33.898 -12.677 -24.050  0.00  0.00    -0.170 NA
ATOM      4  C   UNL     1      33.271 -13.357 -23.057  0.00  0.00    +0.144 C 
ATOM      5  C   UNL     1      32.883 -10.676 -23.177  0.00  0.00    +0.061 C 
ATOM      6  C   UNL     1      32.293 -11.462 -22.207  0.00  0.00    +0.123 C 
ATOM      7  C   UNL     1      33.683 -11.345 -24.081  0.00  0.00    +0.113 C 
ATOM      8  C   UNL     1      31.403 -10.858 -21.170  0.00  0.00    +0.067 C 
ATOM      9  H   UNL     1      33.019 -15.230 -22.278  0.00  0.00    +0.159 HD
ENDROOT
BRANCH   5  12
ATOM     10  N   UNL     1      31.631  -8.623 -22.674  0.00  0.00    -0.314 N 
ATOM     11  N   UNL     1      33.481  -8.401 -23.886  0.00  0.00    -0.315 N 
ATOM     12  C   UNL     1      32.694  -9.253 -23.262  0.00  0.00    +0.171 C 
ATOM     13  C   UNL     1      31.739  -7.281 -22.936  0.00  0.00    +0.059 C 
ATOM     14  C   UNL     1      32.901  -7.168 -23.693  0.00  0.00    +0.055 C 
ATOM     15  C   UNL     1      33.310  -5.899 -24.136  0.00  0.00    -0.008 C 
ATOM     16  C   UNL     1      30.943  -6.189 -22.586  0.00  0.00    +0.011 C 
ATOM     17  C   UNL     1      31.364  -4.933 -23.035  0.00  0.00    -0.021 C 
ATOM     18  C   UNL     1      32.525  -4.788 -23.796  0.00  0.00    -0.007 C 
ATOM     19  C   UNL     1      34.543  -5.692 -24.953  0.00  0.00    +0.032 C 
ATOM     20  C   UNL     1      30.555  -3.725 -22.692  0.00  0.00    +0.031 C 
ATOM     21  H   UNL     1      30.916  -9.056 -22.155  0.00  0.00    +0.149 HD
ATOM     22  H   UNL     1      34.307  -8.603 -24.383  0.00  0.00    +0.149 HD
ENDBRANCH   5  12
BRANCH   1  23
ATOM     23  C   UNL     1      34.299 -15.460 -23.921  0.00  0.00    +0.098 C 
BRANCH  23  24
ATOM     24  C   UNL     1      35.349 -16.281 -23.178  0.00  0.00    +0.022 C 
BRANCH  24  25
ATOM     25  C   UNL     1      35.117 -17.786 -23.314  0.00  0.00    +0.002 C 
BRANCH  25  27
ATOM     26  N   UNL     1      36.142 -20.864 -20.462  0.00  0.00    +0.385 N 
ATOM     27  C   UNL     1      35.306 -18.497 -21.976  0.00  0.00    -0.004 C 
ATOM     28  C   UNL     1      36.780 -18.844 -21.741  0.00  0.00    -0.023 C 
ATOM     29  C   UNL     1      34.457 -19.770 -21.904  0.00  0.00    -0.023 C 
ATOM     30  C   UNL     1      36.964 -19.646 -20.451  0.00  0.00    -0.077 C 
ATOM     31  C   UNL     1      34.717 -20.540 -20.609  0.00  0.00    -0.077 C 
ATOM     32  C   UNL     1      36.368 -21.645 -19.246  0.00  0.00    -0.101 C 
ATOM     33  H   UNL     1      36.422 -21.425 -21.267  0.00  0.00    -0.080 HD
ENDBRANCH  25  27
ENDBRANCH  24  25
ENDBRANCH  23  24
ENDBRANCH   1  23
TORSDOF 5
ENDMDL
MODEL 6
REMARK VINA RESULT:     -10.5      2.095      3.482
REMARK  Name = 23650961
REMARK  5 active torsions:
REMARK  status: ('A' for Active; 'I' for Inactive)
REMARK    1  A    between atoms: N_1  and  C_23
REMARK    2  A    between atoms: C_5  and  C_12
REMARK    3  A    between atoms: C_23  and  C_24
REMARK    4  A    between atoms: C_24  and  C_25
REMARK    5  A    between atoms: C_25  and  C_27
REMARK                            x       y       z     vdW  Elec       q    Type
REMARK                         _______ _______ _______ _____ _____    ______ ____
ROOT
ATOM      1  N   UNL     1      33.715 -15.092 -23.198  0.00  0.00    -0.268 N 
ATOM      2  N   UNL     1      32.521 -13.357 -22.163  0.00  0.00    -0.342 NA
ATOM      3  N   UNL     1      34.070 -12.898 -23.951  0.00  0.00    -0.170 NA
ATOM      4  C   UNL     1      33.426 -13.739 -23.101  0.00  0.00    +0.144 C 
ATOM      5  C   UNL     1      32.862 -11.094 -22.911  0.00  0.00    +0.061 C 
ATOM      6  C   UNL     1      32.264 -12.035 -22.095  0.00  0.00    +0.123 C 
ATOM      7  C   UNL     1      33.766 -11.589 -23.829  0.00  0.00    +0.113 C 
ATOM      8  C   UNL     1      31.267 -11.626 -21.060  0.00  0.00    +0.067 C 
ATOM      9  H   UNL     1      33.254 -15.710 -22.587  0.00  0.00    +0.159 HD
ENDROOT
BRANCH   5  12
ATOM     10  N   UNL     1      32.156  -8.965 -23.914  0.00  0.00    -0.314 N 
ATOM     11  N   UNL     1      32.686  -8.933 -21.755  0.00  0.00    -0.315 N 
ATOM     12  C   UNL     1      32.581  -9.686 -22.830  0.00  0.00    +0.171 C 
ATOM     13  C   UNL     1      31.979  -7.666 -23.512  0.00  0.00    +0.059 C 
ATOM     14  C   UNL     1      32.315  -7.671 -22.161  0.00  0.00    +0.055 C 
ATOM     15  C   UNL     1      32.239  -6.473 -21.431  0.00  0.00    -0.008 C 
ATOM     16  C   UNL     1      31.564  -6.520 -24.194  0.00  0.00    +0.011 C 
ATOM     17  C   UNL     1      31.495  -5.336 -23.452  0.00  0.00    -0.021 C 
ATOM     18  C   UNL     1      31.826  -5.310 -22.096  0.00  0.00    -0.007 C 
ATOM     19  C   UNL     1      32.584  -6.394 -19.980  0.00  0.00    +0.032 C 
ATOM     20  C   UNL     1      31.056  -4.077 -24.125  0.00  0.00    +0.031 C 
ATOM     21  H   UNL     1      32.006  -9.316 -24.820  0.00  0.00    +0.149 HD
ATOM     22  H   UNL     1      32.970  -9.212 -20.854  0.00  0.00    +0.149 HD
ENDBRANCH   5  12
BRANCH   1  23
ATOM     23  C   UNL     1      34.654 -15.645 -24.145  0.00  0.00    +0.098 C 
BRANCH  23  24
ATOM     24  C   UNL     1      34.936 -17.112 -23.833  0.00  0.00    +0.022 C 
BRANCH  24  25
ATOM     25  C   UNL     1      35.689 -17.295 -22.515  0.00  0.00    +0.002 C 
BRANCH  25  27
ATOM     26  N   UNL     1      35.410 -20.752 -19.941  0.00  0.00    +0.385 N 
ATOM     27  C   UNL     1      35.677 -18.755 -22.070  0.00  0.00    -0.004 C 
ATOM     28  C   UNL     1      34.322 -19.134 -21.463  0.00  0.00    -0.023 C 
ATOM     29  C   UNL     1      36.793 -19.032 -21.058  0.00  0.00    -0.023 C 
ATOM     30  C   UNL     1      34.334 -20.565 -20.923  0.00  0.00    -0.077 C 
ATOM     31  C   UNL     1      36.724 -20.467 -20.532  0.00  0.00    -0.077 C 
ATOM     32  C   UNL     1      35.377 -22.109 -19.396  0.00  0.00    -0.101 C 
ATOM     33  H   UNL     1      35.258 -20.090 -19.178  0.00  0.00    -0.080 HD
ENDBRANCH  25  27
ENDBRANCH  24  25
ENDBRANCH  23  24
ENDBRANCH   1  23
TORSDOF 5
ENDMDL
MODEL 7
REMARK VINA RESULT:     -10.2      3.306     11.900
REMARK  Name = 23650961
REMARK  5 active torsions:
REMARK  status: ('A' for Active; 'I' for Inactive)
REMARK    1  A    between atoms: N_1  and  C_23
REMARK    2  A    between atoms: C_5  and  C_12
REMARK    3  A    between atoms: C_23  and  C_24
REMARK    4  A    between atoms: C_24  and  C_25
REMARK    5  A    between atoms: C_25  and  C_27
REMARK                            x       y       z     vdW  Elec       q    Type
REMARK                         _______ _______ _______ _____ _____    ______ ____
ROOT
ATOM      1  N   UNL     1      32.459  -7.837 -23.001  0.00  0.00    -0.268 N 
ATOM      2  N   UNL     1      33.669  -9.507 -24.121  0.00  0.00    -0.342 NA
ATOM      3  N   UNL     1      32.218 -10.056 -22.278  0.00  0.00    -0.170 NA
ATOM      4  C   UNL     1      32.792  -9.176 -23.138  0.00  0.00    +0.144 C 
ATOM      5  C   UNL     1      33.446 -11.794 -23.404  0.00  0.00    +0.061 C 
ATOM      6  C   UNL     1      33.972 -10.817 -24.225  0.00  0.00    +0.123 C 
ATOM      7  C   UNL     1      32.566 -11.350 -22.438  0.00  0.00    +0.113 C 
ATOM      8  C   UNL     1      34.938 -11.168 -25.311  0.00  0.00    +0.067 C 
ATOM      9  H   UNL     1      32.869  -7.191 -23.620  0.00  0.00    +0.159 HD
ENDROOT
BRANCH   5  12
ATOM     10  N   UNL     1      34.520 -13.843 -22.578  0.00  0.00    -0.314 N 
ATOM     11  N   UNL     1      33.426 -13.989 -24.507  0.00  0.00    -0.315 N 
ATOM     12  C   UNL     1      33.777 -13.188 -23.523  0.00  0.00    +0.171 C 
ATOM     13  C   UNL     1      34.657 -15.147 -22.979  0.00  0.00    +0.059 C 
ATOM     14  C   UNL     1      33.965 -15.214 -24.185  0.00  0.00    +0.055 C 
ATOM     15  C   UNL     1      33.908 -16.436 -24.877  0.00  0.00    -0.008 C 
ATOM     16  C   UNL     1      35.307 -16.243 -22.408  0.00  0.00    +0.011 C 
ATOM     17  C   UNL     1      35.241 -17.451 -23.109  0.00  0.00    -0.021 C 
ATOM     18  C   UNL     1      34.555 -17.548 -24.321  0.00  0.00    -0.007 C 
ATOM     19  C   UNL     1      33.188 -16.590 -26.176  0.00  0.00    +0.032 C 
ATOM     20  C   UNL     1      35.916 -18.659 -22.548  0.00  0.00    +0.031 C 
ATOM     21  H   UNL     1      34.890 -13.448 -21.756  0.00  0.00    +0.149 HD
ATOM     22  H   UNL     1      32.892 -13.761 -25.303  0.00  0.00    +0.149 HD
ENDBRANCH   5  12
BRANCH   1  23
ATOM     23  C   UNL     1      31.543  -7.337 -22.005  0.00  0.00    +0.098 C 
BRANCH  23  24
ATOM     24  C   UNL     1      30.918  -6.019 -22.455  0.00  0.00    +0.022 C 
BRANCH  24  25
ATOM     25  C   UNL     1      31.968  -4.952 -22.767  0.00  0.00    +0.002 C 
BRANCH  25  27
ATOM     26  N   UNL     1      33.252  -3.262 -26.529  0.00  0.00    +0.385 N 
ATOM     27  C   UNL     1      31.991  -4.619 -24.257  0.00  0.00    -0.004 C 
ATOM     28  C   UNL     1      33.274  -5.137 -24.916  0.00  0.00    -0.023 C 
ATOM     29  C   UNL     1      31.866  -3.110 -24.486  0.00  0.00    -0.023 C 
ATOM     30  C   UNL     1      33.352  -4.721 -26.386  0.00  0.00    -0.077 C 
ATOM     31  C   UNL     1      31.990  -2.760 -25.970  0.00  0.00    -0.077 C 
ATOM     32  C   UNL     1      33.380  -2.875 -27.934  0.00  0.00    -0.101 C 
ATOM     33  H   UNL     1      34.018  -2.841 -26.003  0.00  0.00    -0.080 HD
ENDBRANCH  25  27
ENDBRANCH  24  25
ENDBRANCH  23  24
ENDBRANCH   1  23
TORSDOF 5
ENDMDL
MODEL 8
REMARK VINA RESULT:     -10.2      3.563     11.847
REMARK  Name = 23650961
REMARK  5 active torsions:
REMARK  status: ('A' for Active; 'I' for Inactive)
REMARK    1  A    between atoms: N_1  and  C_23
REMARK    2  A    between atoms: C_5  and  C_12
REMARK    3  A    between atoms: C_23  and  C_24
REMARK    4  A    between atoms: C_24  and  C_25
REMARK    5  A    between atoms: C_25  and  C_27
REMARK                            x       y       z     vdW  Elec       q    Type
REMARK                         _______ _______ _______ _____ _____    ______ ____
ROOT
ATOM      1  N   UNL     1      32.427  -8.313 -22.866  0.00  0.00    -0.268 N 
ATOM      2  N   UNL     1      33.468  -9.946 -24.191  0.00  0.00    -0.342 NA
ATOM      3  N   UNL     1      32.268 -10.555 -22.193  0.00  0.00    -0.170 NA
ATOM      4  C   UNL     1      32.730  -9.647 -23.090  0.00  0.00    +0.144 C 
ATOM      5  C   UNL     1      33.325 -12.256 -23.529  0.00  0.00    +0.061 C 
ATOM      6  C   UNL     1      33.745 -11.252 -24.379  0.00  0.00    +0.123 C 
ATOM      7  C   UNL     1      32.582 -11.843 -22.441  0.00  0.00    +0.113 C 
ATOM      8  C   UNL     1      34.556 -11.569 -25.593  0.00  0.00    +0.067 C 
ATOM      9  H   UNL     1      32.757  -7.647 -23.511  0.00  0.00    +0.159 HD
ENDROOT
BRANCH   5  12
ATOM     10  N   UNL     1      33.174 -14.333 -24.832  0.00  0.00    -0.314 N 
ATOM     11  N   UNL     1      34.347 -14.412 -22.945  0.00  0.00    -0.315 N 
ATOM     12  C   UNL     1      33.627 -13.646 -23.737  0.00  0.00    +0.171 C 
ATOM     13  C   UNL     1      33.630 -15.623 -24.737  0.00  0.00    +0.059 C 
ATOM     14  C   UNL     1      34.360 -15.648 -23.552  0.00  0.00    +0.055 C 
ATOM     15  C   UNL     1      34.975 -16.845 -23.150  0.00  0.00    -0.008 C 
ATOM     16  C   UNL     1      33.473 -16.738 -25.563  0.00  0.00    +0.011 C 
ATOM     17  C   UNL     1      34.091 -17.921 -25.148  0.00  0.00    -0.021 C 
ATOM     18  C   UNL     1      34.829 -17.977 -23.964  0.00  0.00    -0.007 C 
ATOM     19  C   UNL     1      35.773 -16.955 -21.893  0.00  0.00    +0.032 C 
ATOM     20  C   UNL     1      33.960 -19.148 -25.990  0.00  0.00    +0.031 C 
ATOM     21  H   UNL     1      32.620 -13.967 -25.557  0.00  0.00    +0.149 HD
ATOM     22  H   UNL     1      34.782 -14.157 -22.099  0.00  0.00    +0.149 HD
ENDBRANCH   5  12
BRANCH   1  23
ATOM     23  C   UNL     1      31.654  -7.845 -21.741  0.00  0.00    +0.098 C 
BRANCH  23  24
ATOM     24  C   UNL     1      31.984  -6.389 -21.424  0.00  0.00    +0.022 C 
BRANCH  24  25
ATOM     25  C   UNL     1      31.063  -5.410 -22.153  0.00  0.00    +0.002 C 
BRANCH  25  27
ATOM     26  N   UNL     1      32.044  -3.033 -25.624  0.00  0.00    +0.385 N 
ATOM     27  C   UNL     1      31.853  -4.506 -23.097  0.00  0.00    -0.004 C 
ATOM     28  C   UNL     1      31.118  -3.183 -23.335  0.00  0.00    -0.023 C 
ATOM     29  C   UNL     1      32.113  -5.202 -24.436  0.00  0.00    -0.023 C 
ATOM     30  C   UNL     1      31.852  -2.314 -24.357  0.00  0.00    -0.077 C 
ATOM     31  C   UNL     1      32.816  -4.266 -25.422  0.00  0.00    -0.077 C 
ATOM     32  C   UNL     1      32.701  -2.172 -26.607  0.00  0.00    -0.101 C 
ATOM     33  H   UNL     1      31.123  -3.292 -25.980  0.00  0.00    -0.080 HD
ENDBRANCH  25  27
ENDBRANCH  24  25
ENDBRANCH  23  24
ENDBRANCH   1  23
TORSDOF 5
ENDMDL
MODEL 9
REMARK VINA RESULT:     -10.1      3.365     12.023
REMARK  Name = 23650961
REMARK  5 active torsions:
REMARK  status: ('A' for Active; 'I' for Inactive)
REMARK    1  A    between atoms: N_1  and  C_23
REMARK    2  A    between atoms: C_5  and  C_12
REMARK    3  A    between atoms: C_23  and  C_24
REMARK    4  A    between atoms: C_24  and  C_25
REMARK    5  A    between atoms: C_25  and  C_27
REMARK                            x       y       z     vdW  Elec       q    Type
REMARK                         _______ _______ _______ _____ _____    ______ ____
ROOT
ATOM      1  N   UNL     1      32.599  -8.560 -22.822  0.00  0.00    -0.268 N 
ATOM      2  N   UNL     1      32.306 -10.792 -22.158  0.00  0.00    -0.342 NA
ATOM      3  N   UNL     1      33.711 -10.234 -24.034  0.00  0.00    -0.170 NA
ATOM      4  C   UNL     1      32.881  -9.904 -23.011  0.00  0.00    +0.144 C 
ATOM      5  C   UNL     1      33.431 -12.534 -23.381  0.00  0.00    +0.061 C 
ATOM      6  C   UNL     1      32.601 -12.091 -22.371  0.00  0.00    +0.123 C 
ATOM      7  C   UNL     1      33.963 -11.550 -24.190  0.00  0.00    +0.113 C 
ATOM      8  C   UNL     1      31.962 -13.057 -21.426  0.00  0.00    +0.067 C 
ATOM      9  H   UNL     1      32.000  -8.312 -22.082  0.00  0.00    +0.159 HD
ENDROOT
BRANCH   5  12
ATOM     10  N   UNL     1      33.309 -14.596 -24.712  0.00  0.00    -0.314 N 
ATOM     11  N   UNL     1      34.442 -14.697 -22.802  0.00  0.00    -0.315 N 
ATOM     12  C   UNL     1      33.738 -13.922 -23.600  0.00  0.00    +0.171 C 
ATOM     13  C   UNL     1      33.764 -15.886 -24.623  0.00  0.00    +0.059 C 
ATOM     14  C   UNL     1      34.468 -15.925 -23.424  0.00  0.00    +0.055 C 
ATOM     15  C   UNL     1      35.076 -17.127 -23.023  0.00  0.00    -0.008 C 
ATOM     16  C   UNL     1      33.624 -16.991 -25.466  0.00  0.00    +0.011 C 
ATOM     17  C   UNL     1      34.234 -18.180 -25.052  0.00  0.00    -0.021 C 
ATOM     18  C   UNL     1      34.947 -18.249 -23.853  0.00  0.00    -0.007 C 
ATOM     19  C   UNL     1      35.848 -17.252 -21.751  0.00  0.00    +0.032 C 
ATOM     20  C   UNL     1      34.121 -19.396 -25.911  0.00  0.00    +0.031 C 
ATOM     21  H   UNL     1      32.770 -14.221 -25.444  0.00  0.00    +0.149 HD
ATOM     22  H   UNL     1      34.859 -14.452 -21.944  0.00  0.00    +0.149 HD
ENDBRANCH   5  12
BRANCH   1  23
ATOM     23  C   UNL     1      33.136  -7.505 -23.647  0.00  0.00    +0.098 C 
BRANCH  23  24
ATOM     24  C   UNL     1      32.041  -6.523 -24.052  0.00  0.00    +0.022 C 
BRANCH  24  25
ATOM     25  C   UNL     1      32.564  -5.095 -24.208  0.00  0.00    +0.002 C 
BRANCH  25  27
ATOM     26  N   UNL     1      34.713  -3.313 -27.504  0.00  0.00    +0.385 N 
ATOM     27  C   UNL     1      33.050  -4.837 -25.632  0.00  0.00    -0.004 C 
ATOM     28  C   UNL     1      34.564  -5.044 -25.743  0.00  0.00    -0.023 C 
ATOM     29  C   UNL     1      32.686  -3.422 -26.091  0.00  0.00    -0.023 C 
ATOM     30  C   UNL     1      35.074  -4.690 -27.141  0.00  0.00    -0.077 C 
ATOM     31  C   UNL     1      33.257  -3.122 -27.478  0.00  0.00    -0.077 C 
ATOM     32  C   UNL     1      35.250  -2.972 -28.821  0.00  0.00    -0.101 C 
ATOM     33  H   UNL     1      35.125  -2.687 -26.811  0.00  0.00    -0.080 HD
ENDBRANCH  25  27
ENDBRANCH  24  25
ENDBRANCH  23  24
ENDBRANCH   1  23
TORSDOF 5
ENDMDL
