MODEL 1
REMARK VINA RESULT:     -11.0      0.000      0.000
REMARK  Name = 24180720
REMARK  6 active torsions:
REMARK  status: ('A' for Active; 'I' for Inactive)
REMARK    1  A    between atoms: C_2  and  C_6
REMARK    2  A    between atoms: C_2  and  C_21
REMARK    3  A    between atoms: C_10  and  C_14
REMARK    4  A    between atoms: C_22  and  N_27
REMARK    5  A    between atoms: N_27  and  S_29
REMARK    6  A    between atoms: S_29  and  C_32
REMARK                            x       y       z     vdW  Elec       q    Type
REMARK                         _______ _______ _______ _____ _____    ______ ____
ROOT
ATOM      1  O   UNL     1      33.873 -24.340 -19.548  0.00  0.00    -0.286 OA
ATOM      2  C   UNL     1      33.949 -23.365 -18.776  0.00  0.00    +0.201 C 
ENDROOT
BRANCH   2   6
ATOM      3  N   UNL     1      31.672 -22.933 -16.013  0.00  0.00    -0.297 N 
ATOM      4  N   UNL     1      32.773 -23.646 -13.992  0.00  0.00    -0.229 NA
ATOM      5  C   UNL     1      33.765 -23.679 -16.234  0.00  0.00    +0.036 C 
ATOM      6  C   UNL     1      33.274 -23.303 -17.512  0.00  0.00    +0.056 C 
ATOM      7  C   UNL     1      32.742 -23.435 -15.321  0.00  0.00    +0.132 C 
ATOM      8  C   UNL     1      34.968 -24.202 -15.733  0.00  0.00    +0.005 C 
ATOM      9  C   UNL     1      31.983 -22.848 -17.345  0.00  0.00    +0.066 C 
ATOM     10  C   UNL     1      35.052 -24.440 -14.362  0.00  0.00    +0.021 C 
ATOM     11  C   UNL     1      33.953 -24.150 -13.565  0.00  0.00    +0.100 C 
ATOM     12  H   UNL     1      30.811 -22.672 -15.614  0.00  0.00    +0.154 HD
BRANCH  10  14
ATOM     13  N   UNL     1      37.433 -25.788 -11.829  0.00  0.00    -0.242 NA
ATOM     14  C   UNL     1      36.262 -24.977 -13.783  0.00  0.00    +0.021 C 
ATOM     15  C   UNL     1      37.393 -25.199 -14.562  0.00  0.00    +0.003 C 
ATOM     16  C   UNL     1      36.334 -25.285 -12.434  0.00  0.00    +0.099 C 
ATOM     17  C   UNL     1      38.543 -25.715 -13.975  0.00  0.00    +0.021 C 
ATOM     18  C   UNL     1      38.512 -25.991 -12.618  0.00  0.00    +0.099 C 
ENDBRANCH  10  14
ENDBRANCH   2   6
BRANCH   2  21
ATOM     19  F   UNL     1      33.060 -21.522 -20.713  0.00  0.00    -0.203 F 
ATOM     20  F   UNL     1      36.567 -22.885 -17.820  0.00  0.00    -0.204 F 
ATOM     21  C   UNL     1      34.793 -22.227 -19.257  0.00  0.00    +0.095 C 
ATOM     22  C   UNL     1      35.083 -20.287 -20.667  0.00  0.00    +0.092 C 
ATOM     23  C   UNL     1      34.295 -21.348 -20.219  0.00  0.00    +0.160 C 
ATOM     24  C   UNL     1      36.077 -22.046 -18.744  0.00  0.00    +0.145 C 
ATOM     25  C   UNL     1      36.367 -20.106 -20.154  0.00  0.00    +0.020 C 
ATOM     26  C   UNL     1      36.864 -20.986 -19.192  0.00  0.00    +0.031 C 
BRANCH  22  27
ATOM     27  N   UNL     1      34.576 -19.386 -21.652  0.00  0.00    -0.217 N 
ATOM     28  H   UNL     1      33.679 -19.513 -22.040  0.00  0.00    +0.173 HD
BRANCH  27  29
ATOM     29  S   UNL     1      35.575 -18.072 -22.143  0.00  0.00    +0.054 S 
ATOM     30  O   UNL     1      35.311 -16.944 -21.268  0.00  0.00    -0.154 OA
ATOM     31  O   UNL     1      36.934 -18.516 -22.383  0.00  0.00    -0.154 OA
BRANCH  29  32
ATOM     32  C   UNL     1      34.839 -17.689 -23.716  0.00  0.00    +0.172 C 
ATOM     33  C   UNL     1      34.269 -18.924 -24.378  0.00  0.00    +0.029 C 
ENDBRANCH  29  32
ENDBRANCH  27  29
ENDBRANCH  22  27
ENDBRANCH   2  21
TORSDOF 6
ENDMDL
MODEL 2
REMARK VINA RESULT:     -10.9      7.027     13.355
REMARK  Name = 24180720
REMARK  6 active torsions:
REMARK  status: ('A' for Active; 'I' for Inactive)
REMARK    1  A    between atoms: C_2  and  C_6
REMARK    2  A    between atoms: C_2  and  C_21
REMARK    3  A    between atoms: C_10  and  C_14
REMARK    4  A    between atoms: C_22  and  N_27
REMARK    5  A    between atoms: N_27  and  S_29
REMARK    6  A    between atoms: S_29  and  C_32
REMARK                            x       y       z     vdW  Elec       q    Type
REMARK                         _______ _______ _______ _____ _____    ______ ____
ROOT
ATOM      1  O   UNL     1      34.163 -12.647 -24.875  0.00  0.00    -0.286 OA
ATOM      2  C   UNL     1      33.689 -13.446 -24.047  0.00  0.00    +0.201 C 
ENDROOT
BRANCH   2   6
ATOM      3  N   UNL     1      31.815 -13.168 -20.977  0.00  0.00    -0.297 N 
ATOM      4  N   UNL     1      31.308 -10.844 -20.595  0.00  0.00    -0.229 NA
ATOM      5  C   UNL     1      32.562 -11.725 -22.509  0.00  0.00    +0.036 C 
ATOM      6  C   UNL     1      32.945 -13.038 -22.889  0.00  0.00    +0.056 C 
ATOM      7  C   UNL     1      31.858 -11.841 -21.314  0.00  0.00    +0.132 C 
ATOM      8  C   UNL     1      32.727 -10.436 -23.040  0.00  0.00    +0.005 C 
ATOM      9  C   UNL     1      32.472 -13.906 -21.927  0.00  0.00    +0.066 C 
ATOM     10  C   UNL     1      32.176  -9.367 -22.335  0.00  0.00    +0.021 C 
ATOM     11  C   UNL     1      31.498  -9.626 -21.153  0.00  0.00    +0.100 C 
ATOM     12  H   UNL     1      31.378 -13.536 -20.176  0.00  0.00    +0.154 HD
BRANCH  10  14
ATOM     13  N   UNL     1      31.287  -5.874 -23.289  0.00  0.00    -0.242 NA
ATOM     14  C   UNL     1      32.310  -8.015 -22.828  0.00  0.00    +0.021 C 
ATOM     15  C   UNL     1      33.529  -7.544 -23.306  0.00  0.00    +0.003 C 
ATOM     16  C   UNL     1      31.230  -7.148 -22.842  0.00  0.00    +0.099 C 
ATOM     17  C   UNL     1      33.626  -6.238 -23.776  0.00  0.00    +0.021 C 
ATOM     18  C   UNL     1      32.487  -5.451 -23.746  0.00  0.00    +0.099 C 
ENDBRANCH  10  14
ENDBRANCH   2   6
BRANCH   2  21
ATOM     19  F   UNL     1      35.464 -14.990 -22.498  0.00  0.00    -0.203 F 
ATOM     20  F   UNL     1      32.454 -14.857 -26.165  0.00  0.00    -0.204 F 
ATOM     21  C   UNL     1      33.955 -14.892 -24.322  0.00  0.00    +0.095 C 
ATOM     22  C   UNL     1      35.094 -16.951 -23.776  0.00  0.00    +0.092 C 
ATOM     23  C   UNL     1      34.846 -15.603 -23.519  0.00  0.00    +0.160 C 
ATOM     24  C   UNL     1      33.312 -15.529 -25.384  0.00  0.00    +0.145 C 
ATOM     25  C   UNL     1      34.451 -17.588 -24.838  0.00  0.00    +0.020 C 
ATOM     26  C   UNL     1      33.560 -16.877 -25.642  0.00  0.00    +0.031 C 
BRANCH  22  27
ATOM     27  N   UNL     1      36.006 -17.681 -22.956  0.00  0.00    -0.217 N 
ATOM     28  H   UNL     1      36.953 -17.774 -23.211  0.00  0.00    +0.173 HD
BRANCH  27  29
ATOM     29  S   UNL     1      35.407 -18.393 -21.508  0.00  0.00    +0.054 S 
ATOM     30  O   UNL     1      35.222 -17.344 -20.522  0.00  0.00    -0.154 OA
ATOM     31  O   UNL     1      34.338 -19.330 -21.795  0.00  0.00    -0.154 OA
BRANCH  29  32
ATOM     32  C   UNL     1      36.833 -19.329 -21.003  0.00  0.00    +0.172 C 
ATOM     33  C   UNL     1      36.438 -20.580 -20.251  0.00  0.00    +0.029 C 
ENDBRANCH  29  32
ENDBRANCH  27  29
ENDBRANCH  22  27
ENDBRANCH   2  21
TORSDOF 6
ENDMDL
MODEL 3
REMARK VINA RESULT:     -10.9      6.899     11.163
REMARK  Name = 24180720
REMARK  6 active torsions:
REMARK  status: ('A' for Active; 'I' for Inactive)
REMARK    1  A    between atoms: C_2  and  C_6
REMARK    2  A    between atoms: C_2  and  C_21
REMARK    3  A    between atoms: C_10  and  C_14
REMARK    4  A    between atoms: C_22  and  N_27
REMARK    5  A    between atoms: N_27  and  S_29
REMARK    6  A    between atoms: S_29  and  C_32
REMARK                            x       y       z     vdW  Elec       q    Type
REMARK                         _______ _______ _______ _____ _____    ______ ____
ROOT
ATOM      1  O   UNL     1      34.916 -13.270 -21.862  0.00  0.00    -0.286 OA
ATOM      2  C   UNL     1      33.977 -13.270 -22.680  0.00  0.00    +0.201 C 
ENDROOT
BRANCH   2   6
ATOM      3  N   UNL     1      33.245 -15.215 -25.629  0.00  0.00    -0.297 N 
ATOM      4  N   UNL     1      33.996 -17.474 -25.264  0.00  0.00    -0.229 NA
ATOM      5  C   UNL     1      34.193 -15.638 -23.651  0.00  0.00    +0.036 C 
ATOM      6  C   UNL     1      33.812 -14.271 -23.695  0.00  0.00    +0.056 C 
ATOM      7  C   UNL     1      33.824 -16.198 -24.871  0.00  0.00    +0.132 C 
ATOM      8  C   UNL     1      34.812 -16.480 -22.714  0.00  0.00    +0.005 C 
ATOM      9  C   UNL     1      33.232 -14.039 -24.924  0.00  0.00    +0.066 C 
ATOM     10  C   UNL     1      35.013 -17.812 -23.070  0.00  0.00    +0.021 C 
ATOM     11  C   UNL     1      34.596 -18.239 -24.323  0.00  0.00    +0.100 C 
ATOM     12  H   UNL     1      32.891 -15.334 -26.539  0.00  0.00    +0.154 HD
BRANCH  10  14
ATOM     13  N   UNL     1      37.630 -19.417 -20.954  0.00  0.00    -0.242 NA
ATOM     14  C   UNL     1      35.645 -18.731 -22.150  0.00  0.00    +0.021 C 
ATOM     15  C   UNL     1      34.932 -19.784 -21.586  0.00  0.00    +0.003 C 
ATOM     16  C   UNL     1      36.979 -18.594 -21.805  0.00  0.00    +0.099 C 
ATOM     17  C   UNL     1      35.568 -20.653 -20.706  0.00  0.00    +0.021 C 
ATOM     18  C   UNL     1      36.905 -20.429 -20.425  0.00  0.00    +0.099 C 
ENDBRANCH  10  14
ENDBRANCH   2   6
BRANCH   2  21
ATOM     19  F   UNL     1      34.386 -10.780 -23.933  0.00  0.00    -0.203 F 
ATOM     20  F   UNL     1      31.595 -13.439 -21.165  0.00  0.00    -0.204 F 
ATOM     21  C   UNL     1      33.013 -12.133 -22.554  0.00  0.00    +0.095 C 
ATOM     22  C   UNL     1      32.374  -9.864 -23.080  0.00  0.00    +0.092 C 
ATOM     23  C   UNL     1      33.272 -10.924 -23.199  0.00  0.00    +0.160 C 
ATOM     24  C   UNL     1      31.855 -12.282 -21.790  0.00  0.00    +0.145 C 
ATOM     25  C   UNL     1      31.216 -10.013 -22.317  0.00  0.00    +0.020 C 
ATOM     26  C   UNL     1      30.957 -11.222 -21.672  0.00  0.00    +0.031 C 
BRANCH  22  27
ATOM     27  N   UNL     1      32.637  -8.624 -23.738  0.00  0.00    -0.217 N 
ATOM     28  H   UNL     1      32.261  -8.435 -24.629  0.00  0.00    +0.173 HD
BRANCH  27  29
ATOM     29  S   UNL     1      33.629  -7.471 -22.934  0.00  0.00    +0.054 S 
ATOM     30  O   UNL     1      33.035  -7.175 -21.642  0.00  0.00    -0.154 OA
ATOM     31  O   UNL     1      35.030  -7.832 -23.034  0.00  0.00    -0.154 OA
BRANCH  29  32
ATOM     32  C   UNL     1      33.357  -6.047 -23.965  0.00  0.00    +0.172 C 
ATOM     33  C   UNL     1      34.500  -5.836 -24.932  0.00  0.00    +0.029 C 
ENDBRANCH  29  32
ENDBRANCH  27  29
ENDBRANCH  22  27
ENDBRANCH   2  21
TORSDOF 6
ENDMDL
MODEL 4
REMARK VINA RESULT:     -10.3      5.935     10.087
REMARK  Name = 24180720
REMARK  6 active torsions:
REMARK  status: ('A' for Active; 'I' for Inactive)
REMARK    1  A    between atoms: C_2  and  C_6
REMARK    2  A    between atoms: C_2  and  C_21
REMARK    3  A    between atoms: C_10  and  C_14
REMARK    4  A    between atoms: C_22  and  N_27
REMARK    5  A    between atoms: N_27  and  S_29
REMARK    6  A    between atoms: S_29  and  C_32
REMARK                            x       y       z     vdW  Elec       q    Type
REMARK                         _______ _______ _______ _____ _____    ______ ____
ROOT
ATOM      1  O   UNL     1      35.308 -14.202 -21.378  0.00  0.00    -0.286 OA
ATOM      2  C   UNL     1      34.407 -14.249 -22.236  0.00  0.00    +0.201 C 
ENDROOT
BRANCH   2   6
ATOM      3  N   UNL     1      34.045 -16.206 -25.244  0.00  0.00    -0.297 N 
ATOM      4  N   UNL     1      34.468 -18.517 -24.712  0.00  0.00    -0.229 NA
ATOM      5  C   UNL     1      34.550 -16.658 -23.116  0.00  0.00    +0.036 C 
ATOM      6  C   UNL     1      34.332 -15.261 -23.250  0.00  0.00    +0.056 C 
ATOM      7  C   UNL     1      34.362 -17.218 -24.377  0.00  0.00    +0.132 C 
ATOM      8  C   UNL     1      34.887 -17.527 -22.066  0.00  0.00    +0.005 C 
ATOM      9  C   UNL     1      34.023 -15.012 -24.571  0.00  0.00    +0.066 C 
ATOM     10  C   UNL     1      35.009 -18.883 -22.359  0.00  0.00    +0.021 C 
ATOM     11  C   UNL     1      34.795 -19.307 -23.663  0.00  0.00    +0.100 C 
ATOM     12  H   UNL     1      33.859 -16.320 -26.204  0.00  0.00    +0.154 HD
BRANCH  10  14
ATOM     13  N   UNL     1      34.643 -21.538 -19.766  0.00  0.00    -0.242 NA
ATOM     14  C   UNL     1      35.354 -19.831 -21.323  0.00  0.00    +0.021 C 
ATOM     15  C   UNL     1      36.666 -19.962 -20.879  0.00  0.00    +0.003 C 
ATOM     16  C   UNL     1      34.388 -20.634 -20.739  0.00  0.00    +0.099 C 
ATOM     17  C   UNL     1      36.966 -20.880 -19.879  0.00  0.00    +0.021 C 
ATOM     18  C   UNL     1      35.929 -21.637 -19.360  0.00  0.00    +0.099 C 
ENDBRANCH  10  14
ENDBRANCH   2   6
BRANCH   2  21
ATOM     19  F   UNL     1      34.565 -11.906 -23.793  0.00  0.00    -0.203 F 
ATOM     20  F   UNL     1      32.163 -14.361 -20.517  0.00  0.00    -0.204 F 
ATOM     21  C   UNL     1      33.388 -13.157 -22.159  0.00  0.00    +0.095 C 
ATOM     22  C   UNL     1      32.572 -11.001 -22.884  0.00  0.00    +0.092 C 
ATOM     23  C   UNL     1      33.522 -12.020 -22.956  0.00  0.00    +0.160 C 
ATOM     24  C   UNL     1      32.303 -13.275 -21.289  0.00  0.00    +0.145 C 
ATOM     25  C   UNL     1      31.488 -11.119 -22.014  0.00  0.00    +0.020 C 
ATOM     26  C   UNL     1      31.353 -12.256 -21.217  0.00  0.00    +0.031 C 
BRANCH  22  27
ATOM     27  N   UNL     1      32.707  -9.837 -23.699  0.00  0.00    -0.217 N 
ATOM     28  H   UNL     1      32.292  -9.792 -24.591  0.00  0.00    +0.173 HD
BRANCH  27  29
ATOM     29  S   UNL     1      33.616  -8.512 -23.079  0.00  0.00    +0.054 S 
ATOM     30  O   UNL     1      33.253  -8.318 -21.687  0.00  0.00    -0.154 OA
ATOM     31  O   UNL     1      35.009  -8.612 -23.470  0.00  0.00    -0.154 OA
BRANCH  29  32
ATOM     32  C   UNL     1      32.885  -7.174 -23.995  0.00  0.00    +0.172 C 
ATOM     33  C   UNL     1      33.910  -6.118 -24.345  0.00  0.00    +0.029 C 
ENDBRANCH  29  32
ENDBRANCH  27  29
ENDBRANCH  22  27
ENDBRANCH   2  21
TORSDOF 6
ENDMDL
MODEL 5
REMARK VINA RESULT:     -10.2      7.341     11.579
REMARK  Name = 24180720
REMARK  6 active torsions:
REMARK  status: ('A' for Active; 'I' for Inactive)
REMARK    1  A    between atoms: C_2  and  C_6
REMARK    2  A    between atoms: C_2  and  C_21
REMARK    3  A    between atoms: C_10  and  C_14
REMARK    4  A    between atoms: C_22  and  N_27
REMARK    5  A    between atoms: N_27  and  S_29
REMARK    6  A    between atoms: S_29  and  C_32
REMARK                            x       y       z     vdW  Elec       q    Type
REMARK                         _______ _______ _______ _____ _____    ______ ____
ROOT
ATOM      1  O   UNL     1      33.109 -13.509 -21.793  0.00  0.00    -0.286 OA
ATOM      2  C   UNL     1      33.246 -13.183 -22.986  0.00  0.00    +0.201 C 
ENDROOT
BRANCH   2   6
ATOM      3  N   UNL     1      33.191 -15.018 -26.091  0.00  0.00    -0.297 N 
ATOM      4  N   UNL     1      34.196 -17.177 -25.724  0.00  0.00    -0.229 NA
ATOM      5  C   UNL     1      33.918 -15.436 -24.021  0.00  0.00    +0.036 C 
ATOM      6  C   UNL     1      33.358 -14.131 -24.058  0.00  0.00    +0.056 C 
ATOM      7  C   UNL     1      33.797 -15.962 -25.304  0.00  0.00    +0.132 C 
ATOM      8  C   UNL     1      34.518 -16.245 -23.044  0.00  0.00    +0.005 C 
ATOM      9  C   UNL     1      32.920 -13.901 -25.345  0.00  0.00    +0.066 C 
ATOM     10  C   UNL     1      34.950 -17.514 -23.427  0.00  0.00    +0.021 C 
ATOM     11  C   UNL     1      34.767 -17.913 -24.743  0.00  0.00    +0.100 C 
ATOM     12  H   UNL     1      32.982 -15.126 -27.047  0.00  0.00    +0.154 HD
BRANCH  10  14
ATOM     13  N   UNL     1      37.561 -19.054 -21.257  0.00  0.00    -0.242 NA
ATOM     14  C   UNL     1      35.576 -18.397 -22.469  0.00  0.00    +0.021 C 
ATOM     15  C   UNL     1      34.852 -19.411 -21.849  0.00  0.00    +0.003 C 
ATOM     16  C   UNL     1      36.915 -18.263 -22.141  0.00  0.00    +0.099 C 
ATOM     17  C   UNL     1      35.483 -20.246 -20.934  0.00  0.00    +0.021 C 
ATOM     18  C   UNL     1      36.826 -20.029 -20.675  0.00  0.00    +0.099 C 
ENDBRANCH  10  14
ENDBRANCH   2   6
BRANCH   2  21
ATOM     19  F   UNL     1      31.621 -11.329 -21.622  0.00  0.00    -0.203 F 
ATOM     20  F   UNL     1      34.987 -12.030 -24.894  0.00  0.00    -0.204 F 
ATOM     21  C   UNL     1      33.301 -11.711 -23.249  0.00  0.00    +0.095 C 
ATOM     22  C   UNL     1      32.523  -9.472 -22.786  0.00  0.00    +0.092 C 
ATOM     23  C   UNL     1      32.471 -10.844 -22.540  0.00  0.00    +0.160 C 
ATOM     24  C   UNL     1      34.184 -11.207 -24.205  0.00  0.00    +0.145 C 
ATOM     25  C   UNL     1      33.405  -8.968 -23.741  0.00  0.00    +0.020 C 
ATOM     26  C   UNL     1      34.236  -9.835 -24.451  0.00  0.00    +0.031 C 
BRANCH  22  27
ATOM     27  N   UNL     1      31.673  -8.582 -22.062  0.00  0.00    -0.217 N 
ATOM     28  H   UNL     1      30.728  -8.466 -22.316  0.00  0.00    +0.173 HD
BRANCH  27  29
ATOM     29  S   UNL     1      32.344  -7.717 -20.734  0.00  0.00    +0.054 S 
ATOM     30  O   UNL     1      31.777  -8.247 -19.507  0.00  0.00    -0.154 OA
ATOM     31  O   UNL     1      33.779  -7.574 -20.881  0.00  0.00    -0.154 OA
BRANCH  29  32
ATOM     32  C   UNL     1      31.607  -6.119 -20.995  0.00  0.00    +0.172 C 
ATOM     33  C   UNL     1      31.603  -5.742 -22.459  0.00  0.00    +0.029 C 
ENDBRANCH  29  32
ENDBRANCH  27  29
ENDBRANCH  22  27
ENDBRANCH   2  21
TORSDOF 6
ENDMDL
MODEL 6
REMARK VINA RESULT:     -10.0      3.081      9.021
REMARK  Name = 24180720
REMARK  6 active torsions:
REMARK  status: ('A' for Active; 'I' for Inactive)
REMARK    1  A    between atoms: C_2  and  C_6
REMARK    2  A    between atoms: C_2  and  C_21
REMARK    3  A    between atoms: C_10  and  C_14
REMARK    4  A    between atoms: C_22  and  N_27
REMARK    5  A    between atoms: N_27  and  S_29
REMARK    6  A    between atoms: S_29  and  C_32
REMARK                            x       y       z     vdW  Elec       q    Type
REMARK                         _______ _______ _______ _____ _____    ______ ____
ROOT
ATOM      1  O   UNL     1      33.543 -23.292 -19.826  0.00  0.00    -0.286 OA
ATOM      2  C   UNL     1      34.098 -22.818 -18.817  0.00  0.00    +0.201 C 
ENDROOT
BRANCH   2   6
ATOM      3  N   UNL     1      37.239 -21.116 -18.321  0.00  0.00    -0.297 N 
ATOM      4  N   UNL     1      37.535 -19.516 -20.098  0.00  0.00    -0.229 NA
ATOM      5  C   UNL     1      35.605 -21.007 -19.840  0.00  0.00    +0.036 C 
ATOM      6  C   UNL     1      35.270 -21.992 -18.873  0.00  0.00    +0.056 C 
ATOM      7  C   UNL     1      36.838 -20.479 -19.466  0.00  0.00    +0.132 C 
ATOM      8  C   UNL     1      35.007 -20.492 -21.000  0.00  0.00    +0.005 C 
ATOM      9  C   UNL     1      36.294 -22.037 -17.951  0.00  0.00    +0.066 C 
ATOM     10  C   UNL     1      35.686 -19.492 -21.693  0.00  0.00    +0.021 C 
ATOM     11  C   UNL     1      36.912 -19.057 -21.208  0.00  0.00    +0.100 C 
ATOM     12  H   UNL     1      38.078 -20.938 -17.837  0.00  0.00    +0.154 HD
BRANCH  10  14
ATOM     13  N   UNL     1      34.649 -16.952 -24.218  0.00  0.00    -0.242 NA
ATOM     14  C   UNL     1      35.124 -18.919 -22.895  0.00  0.00    +0.021 C 
ATOM     15  C   UNL     1      34.530 -19.723 -23.862  0.00  0.00    +0.003 C 
ATOM     16  C   UNL     1      35.157 -17.552 -23.119  0.00  0.00    +0.099 C 
ATOM     17  C   UNL     1      33.995 -19.142 -25.007  0.00  0.00    +0.021 C 
ATOM     18  C   UNL     1      34.080 -17.766 -25.137  0.00  0.00    +0.099 C 
ENDBRANCH  10  14
ENDBRANCH   2   6
BRANCH   2  21
ATOM     19  F   UNL     1      35.428 -24.342 -16.856  0.00  0.00    -0.203 F 
ATOM     20  F   UNL     1      31.478 -22.027 -18.105  0.00  0.00    -0.204 F 
ATOM     21  C   UNL     1      33.469 -23.177 -17.508  0.00  0.00    +0.095 C 
ATOM     22  C   UNL     1      33.593 -24.270 -15.357  0.00  0.00    +0.092 C 
ATOM     23  C   UNL     1      34.180 -23.935 -16.578  0.00  0.00    +0.160 C 
ATOM     24  C   UNL     1      32.172 -22.754 -17.219  0.00  0.00    +0.145 C 
ATOM     25  C   UNL     1      32.296 -23.848 -15.068  0.00  0.00    +0.020 C 
ATOM     26  C   UNL     1      31.585 -23.090 -15.999  0.00  0.00    +0.031 C 
BRANCH  22  27
ATOM     27  N   UNL     1      34.318 -25.047 -14.403  0.00  0.00    -0.217 N 
ATOM     28  H   UNL     1      34.209 -26.025 -14.360  0.00  0.00    +0.173 HD
BRANCH  27  29
ATOM     29  S   UNL     1      35.388 -24.227 -13.333  0.00  0.00    +0.054 S 
ATOM     30  O   UNL     1      35.924 -23.066 -14.019  0.00  0.00    -0.154 OA
ATOM     31  O   UNL     1      34.802 -24.098 -12.013  0.00  0.00    -0.154 OA
BRANCH  29  32
ATOM     32  C   UNL     1      36.705 -25.419 -13.231  0.00  0.00    +0.172 C 
ATOM     33  C   UNL     1      36.856 -26.190 -14.523  0.00  0.00    +0.029 C 
ENDBRANCH  29  32
ENDBRANCH  27  29
ENDBRANCH  22  27
ENDBRANCH   2  21
TORSDOF 6
ENDMDL
MODEL 7
REMARK VINA RESULT:     -10.0      3.733      8.780
REMARK  Name = 24180720
REMARK  6 active torsions:
REMARK  status: ('A' for Active; 'I' for Inactive)
REMARK    1  A    between atoms: C_2  and  C_6
REMARK    2  A    between atoms: C_2  and  C_21
REMARK    3  A    between atoms: C_10  and  C_14
REMARK    4  A    between atoms: C_22  and  N_27
REMARK    5  A    between atoms: N_27  and  S_29
REMARK    6  A    between atoms: S_29  and  C_32
REMARK                            x       y       z     vdW  Elec       q    Type
REMARK                         _______ _______ _______ _____ _____    ______ ____
ROOT
ATOM      1  O   UNL     1      33.525 -23.343 -19.848  0.00  0.00    -0.286 OA
ATOM      2  C   UNL     1      34.047 -22.830 -18.841  0.00  0.00    +0.201 C 
ENDROOT
BRANCH   2   6
ATOM      3  N   UNL     1      37.209 -21.169 -18.332  0.00  0.00    -0.297 N 
ATOM      4  N   UNL     1      37.519 -19.553 -20.092  0.00  0.00    -0.229 NA
ATOM      5  C   UNL     1      35.573 -21.024 -19.846  0.00  0.00    +0.036 C 
ATOM      6  C   UNL     1      35.228 -22.016 -18.890  0.00  0.00    +0.056 C 
ATOM      7  C   UNL     1      36.813 -20.515 -19.469  0.00  0.00    +0.132 C 
ATOM      8  C   UNL     1      34.978 -20.489 -20.999  0.00  0.00    +0.005 C 
ATOM      9  C   UNL     1      36.254 -22.084 -17.971  0.00  0.00    +0.066 C 
ATOM     10  C   UNL     1      35.668 -19.489 -21.682  0.00  0.00    +0.021 C 
ATOM     11  C   UNL     1      36.899 -19.074 -21.195  0.00  0.00    +0.100 C 
ATOM     12  H   UNL     1      38.050 -21.007 -17.848  0.00  0.00    +0.154 HD
BRANCH  10  14
ATOM     13  N   UNL     1      34.701 -16.915 -24.201  0.00  0.00    -0.242 NA
ATOM     14  C   UNL     1      35.110 -18.896 -22.876  0.00  0.00    +0.021 C 
ATOM     15  C   UNL     1      34.461 -19.675 -23.828  0.00  0.00    +0.003 C 
ATOM     16  C   UNL     1      35.201 -17.533 -23.108  0.00  0.00    +0.099 C 
ATOM     17  C   UNL     1      33.932 -19.075 -24.966  0.00  0.00    +0.021 C 
ATOM     18  C   UNL     1      34.077 -17.705 -25.104  0.00  0.00    +0.099 C 
ENDBRANCH  10  14
ENDBRANCH   2   6
BRANCH   2  21
ATOM     19  F   UNL     1      31.392 -22.059 -18.301  0.00  0.00    -0.203 F 
ATOM     20  F   UNL     1      35.319 -24.206 -16.723  0.00  0.00    -0.204 F 
ATOM     21  C   UNL     1      33.368 -23.126 -17.542  0.00  0.00    +0.095 C 
ATOM     22  C   UNL     1      31.417 -22.993 -16.123  0.00  0.00    +0.092 C 
ATOM     23  C   UNL     1      32.050 -22.717 -17.335  0.00  0.00    +0.160 C 
ATOM     24  C   UNL     1      34.052 -23.809 -16.538  0.00  0.00    +0.145 C 
ATOM     25  C   UNL     1      32.102 -23.677 -15.118  0.00  0.00    +0.020 C 
ATOM     26  C   UNL     1      33.419 -24.085 -15.326  0.00  0.00    +0.031 C 
BRANCH  22  27
ATOM     27  N   UNL     1      30.069 -22.575 -15.908  0.00  0.00    -0.217 N 
ATOM     28  H   UNL     1      29.868 -21.680 -15.550  0.00  0.00    +0.173 HD
BRANCH  27  29
ATOM     29  S   UNL     1      28.805 -23.679 -16.292  0.00  0.00    +0.054 S 
ATOM     30  O   UNL     1      28.758 -23.839 -17.735  0.00  0.00    -0.154 OA
ATOM     31  O   UNL     1      28.847 -24.838 -15.424  0.00  0.00    -0.154 OA
BRANCH  29  32
ATOM     32  C   UNL     1      27.388 -22.705 -15.835  0.00  0.00    +0.172 C 
ATOM     33  C   UNL     1      26.691 -22.135 -17.050  0.00  0.00    +0.029 C 
ENDBRANCH  29  32
ENDBRANCH  27  29
ENDBRANCH  22  27
ENDBRANCH   2  21
TORSDOF 6
ENDMDL
MODEL 8
REMARK VINA RESULT:     -10.0      7.964     12.504
REMARK  Name = 24180720
REMARK  6 active torsions:
REMARK  status: ('A' for Active; 'I' for Inactive)
REMARK    1  A    between atoms: C_2  and  C_6
REMARK    2  A    between atoms: C_2  and  C_21
REMARK    3  A    between atoms: C_10  and  C_14
REMARK    4  A    between atoms: C_22  and  N_27
REMARK    5  A    between atoms: N_27  and  S_29
REMARK    6  A    between atoms: S_29  and  C_32
REMARK                            x       y       z     vdW  Elec       q    Type
REMARK                         _______ _______ _______ _____ _____    ______ ____
ROOT
ATOM      1  O   UNL     1      35.084 -11.395 -23.777  0.00  0.00    -0.286 OA
ATOM      2  C   UNL     1      33.939 -11.845 -23.966  0.00  0.00    +0.201 C 
ENDROOT
BRANCH   2   6
ATOM      3  N   UNL     1      32.937 -13.731 -26.873  0.00  0.00    -0.297 N 
ATOM      4  N   UNL     1      33.347 -16.067 -26.451  0.00  0.00    -0.229 NA
ATOM      5  C   UNL     1      33.807 -14.241 -24.880  0.00  0.00    +0.036 C 
ATOM      6  C   UNL     1      33.631 -12.834 -24.958  0.00  0.00    +0.056 C 
ATOM      7  C   UNL     1      33.364 -14.770 -26.089  0.00  0.00    +0.132 C 
ATOM      8  C   UNL     1      34.294 -15.142 -23.920  0.00  0.00    +0.005 C 
ATOM      9  C   UNL     1      33.094 -12.549 -26.196  0.00  0.00    +0.066 C 
ATOM     10  C   UNL     1      34.299 -16.497 -24.243  0.00  0.00    +0.021 C 
ATOM     11  C   UNL     1      33.827 -16.889 -25.488  0.00  0.00    +0.100 C 
ATOM     12  H   UNL     1      32.571 -13.820 -27.782  0.00  0.00    +0.154 HD
BRANCH  10  14
ATOM     13  N   UNL     1      35.041 -19.799 -22.678  0.00  0.00    -0.242 NA
ATOM     14  C   UNL     1      34.786 -17.477 -23.299  0.00  0.00    +0.021 C 
ATOM     15  C   UNL     1      35.444 -17.086 -22.137  0.00  0.00    +0.003 C 
ATOM     16  C   UNL     1      34.612 -18.833 -23.520  0.00  0.00    +0.099 C 
ATOM     17  C   UNL     1      35.900 -18.052 -21.245  0.00  0.00    +0.021 C 
ATOM     18  C   UNL     1      35.676 -19.382 -21.559  0.00  0.00    +0.099 C 
ENDBRANCH  10  14
ENDBRANCH   2   6
BRANCH   2  21
ATOM     19  F   UNL     1      33.070  -9.172 -24.170  0.00  0.00    -0.203 F 
ATOM     20  F   UNL     1      32.622 -13.352 -21.968  0.00  0.00    -0.204 F 
ATOM     21  C   UNL     1      32.870 -11.272 -23.090  0.00  0.00    +0.095 C 
ATOM     22  C   UNL     1      31.487  -9.407 -22.422  0.00  0.00    +0.092 C 
ATOM     23  C   UNL     1      32.483  -9.941 -23.240  0.00  0.00    +0.160 C 
ATOM     24  C   UNL     1      32.260 -12.071 -22.123  0.00  0.00    +0.145 C 
ATOM     25  C   UNL     1      30.877 -10.206 -21.455  0.00  0.00    +0.020 C 
ATOM     26  C   UNL     1      31.264 -11.538 -21.305  0.00  0.00    +0.031 C 
BRANCH  22  27
ATOM     27  N   UNL     1      31.090  -8.044 -22.573  0.00  0.00    -0.217 N 
ATOM     28  H   UNL     1      30.275  -7.807 -23.074  0.00  0.00    +0.173 HD
BRANCH  27  29
ATOM     29  S   UNL     1      32.074  -6.827 -21.856  0.00  0.00    +0.054 S 
ATOM     30  O   UNL     1      32.353  -7.211 -20.485  0.00  0.00    -0.154 OA
ATOM     31  O   UNL     1      33.150  -6.439 -22.747  0.00  0.00    -0.154 OA
BRANCH  29  32
ATOM     32  C   UNL     1      30.910  -5.482 -21.788  0.00  0.00    +0.172 C 
ATOM     33  C   UNL     1      31.197  -4.447 -22.853  0.00  0.00    +0.029 C 
ENDBRANCH  29  32
ENDBRANCH  27  29
ENDBRANCH  22  27
ENDBRANCH   2  21
TORSDOF 6
ENDMDL
MODEL 9
REMARK VINA RESULT:      -9.9      7.201     13.609
REMARK  Name = 24180720
REMARK  6 active torsions:
REMARK  status: ('A' for Active; 'I' for Inactive)
REMARK    1  A    between atoms: C_2  and  C_6
REMARK    2  A    between atoms: C_2  and  C_21
REMARK    3  A    between atoms: C_10  and  C_14
REMARK    4  A    between atoms: C_22  and  N_27
REMARK    5  A    between atoms: N_27  and  S_29
REMARK    6  A    between atoms: S_29  and  C_32
REMARK                            x       y       z     vdW  Elec       q    Type
REMARK                         _______ _______ _______ _____ _____    ______ ____
ROOT
ATOM      1  O   UNL     1      32.443 -13.328 -22.958  0.00  0.00    -0.286 OA
ATOM      2  C   UNL     1      33.339 -13.382 -23.821  0.00  0.00    +0.201 C 
ENDROOT
BRANCH   2   6
ATOM      3  N   UNL     1      35.034 -10.964 -25.892  0.00  0.00    -0.297 N 
ATOM      4  N   UNL     1      34.751  -8.781 -24.913  0.00  0.00    -0.229 NA
ATOM      5  C   UNL     1      33.846 -10.870 -24.003  0.00  0.00    +0.036 C 
ATOM      6  C   UNL     1      33.913 -12.221 -24.438  0.00  0.00    +0.056 C 
ATOM      7  C   UNL     1      34.555 -10.113 -24.931  0.00  0.00    +0.132 C 
ATOM      8  C   UNL     1      33.264 -10.190 -22.923  0.00  0.00    +0.005 C 
ATOM      9  C   UNL     1      34.650 -12.248 -25.603  0.00  0.00    +0.066 C 
ATOM     10  C   UNL     1      33.436  -8.808 -22.856  0.00  0.00    +0.021 C 
ATOM     11  C   UNL     1      34.169  -8.177 -23.851  0.00  0.00    +0.100 C 
ATOM     12  H   UNL     1      35.572 -10.694 -26.671  0.00  0.00    +0.154 HD
BRANCH  10  14
ATOM     13  N   UNL     1      32.063  -7.987 -19.488  0.00  0.00    -0.242 NA
ATOM     14  C   UNL     1      32.862  -8.048 -21.768  0.00  0.00    +0.021 C 
ATOM     15  C   UNL     1      32.554  -6.700 -21.921  0.00  0.00    +0.003 C 
ATOM     16  C   UNL     1      32.599  -8.639 -20.543  0.00  0.00    +0.099 C 
ATOM     17  C   UNL     1      32.000  -5.996 -20.857  0.00  0.00    +0.021 C 
ATOM     18  C   UNL     1      31.777  -6.679 -19.673  0.00  0.00    +0.099 C 
ENDBRANCH  10  14
ENDBRANCH   2   6
BRANCH   2  21
ATOM     19  F   UNL     1      35.177 -14.863 -22.283  0.00  0.00    -0.203 F 
ATOM     20  F   UNL     1      32.413 -14.713 -26.138  0.00  0.00    -0.204 F 
ATOM     21  C   UNL     1      33.787 -14.758 -24.200  0.00  0.00    +0.095 C 
ATOM     22  C   UNL     1      35.118 -16.723 -23.750  0.00  0.00    +0.092 C 
ATOM     23  C   UNL     1      34.700 -15.440 -23.396  0.00  0.00    +0.160 C 
ATOM     24  C   UNL     1      33.291 -15.358 -25.357  0.00  0.00    +0.145 C 
ATOM     25  C   UNL     1      34.622 -17.323 -24.907  0.00  0.00    +0.020 C 
ATOM     26  C   UNL     1      33.708 -16.641 -25.711  0.00  0.00    +0.031 C 
BRANCH  22  27
ATOM     27  N   UNL     1      36.053 -17.424 -22.930  0.00  0.00    -0.217 N 
ATOM     28  H   UNL     1      37.015 -17.418 -23.142  0.00  0.00    +0.173 HD
BRANCH  27  29
ATOM     29  S   UNL     1      35.454 -18.277 -21.560  0.00  0.00    +0.054 S 
ATOM     30  O   UNL     1      35.204 -17.321 -20.497  0.00  0.00    -0.154 OA
ATOM     31  O   UNL     1      34.433 -19.230 -21.949  0.00  0.00    -0.154 OA
BRANCH  29  32
ATOM     32  C   UNL     1      36.908 -19.192 -21.099  0.00  0.00    +0.172 C 
ATOM     33  C   UNL     1      36.553 -20.463 -20.360  0.00  0.00    +0.029 C 
ENDBRANCH  29  32
ENDBRANCH  27  29
ENDBRANCH  22  27
ENDBRANCH   2  21
TORSDOF 6
ENDMDL
