MODEL 1
REMARK VINA RESULT:     -12.1      0.000      0.000
REMARK  Name = 118161062
REMARK  4 active torsions:
REMARK  status: ('A' for Active; 'I' for Inactive)
REMARK    1  A    between atoms: N_1  and  C_26
REMARK    2  A    between atoms: C_7  and  C_15
REMARK    3  A    between atoms: C_21  and  N_28
REMARK    4  A    between atoms: N_27  and  C_35
REMARK                            x       y       z     vdW  Elec       q    Type
REMARK                         _______ _______ _______ _____ _____    ______ ____
ROOT
ATOM      1  N   UNL     1      36.125 -23.145 -16.812  0.00  0.00    -0.286 N 
ATOM      2  N   UNL     1      34.751 -24.014 -13.488  0.00  0.00    -0.260 N 
ATOM      3  N   UNL     1      33.940 -23.550 -16.093  0.00  0.00    -0.384 NA
ATOM      4  N   UNL     1      36.894 -23.664 -13.997  0.00  0.00    -0.224 NA
ATOM      5  C   UNL     1      35.227 -23.461 -15.821  0.00  0.00    +0.216 C 
ATOM      6  C   UNL     1      35.666 -23.705 -14.460  0.00  0.00    +0.180 C 
ATOM      7  C   UNL     1      33.038 -23.874 -15.080  0.00  0.00    +0.162 C 
ATOM      8  C   UNL     1      33.410 -24.098 -13.800  0.00  0.00    +0.159 C 
ATOM      9  C   UNL     1      35.442 -24.182 -12.321  0.00  0.00    +0.088 C 
ATOM     10  C   UNL     1      36.761 -23.962 -12.661  0.00  0.00    +0.117 C 
ATOM     11  H   UNL     1      37.031 -23.517 -16.713  0.00  0.00    +0.155 HD
ENDROOT
BRANCH   7  15
ATOM     12  N   UNL     1      30.850 -24.844 -14.790  0.00  0.00    -0.386 NA
ATOM     13  N   UNL     1      29.780 -23.173 -16.772  0.00  0.00    -0.257 NA
ATOM     14  N   UNL     1      28.686 -25.811 -14.498  0.00  0.00    -0.335 N 
ATOM     15  C   UNL     1      31.605 -23.944 -15.449  0.00  0.00    +0.178 C 
ATOM     16  C   UNL     1      31.080 -23.122 -16.422  0.00  0.00    +0.128 C 
ATOM     17  C   UNL     1      29.549 -24.894 -15.140  0.00  0.00    +0.179 C 
ATOM     18  C   UNL     1      29.023 -24.073 -16.113  0.00  0.00    +0.199 C 
ATOM     19  H   UNL     1      29.036 -26.409 -13.799  0.00  0.00    +0.144 HD
ATOM     20  H   UNL     1      27.736 -25.851 -14.751  0.00  0.00    +0.144 HD
ENDBRANCH   7  15
BRANCH   1  26
ATOM     21  C   UNL     1      35.459 -20.773 -20.214  0.00  0.00    +0.048 C 
ATOM     22  C   UNL     1      36.729 -20.829 -19.641  0.00  0.00    +0.016 C 
ATOM     23  C   UNL     1      34.409 -21.505 -19.657  0.00  0.00    +0.016 C 
ATOM     24  C   UNL     1      36.951 -21.617 -18.512  0.00  0.00    +0.016 C 
ATOM     25  C   UNL     1      34.632 -22.293 -18.528  0.00  0.00    +0.016 C 
ATOM     26  C   UNL     1      35.902 -22.350 -17.955  0.00  0.00    +0.050 C 
BRANCH  21  28
ATOM     27  N   UNL     1      34.697 -18.179 -23.491  0.00  0.00    +0.394 N 
ATOM     28  N   UNL     1      35.236 -19.982 -21.346  0.00  0.00    -0.312 N 
ATOM     29  C   UNL     1      36.066 -18.335 -22.982  0.00  0.00    -0.055 C 
ATOM     30  C   UNL     1      33.982 -19.457 -23.401  0.00  0.00    -0.055 C 
ATOM     31  C   UNL     1      36.054 -18.774 -21.516  0.00  0.00    +0.068 C 
ATOM     32  C   UNL     1      33.900 -19.935 -21.950  0.00  0.00    +0.068 C 
ATOM     33  H   UNL     1      34.209 -17.480 -22.932  0.00  0.00    -0.079 HD
BRANCH  27  35
ATOM     34  O   UNL     1      33.002 -17.235 -26.015  0.00  0.00    -0.358 OA
ATOM     35  C   UNL     1      34.747 -17.747 -24.898  0.00  0.00    +0.002 C 
ATOM     36  C   UNL     1      33.665 -18.483 -25.688  0.00  0.00    +0.124 C 
ATOM     37  C   UNL     1      33.847 -16.523 -25.075  0.00  0.00    +0.124 C 
ENDBRANCH  27  35
ENDBRANCH  21  28
ENDBRANCH   1  26
TORSDOF 4
ENDMDL
