MODEL 1
REMARK VINA RESULT:     -11.7      0.000      0.000
REMARK  Name = 12136798
REMARK  7 active torsions:
REMARK  status: ('A' for Active; 'I' for Inactive)
REMARK    1  A    between atoms: C_1  and  C_21
REMARK    2  A    between atoms: C_2  and  C_9
REMARK    3  A    between atoms: N_8  and  C_12
REMARK    4  A    between atoms: C_13  and  N_18
REMARK    5  A    between atoms: C_21  and  N_23
REMARK    6  A    between atoms: C_24  and  C_26
REMARK    7  A    between atoms: C_27  and  C_29
REMARK                            x       y       z     vdW  Elec       q    Type
REMARK                         _______ _______ _______ _____ _____    ______ ____
ROOT
ATOM      1  C   UNL     1      35.703 -19.866 -21.036  0.00  0.00    -0.003 C 
ATOM      2  C   UNL     1      34.496 -21.855 -19.515  0.00  0.00    +0.054 C 
ATOM      3  C   UNL     1      34.320 -20.001 -21.053  0.00  0.00    -0.002 C 
ATOM      4  C   UNL     1      36.489 -20.716 -20.268  0.00  0.00    -0.002 C 
ATOM      5  C   UNL     1      33.714 -20.998 -20.289  0.00  0.00    +0.004 C 
ATOM      6  C   UNL     1      35.884 -21.714 -19.504  0.00  0.00    +0.004 C 
ENDROOT
BRANCH   2   9
ATOM      7  O   UNL     1      33.908 -24.071 -19.121  0.00  0.00    -0.270 OA
ATOM      8  N   UNL     1      33.268 -22.476 -17.524  0.00  0.00    -0.279 N 
ATOM      9  C   UNL     1      33.865 -22.898 -18.720  0.00  0.00    +0.250 C 
ATOM     10  H   UNL     1      33.315 -21.510 -17.340  0.00  0.00    +0.155 HD
BRANCH   8  12
ATOM     11  F   UNL     1      30.621 -25.516 -13.743  0.00  0.00    -0.204 F 
ATOM     12  C   UNL     1      32.607 -23.258 -16.545  0.00  0.00    +0.064 C 
ATOM     13  C   UNL     1      33.321 -23.832 -15.507  0.00  0.00    +0.057 C 
ATOM     14  C   UNL     1      31.236 -23.431 -16.660  0.00  0.00    +0.018 C 
ATOM     15  C   UNL     1      32.648 -24.598 -14.555  0.00  0.00    +0.045 C 
ATOM     16  C   UNL     1      30.563 -24.196 -15.708  0.00  0.00    +0.031 C 
ATOM     17  C   UNL     1      31.268 -24.781 -14.656  0.00  0.00    +0.141 C 
BRANCH  13  18
ATOM     18  N   UNL     1      34.718 -23.661 -15.385  0.00  0.00    -0.356 N 
ATOM     19  H   UNL     1      35.119 -22.773 -15.528  0.00  0.00    +0.142 HD
ATOM     20  H   UNL     1      35.291 -24.428 -15.155  0.00  0.00    +0.142 HD
ENDBRANCH  13  18
ENDBRANCH   8  12
ENDBRANCH   2   9
BRANCH   1  21
ATOM     21  C   UNL     1      36.356 -18.792 -21.857  0.00  0.00    +0.117 C 
BRANCH  21  23
ATOM     22  O   UNL     1      35.319 -17.097 -23.966  0.00  0.00    -0.270 OA
ATOM     23  N   UNL     1      35.690 -17.517 -21.710  0.00  0.00    -0.297 N 
ATOM     24  C   UNL     1      35.226 -16.778 -22.785  0.00  0.00    +0.246 C 
ATOM     25  H   UNL     1      35.559 -17.158 -20.802  0.00  0.00    +0.150 HD
BRANCH  24  26
ATOM     26  C   UNL     1      34.582 -15.507 -22.347  0.00  0.00    +0.058 C 
ATOM     27  C   UNL     1      34.102 -14.651 -23.260  0.00  0.00    +0.006 C 
BRANCH  27  29
ATOM     28  N   UNL     1      33.126 -11.050 -23.448  0.00  0.00    -0.242 NA
ATOM     29  C   UNL     1      33.438 -13.374 -22.941  0.00  0.00    +0.019 C 
ATOM     30  C   UNL     1      32.546 -13.298 -21.892  0.00  0.00    +0.003 C 
ATOM     31  C   UNL     1      33.701 -12.251 -23.687  0.00  0.00    +0.099 C 
ATOM     32  C   UNL     1      31.935 -12.081 -21.614  0.00  0.00    +0.021 C 
ATOM     33  C   UNL     1      32.255 -10.997 -22.415  0.00  0.00    +0.099 C 
ENDBRANCH  27  29
ENDBRANCH  24  26
ENDBRANCH  21  23
ENDBRANCH   1  21
TORSDOF 7
ENDMDL
MODEL 2
REMARK VINA RESULT:     -11.4      5.771     12.145
REMARK  Name = 12136798
REMARK  7 active torsions:
REMARK  status: ('A' for Active; 'I' for Inactive)
REMARK    1  A    between atoms: C_1  and  C_21
REMARK    2  A    between atoms: C_2  and  C_9
REMARK    3  A    between atoms: N_8  and  C_12
REMARK    4  A    between atoms: C_13  and  N_18
REMARK    5  A    between atoms: C_21  and  N_23
REMARK    6  A    between atoms: C_24  and  C_26
REMARK    7  A    between atoms: C_27  and  C_29
REMARK                            x       y       z     vdW  Elec       q    Type
REMARK                         _______ _______ _______ _____ _____    ______ ____
ROOT
ATOM      1  C   UNL     1      33.493 -14.620 -25.399  0.00  0.00    -0.003 C 
ATOM      2  C   UNL     1      33.772 -12.021 -24.452  0.00  0.00    +0.054 C 
ATOM      3  C   UNL     1      33.443 -13.554 -26.290  0.00  0.00    -0.002 C 
ATOM      4  C   UNL     1      33.680 -14.400 -24.040  0.00  0.00    -0.002 C 
ATOM      5  C   UNL     1      33.583 -12.250 -25.815  0.00  0.00    +0.004 C 
ATOM      6  C   UNL     1      33.820 -13.096 -23.565  0.00  0.00    +0.004 C 
ENDROOT
BRANCH   2   9
ATOM      7  O   UNL     1      34.978 -10.054 -24.163  0.00  0.00    -0.270 OA
ATOM      8  N   UNL     1      32.801 -10.132 -23.292  0.00  0.00    -0.279 N 
ATOM      9  C   UNL     1      33.916 -10.661 -23.957  0.00  0.00    +0.250 C 
ATOM     10  H   UNL     1      32.028 -10.736 -23.205  0.00  0.00    +0.155 HD
BRANCH   8  12
ATOM     11  F   UNL     1      32.196  -5.068 -21.161  0.00  0.00    -0.204 F 
ATOM     12  C   UNL     1      32.641  -8.842 -22.728  0.00  0.00    +0.064 C 
ATOM     13  C   UNL     1      32.221  -8.698 -21.417  0.00  0.00    +0.057 C 
ATOM     14  C   UNL     1      32.913  -7.740 -23.524  0.00  0.00    +0.018 C 
ATOM     15  C   UNL     1      32.070  -7.417 -20.884  0.00  0.00    +0.045 C 
ATOM     16  C   UNL     1      32.762  -6.460 -22.991  0.00  0.00    +0.031 C 
ATOM     17  C   UNL     1      32.340  -6.298 -21.672  0.00  0.00    +0.141 C 
BRANCH  13  18
ATOM     18  N   UNL     1      31.941  -9.817 -20.601  0.00  0.00    -0.356 N 
ATOM     19  H   UNL     1      32.646 -10.479 -20.417  0.00  0.00    +0.142 HD
ATOM     20  H   UNL     1      31.043  -9.934 -20.216  0.00  0.00    +0.142 HD
ENDBRANCH  13  18
ENDBRANCH   8  12
ENDBRANCH   2   9
BRANCH   1  21
ATOM     21  C   UNL     1      33.343 -16.024 -25.909  0.00  0.00    +0.117 C 
BRANCH  21  23
ATOM     22  O   UNL     1      32.969 -18.897 -25.876  0.00  0.00    -0.270 OA
ATOM     23  N   UNL     1      34.005 -16.985 -25.056  0.00  0.00    -0.297 N 
ATOM     24  C   UNL     1      33.758 -18.346 -25.116  0.00  0.00    +0.246 C 
ATOM     25  H   UNL     1      34.663 -16.655 -24.401  0.00  0.00    +0.150 HD
BRANCH  24  26
ATOM     26  C   UNL     1      34.576 -19.101 -24.125  0.00  0.00    +0.058 C 
ATOM     27  C   UNL     1      34.598 -18.714 -22.841  0.00  0.00    +0.006 C 
BRANCH  27  29
ATOM     28  N   UNL     1      37.319 -19.459 -20.393  0.00  0.00    -0.242 NA
ATOM     29  C   UNL     1      35.361 -19.391 -21.777  0.00  0.00    +0.019 C 
ATOM     30  C   UNL     1      34.865 -20.535 -21.187  0.00  0.00    +0.003 C 
ATOM     31  C   UNL     1      36.570 -18.887 -21.364  0.00  0.00    +0.099 C 
ATOM     32  C   UNL     1      35.607 -21.153 -20.186  0.00  0.00    +0.021 C 
ATOM     33  C   UNL     1      36.816 -20.579 -19.828  0.00  0.00    +0.099 C 
ENDBRANCH  27  29
ENDBRANCH  24  26
ENDBRANCH  21  23
ENDBRANCH   1  21
TORSDOF 7
ENDMDL
MODEL 3
REMARK VINA RESULT:     -11.3      0.849      1.839
REMARK  Name = 12136798
REMARK  7 active torsions:
REMARK  status: ('A' for Active; 'I' for Inactive)
REMARK    1  A    between atoms: C_1  and  C_21
REMARK    2  A    between atoms: C_2  and  C_9
REMARK    3  A    between atoms: N_8  and  C_12
REMARK    4  A    between atoms: C_13  and  N_18
REMARK    5  A    between atoms: C_21  and  N_23
REMARK    6  A    between atoms: C_24  and  C_26
REMARK    7  A    between atoms: C_27  and  C_29
REMARK                            x       y       z     vdW  Elec       q    Type
REMARK                         _______ _______ _______ _____ _____    ______ ____
ROOT
ATOM      1  C   UNL     1      35.709 -20.201 -20.710  0.00  0.00    -0.003 C 
ATOM      2  C   UNL     1      34.458 -22.127 -19.146  0.00  0.00    +0.054 C 
ATOM      3  C   UNL     1      36.473 -21.025 -19.893  0.00  0.00    -0.002 C 
ATOM      4  C   UNL     1      34.326 -20.328 -20.753  0.00  0.00    -0.002 C 
ATOM      5  C   UNL     1      35.846 -21.993 -19.108  0.00  0.00    +0.004 C 
ATOM      6  C   UNL     1      33.698 -21.296 -19.968  0.00  0.00    +0.004 C 
ENDROOT
BRANCH   2   9
ATOM      7  O   UNL     1      33.826 -24.320 -18.694  0.00  0.00    -0.270 OA
ATOM      8  N   UNL     1      33.209 -22.669 -17.145  0.00  0.00    -0.279 N 
ATOM      9  C   UNL     1      33.803 -23.135 -18.326  0.00  0.00    +0.250 C 
ATOM     10  H   UNL     1      33.273 -21.700 -16.987  0.00  0.00    +0.155 HD
BRANCH   8  12
ATOM     11  F   UNL     1      30.619 -25.581 -13.225  0.00  0.00    -0.204 F 
ATOM     12  C   UNL     1      32.527 -23.411 -16.149  0.00  0.00    +0.064 C 
ATOM     13  C   UNL     1      31.146 -23.499 -16.163  0.00  0.00    +0.057 C 
ATOM     14  C   UNL     1      33.280 -24.039 -15.168  0.00  0.00    +0.018 C 
ATOM     15  C   UNL     1      30.497 -24.235 -15.171  0.00  0.00    +0.045 C 
ATOM     16  C   UNL     1      32.632 -24.775 -14.177  0.00  0.00    +0.031 C 
ATOM     17  C   UNL     1      31.240 -24.873 -14.177  0.00  0.00    +0.141 C 
BRANCH  13  18
ATOM     18  N   UNL     1      30.373 -22.862 -17.158  0.00  0.00    -0.356 N 
ATOM     19  H   UNL     1      30.808 -22.275 -17.819  0.00  0.00    +0.142 HD
ATOM     20  H   UNL     1      29.399 -23.004 -17.194  0.00  0.00    +0.142 HD
ENDBRANCH  13  18
ENDBRANCH   8  12
ENDBRANCH   2   9
BRANCH   1  21
ATOM     21  C   UNL     1      36.384 -19.159 -21.556  0.00  0.00    +0.117 C 
BRANCH  21  23
ATOM     22  O   UNL     1      35.498 -17.527 -23.779  0.00  0.00    -0.270 OA
ATOM     23  N   UNL     1      35.704 -17.885 -21.492  0.00  0.00    -0.297 N 
ATOM     24  C   UNL     1      35.318 -17.177 -22.618  0.00  0.00    +0.246 C 
ATOM     25  H   UNL     1      35.506 -17.503 -20.606  0.00  0.00    +0.150 HD
BRANCH  24  26
ATOM     26  C   UNL     1      34.638 -15.899 -22.262  0.00  0.00    +0.058 C 
ATOM     27  C   UNL     1      34.384 -14.990 -23.214  0.00  0.00    +0.006 C 
BRANCH  27  29
ATOM     28  N   UNL     1      32.170 -12.409 -21.669  0.00  0.00    -0.242 NA
ATOM     29  C   UNL     1      33.709 -13.700 -22.979  0.00  0.00    +0.019 C 
ATOM     30  C   UNL     1      33.967 -12.622 -23.799  0.00  0.00    +0.003 C 
ATOM     31  C   UNL     1      32.821 -13.563 -21.940  0.00  0.00    +0.099 C 
ATOM     32  C   UNL     1      33.316 -11.418 -23.553  0.00  0.00    +0.021 C 
ATOM     33  C   UNL     1      32.435 -11.364 -22.485  0.00  0.00    +0.099 C 
ENDBRANCH  27  29
ENDBRANCH  24  26
ENDBRANCH  21  23
ENDBRANCH   1  21
TORSDOF 7
ENDMDL
MODEL 4
REMARK VINA RESULT:     -11.2      1.854      2.222
REMARK  Name = 12136798
REMARK  7 active torsions:
REMARK  status: ('A' for Active; 'I' for Inactive)
REMARK    1  A    between atoms: C_1  and  C_21
REMARK    2  A    between atoms: C_2  and  C_9
REMARK    3  A    between atoms: N_8  and  C_12
REMARK    4  A    between atoms: C_13  and  N_18
REMARK    5  A    between atoms: C_21  and  N_23
REMARK    6  A    between atoms: C_24  and  C_26
REMARK    7  A    between atoms: C_27  and  C_29
REMARK                            x       y       z     vdW  Elec       q    Type
REMARK                         _______ _______ _______ _____ _____    ______ ____
ROOT
ATOM      1  C   UNL     1      35.644 -19.721 -21.391  0.00  0.00    -0.003 C 
ATOM      2  C   UNL     1      35.201 -21.575 -19.367  0.00  0.00    +0.054 C 
ATOM      3  C   UNL     1      34.347 -20.130 -21.104  0.00  0.00    -0.002 C 
ATOM      4  C   UNL     1      36.722 -20.230 -20.677  0.00  0.00    -0.002 C 
ATOM      5  C   UNL     1      34.124 -21.059 -20.088  0.00  0.00    +0.004 C 
ATOM      6  C   UNL     1      36.500 -21.160 -19.661  0.00  0.00    +0.004 C 
ENDROOT
BRANCH   2   9
ATOM      7  O   UNL     1      34.182 -23.483 -18.512  0.00  0.00    -0.270 OA
ATOM      8  N   UNL     1      35.698 -22.347 -17.128  0.00  0.00    -0.279 N 
ATOM      9  C   UNL     1      34.970 -22.546 -18.309  0.00  0.00    +0.250 C 
ATOM     10  H   UNL     1      36.285 -21.557 -17.115  0.00  0.00    +0.155 HD
BRANCH   8  12
ATOM     11  F   UNL     1      35.623 -25.410 -12.527  0.00  0.00    -0.204 F 
ATOM     12  C   UNL     1      35.698 -23.134 -15.949  0.00  0.00    +0.064 C 
ATOM     13  C   UNL     1      36.887 -23.625 -15.436  0.00  0.00    +0.057 C 
ATOM     14  C   UNL     1      34.484 -23.395 -15.334  0.00  0.00    +0.018 C 
ATOM     15  C   UNL     1      36.862 -24.397 -14.274  0.00  0.00    +0.045 C 
ATOM     16  C   UNL     1      34.459 -24.167 -14.173  0.00  0.00    +0.031 C 
ATOM     17  C   UNL     1      35.648 -24.669 -13.643  0.00  0.00    +0.141 C 
BRANCH  13  18
ATOM     18  N   UNL     1      38.127 -23.363 -16.058  0.00  0.00    -0.356 N 
ATOM     19  H   UNL     1      38.210 -22.618 -16.696  0.00  0.00    +0.142 HD
ATOM     20  H   UNL     1      38.910 -23.925 -15.853  0.00  0.00    +0.142 HD
ENDBRANCH  13  18
ENDBRANCH   8  12
ENDBRANCH   2   9
BRANCH   1  21
ATOM     21  C   UNL     1      35.884 -18.720 -22.483  0.00  0.00    +0.117 C 
BRANCH  21  23
ATOM     22  O   UNL     1      35.320 -16.553 -24.322  0.00  0.00    -0.270 OA
ATOM     23  N   UNL     1      35.317 -17.427 -22.168  0.00  0.00    -0.297 N 
ATOM     24  C   UNL     1      35.083 -16.452 -23.122  0.00  0.00    +0.246 C 
ATOM     25  H   UNL     1      35.087 -17.233 -21.231  0.00  0.00    +0.150 HD
BRANCH  24  26
ATOM     26  C   UNL     1      34.496 -15.220 -22.522  0.00  0.00    +0.058 C 
ATOM     27  C   UNL     1      33.774 -14.385 -23.283  0.00  0.00    +0.006 C 
BRANCH  27  29
ATOM     28  N   UNL     1      32.817 -10.783 -23.035  0.00  0.00    -0.242 NA
ATOM     29  C   UNL     1      33.138 -13.147 -22.794  0.00  0.00    +0.019 C 
ATOM     30  C   UNL     1      32.307 -13.181 -21.694  0.00  0.00    +0.003 C 
ATOM     31  C   UNL     1      33.369 -11.952 -23.432  0.00  0.00    +0.099 C 
ATOM     32  C   UNL     1      31.722 -11.998 -21.256  0.00  0.00    +0.021 C 
ATOM     33  C   UNL     1      32.006 -10.837 -21.955  0.00  0.00    +0.099 C 
ENDBRANCH  27  29
ENDBRANCH  24  26
ENDBRANCH  21  23
ENDBRANCH   1  21
TORSDOF 7
ENDMDL
MODEL 5
REMARK VINA RESULT:     -11.2      4.336     11.412
REMARK  Name = 12136798
REMARK  7 active torsions:
REMARK  status: ('A' for Active; 'I' for Inactive)
REMARK    1  A    between atoms: C_1  and  C_21
REMARK    2  A    between atoms: C_2  and  C_9
REMARK    3  A    between atoms: N_8  and  C_12
REMARK    4  A    between atoms: C_13  and  N_18
REMARK    5  A    between atoms: C_21  and  N_23
REMARK    6  A    between atoms: C_24  and  C_26
REMARK    7  A    between atoms: C_27  and  C_29
REMARK                            x       y       z     vdW  Elec       q    Type
REMARK                         _______ _______ _______ _____ _____    ______ ____
ROOT
ATOM      1  C   UNL     1      34.549 -17.192 -24.413  0.00  0.00    -0.003 C 
ATOM      2  C   UNL     1      33.802 -14.516 -24.485  0.00  0.00    +0.054 C 
ATOM      3  C   UNL     1      33.807 -16.714 -25.486  0.00  0.00    -0.002 C 
ATOM      4  C   UNL     1      34.921 -16.347 -23.375  0.00  0.00    -0.002 C 
ATOM      5  C   UNL     1      33.432 -15.370 -25.523  0.00  0.00    +0.004 C 
ATOM      6  C   UNL     1      34.546 -15.003 -23.411  0.00  0.00    +0.004 C 
ENDROOT
BRANCH   2   9
ATOM      7  O   UNL     1      33.181 -12.582 -25.619  0.00  0.00    -0.270 OA
ATOM      8  N   UNL     1      33.298 -12.480 -23.278  0.00  0.00    -0.279 N 
ATOM      9  C   UNL     1      33.410 -13.115 -24.522  0.00  0.00    +0.250 C 
ATOM     10  H   UNL     1      33.512 -13.034 -22.493  0.00  0.00    +0.155 HD
BRANCH   8  12
ATOM     11  F   UNL     1      31.863  -7.242 -22.247  0.00  0.00    -0.204 F 
ATOM     12  C   UNL     1      32.916 -11.143 -23.001  0.00  0.00    +0.064 C 
ATOM     13  C   UNL     1      31.863 -10.880 -22.141  0.00  0.00    +0.057 C 
ATOM     14  C   UNL     1      33.621 -10.119 -23.614  0.00  0.00    +0.018 C 
ATOM     15  C   UNL     1      31.506  -9.556 -21.885  0.00  0.00    +0.045 C 
ATOM     16  C   UNL     1      33.263  -8.796 -23.357  0.00  0.00    +0.031 C 
ATOM     17  C   UNL     1      32.206  -8.514 -22.493  0.00  0.00    +0.141 C 
BRANCH  13  18
ATOM     18  N   UNL     1      31.141 -11.918 -21.514  0.00  0.00    -0.356 N 
ATOM     19  H   UNL     1      30.301 -11.717 -21.040  0.00  0.00    +0.142 HD
ATOM     20  H   UNL     1      31.475 -12.844 -21.550  0.00  0.00    +0.142 HD
ENDBRANCH  13  18
ENDBRANCH   8  12
ENDBRANCH   2   9
BRANCH   1  21
ATOM     21  C   UNL     1      34.952 -18.638 -24.374  0.00  0.00    +0.117 C 
BRANCH  21  23
ATOM     22  O   UNL     1      36.550 -18.931 -21.975  0.00  0.00    -0.270 OA
ATOM     23  N   UNL     1      34.565 -19.275 -23.134  0.00  0.00    -0.297 N 
ATOM     24  C   UNL     1      35.405 -19.365 -22.037  0.00  0.00    +0.246 C 
ATOM     25  H   UNL     1      33.662 -19.662 -23.068  0.00  0.00    +0.150 HD
BRANCH  24  26
ATOM     26  C   UNL     1      34.752 -20.070 -20.898  0.00  0.00    +0.058 C 
ATOM     27  C   UNL     1      35.370 -21.105 -20.309  0.00  0.00    +0.006 C 
BRANCH  27  29
ATOM     28  N   UNL     1      35.225 -23.046 -17.121  0.00  0.00    -0.242 NA
ATOM     29  C   UNL     1      34.824 -21.867 -19.171  0.00  0.00    +0.019 C 
ATOM     30  C   UNL     1      33.469 -22.107 -19.082  0.00  0.00    +0.003 C 
ATOM     31  C   UNL     1      35.661 -22.341 -18.190  0.00  0.00    +0.099 C 
ATOM     32  C   UNL     1      32.983 -22.829 -17.997  0.00  0.00    +0.021 C 
ATOM     33  C   UNL     1      33.894 -23.271 -17.053  0.00  0.00    +0.099 C 
ENDBRANCH  27  29
ENDBRANCH  24  26
ENDBRANCH  21  23
ENDBRANCH   1  21
TORSDOF 7
ENDMDL
MODEL 6
REMARK VINA RESULT:     -10.8      4.679     12.006
REMARK  Name = 12136798
REMARK  7 active torsions:
REMARK  status: ('A' for Active; 'I' for Inactive)
REMARK    1  A    between atoms: C_1  and  C_21
REMARK    2  A    between atoms: C_2  and  C_9
REMARK    3  A    between atoms: N_8  and  C_12
REMARK    4  A    between atoms: C_13  and  N_18
REMARK    5  A    between atoms: C_21  and  N_23
REMARK    6  A    between atoms: C_24  and  C_26
REMARK    7  A    between atoms: C_27  and  C_29
REMARK                            x       y       z     vdW  Elec       q    Type
REMARK                         _______ _______ _______ _____ _____    ______ ____
ROOT
ATOM      1  C   UNL     1      34.494 -15.256 -22.791  0.00  0.00    -0.003 C 
ATOM      2  C   UNL     1      32.983 -12.961 -22.365  0.00  0.00    +0.054 C 
ATOM      3  C   UNL     1      33.980 -14.559 -23.878  0.00  0.00    -0.002 C 
ATOM      4  C   UNL     1      34.259 -14.818 -21.493  0.00  0.00    -0.002 C 
ATOM      5  C   UNL     1      33.222 -13.407 -23.665  0.00  0.00    +0.004 C 
ATOM      6  C   UNL     1      33.502 -13.666 -21.279  0.00  0.00    +0.004 C 
ENDROOT
BRANCH   2   9
ATOM      7  O   UNL     1      31.085 -11.863 -21.589  0.00  0.00    -0.270 OA
ATOM      8  N   UNL     1      32.775 -10.558 -22.561  0.00  0.00    -0.279 N 
ATOM      9  C   UNL     1      32.191 -11.761 -22.142  0.00  0.00    +0.250 C 
ATOM     10  H   UNL     1      33.661 -10.636 -22.984  0.00  0.00    +0.155 HD
BRANCH   8  12
ATOM     11  F   UNL     1      30.747  -5.427 -22.221  0.00  0.00    -0.204 F 
ATOM     12  C   UNL     1      32.259  -9.243 -22.454  0.00  0.00    +0.064 C 
ATOM     13  C   UNL     1      32.175  -8.621 -21.220  0.00  0.00    +0.057 C 
ATOM     14  C   UNL     1      31.842  -8.606 -23.612  0.00  0.00    +0.018 C 
ATOM     15  C   UNL     1      31.663  -7.326 -21.140  0.00  0.00    +0.045 C 
ATOM     16  C   UNL     1      31.330  -7.311 -23.533  0.00  0.00    +0.031 C 
ATOM     17  C   UNL     1      31.239  -6.671 -22.297  0.00  0.00    +0.141 C 
BRANCH  13  18
ATOM     18  N   UNL     1      32.598  -9.265 -20.036  0.00  0.00    -0.356 N 
ATOM     19  H   UNL     1      32.204 -10.130 -19.778  0.00  0.00    +0.142 HD
ATOM     20  H   UNL     1      33.287  -8.850 -19.468  0.00  0.00    +0.142 HD
ENDBRANCH  13  18
ENDBRANCH   8  12
ENDBRANCH   2   9
BRANCH   1  21
ATOM     21  C   UNL     1      35.310 -16.495 -23.020  0.00  0.00    +0.117 C 
BRANCH  21  23
ATOM     22  O   UNL     1      35.157 -19.296 -23.743  0.00  0.00    -0.270 OA
ATOM     23  N   UNL     1      34.872 -17.593 -22.187  0.00  0.00    -0.297 N 
ATOM     24  C   UNL     1      34.834 -18.906 -22.626  0.00  0.00    +0.246 C 
ATOM     25  H   UNL     1      34.587 -17.398 -21.265  0.00  0.00    +0.150 HD
BRANCH  24  26
ATOM     26  C   UNL     1      34.343 -19.831 -21.565  0.00  0.00    +0.058 C 
ATOM     27  C   UNL     1      35.219 -20.462 -20.770  0.00  0.00    +0.006 C 
BRANCH  27  29
ATOM     28  N   UNL     1      35.538 -22.772 -17.852  0.00  0.00    -0.242 NA
ATOM     29  C   UNL     1      34.846 -21.387 -19.685  0.00  0.00    +0.019 C 
ATOM     30  C   UNL     1      33.525 -21.725 -19.484  0.00  0.00    +0.003 C 
ATOM     31  C   UNL     1      35.812 -21.918 -18.865  0.00  0.00    +0.099 C 
ATOM     32  C   UNL     1      33.203 -22.600 -18.452  0.00  0.00    +0.021 C 
ATOM     33  C   UNL     1      34.237 -23.091 -17.672  0.00  0.00    +0.099 C 
ENDBRANCH  27  29
ENDBRANCH  24  26
ENDBRANCH  21  23
ENDBRANCH   1  21
TORSDOF 7
ENDMDL
MODEL 7
REMARK VINA RESULT:     -10.8      3.800     10.898
REMARK  Name = 12136798
REMARK  7 active torsions:
REMARK  status: ('A' for Active; 'I' for Inactive)
REMARK    1  A    between atoms: C_1  and  C_21
REMARK    2  A    between atoms: C_2  and  C_9
REMARK    3  A    between atoms: N_8  and  C_12
REMARK    4  A    between atoms: C_13  and  N_18
REMARK    5  A    between atoms: C_21  and  N_23
REMARK    6  A    between atoms: C_24  and  C_26
REMARK    7  A    between atoms: C_27  and  C_29
REMARK                            x       y       z     vdW  Elec       q    Type
REMARK                         _______ _______ _______ _____ _____    ______ ____
ROOT
ATOM      1  C   UNL     1      35.926 -20.500 -20.602  0.00  0.00    -0.003 C 
ATOM      2  C   UNL     1      35.239 -18.643 -22.553  0.00  0.00    +0.054 C 
ATOM      3  C   UNL     1      36.869 -19.577 -21.035  0.00  0.00    -0.002 C 
ATOM      4  C   UNL     1      34.642 -20.505 -21.135  0.00  0.00    -0.002 C 
ATOM      5  C   UNL     1      36.525 -18.644 -22.014  0.00  0.00    +0.004 C 
ATOM      6  C   UNL     1      34.297 -19.573 -22.114  0.00  0.00    +0.004 C 
ENDROOT
BRANCH   2   9
ATOM      7  O   UNL     1      34.855 -18.030 -24.764  0.00  0.00    -0.270 OA
ATOM      8  N   UNL     1      34.561 -16.388 -23.113  0.00  0.00    -0.279 N 
ATOM      9  C   UNL     1      34.880 -17.672 -23.575  0.00  0.00    +0.250 C 
ATOM     10  H   UNL     1      34.627 -16.255 -22.139  0.00  0.00    +0.155 HD
BRANCH   8  12
ATOM     11  F   UNL     1      32.964 -12.018 -26.097  0.00  0.00    -0.204 F 
ATOM     12  C   UNL     1      34.156 -15.256 -23.863  0.00  0.00    +0.064 C 
ATOM     13  C   UNL     1      34.220 -13.989 -23.307  0.00  0.00    +0.057 C 
ATOM     14  C   UNL     1      33.698 -15.455 -25.155  0.00  0.00    +0.018 C 
ATOM     15  C   UNL     1      33.816 -12.890 -24.065  0.00  0.00    +0.045 C 
ATOM     16  C   UNL     1      33.294 -14.356 -25.913  0.00  0.00    +0.031 C 
ATOM     17  C   UNL     1      33.352 -13.073 -25.368  0.00  0.00    +0.141 C 
BRANCH  13  18
ATOM     18  N   UNL     1      34.686 -13.780 -21.991  0.00  0.00    -0.356 N 
ATOM     19  H   UNL     1      35.652 -13.708 -21.816  0.00  0.00    +0.142 HD
ATOM     20  H   UNL     1      34.045 -13.704 -21.247  0.00  0.00    +0.142 HD
ENDBRANCH  13  18
ENDBRANCH   8  12
ENDBRANCH   2   9
BRANCH   1  21
ATOM     21  C   UNL     1      36.295 -21.503 -19.548  0.00  0.00    +0.117 C 
BRANCH  21  23
ATOM     22  O   UNL     1      34.426 -23.706 -19.765  0.00  0.00    -0.270 OA
ATOM     23  N   UNL     1      35.185 -21.802 -18.670  0.00  0.00    -0.297 N 
ATOM     24  C   UNL     1      34.344 -22.885 -18.858  0.00  0.00    +0.246 C 
ATOM     25  H   UNL     1      35.021 -21.206 -17.903  0.00  0.00    +0.150 HD
BRANCH  24  26
ATOM     26  C   UNL     1      33.287 -22.953 -17.809  0.00  0.00    +0.058 C 
ATOM     27  C   UNL     1      33.550 -23.540 -16.632  0.00  0.00    +0.006 C 
BRANCH  27  29
ATOM     28  N   UNL     1      32.154 -24.288 -13.249  0.00  0.00    -0.242 NA
ATOM     29  C   UNL     1      32.587 -23.654 -15.522  0.00  0.00    +0.019 C 
ATOM     30  C   UNL     1      31.278 -23.255 -15.694  0.00  0.00    +0.003 C 
ATOM     31  C   UNL     1      32.986 -24.158 -14.308  0.00  0.00    +0.099 C 
ATOM     32  C   UNL     1      30.392 -23.375 -14.629  0.00  0.00    +0.021 C 
ATOM     33  C   UNL     1      30.875 -23.892 -13.439  0.00  0.00    +0.099 C 
ENDBRANCH  27  29
ENDBRANCH  24  26
ENDBRANCH  21  23
ENDBRANCH   1  21
TORSDOF 7
ENDMDL
MODEL 8
REMARK VINA RESULT:     -10.4      4.494     11.545
REMARK  Name = 12136798
REMARK  7 active torsions:
REMARK  status: ('A' for Active; 'I' for Inactive)
REMARK    1  A    between atoms: C_1  and  C_21
REMARK    2  A    between atoms: C_2  and  C_9
REMARK    3  A    between atoms: N_8  and  C_12
REMARK    4  A    between atoms: C_13  and  N_18
REMARK    5  A    between atoms: C_21  and  N_23
REMARK    6  A    between atoms: C_24  and  C_26
REMARK    7  A    between atoms: C_27  and  C_29
REMARK                            x       y       z     vdW  Elec       q    Type
REMARK                         _______ _______ _______ _____ _____    ______ ____
ROOT
ATOM      1  C   UNL     1      35.175 -16.871 -23.094  0.00  0.00    -0.003 C 
ATOM      2  C   UNL     1      33.885 -14.439 -22.711  0.00  0.00    +0.054 C 
ATOM      3  C   UNL     1      34.549 -16.247 -24.167  0.00  0.00    -0.002 C 
ATOM      4  C   UNL     1      35.161 -16.292 -21.831  0.00  0.00    -0.002 C 
ATOM      5  C   UNL     1      33.903 -15.026 -23.975  0.00  0.00    +0.004 C 
ATOM      6  C   UNL     1      34.513 -15.071 -21.638  0.00  0.00    +0.004 C 
ENDROOT
BRANCH   2   9
ATOM      7  O   UNL     1      32.278 -13.101 -21.690  0.00  0.00    -0.270 OA
ATOM      8  N   UNL     1      33.697 -12.089 -23.262  0.00  0.00    -0.279 N 
ATOM      9  C   UNL     1      33.208 -13.166 -22.510  0.00  0.00    +0.250 C 
ATOM     10  H   UNL     1      34.442 -12.296 -23.871  0.00  0.00    +0.155 HD
BRANCH   8  12
ATOM     11  F   UNL     1      31.925  -6.854 -23.219  0.00  0.00    -0.204 F 
ATOM     12  C   UNL     1      33.259 -10.742 -23.260  0.00  0.00    +0.064 C 
ATOM     13  C   UNL     1      34.065  -9.743 -23.780  0.00  0.00    +0.057 C 
ATOM     14  C   UNL     1      32.013 -10.457 -22.724  0.00  0.00    +0.018 C 
ATOM     15  C   UNL     1      33.612  -8.424 -23.767  0.00  0.00    +0.045 C 
ATOM     16  C   UNL     1      31.561  -9.138 -22.711  0.00  0.00    +0.031 C 
ATOM     17  C   UNL     1      32.360  -8.121 -23.232  0.00  0.00    +0.141 C 
BRANCH  13  18
ATOM     18  N   UNL     1      35.336 -10.026 -24.327  0.00  0.00    -0.356 N 
ATOM     19  H   UNL     1      36.000 -10.523 -23.797  0.00  0.00    +0.142 HD
ATOM     20  H   UNL     1      35.558  -9.727 -25.239  0.00  0.00    +0.142 HD
ENDBRANCH  13  18
ENDBRANCH   8  12
ENDBRANCH   2   9
BRANCH   1  21
ATOM     21  C   UNL     1      35.872 -18.184 -23.300  0.00  0.00    +0.117 C 
BRANCH  21  23
ATOM     22  O   UNL     1      37.867 -19.045 -21.384  0.00  0.00    -0.270 OA
ATOM     23  N   UNL     1      35.683 -19.079 -22.179  0.00  0.00    -0.297 N 
ATOM     24  C   UNL     1      36.705 -19.432 -21.315  0.00  0.00    +0.246 C 
ATOM     25  H   UNL     1      34.786 -19.455 -22.025  0.00  0.00    +0.150 HD
BRANCH  24  26
ATOM     26  C   UNL     1      36.234 -20.366 -20.253  0.00  0.00    +0.058 C 
ATOM     27  C   UNL     1      34.948 -20.747 -20.219  0.00  0.00    +0.006 C 
BRANCH  27  29
ATOM     28  N   UNL     1      32.429 -22.695 -18.267  0.00  0.00    -0.242 NA
ATOM     29  C   UNL     1      34.376 -21.672 -19.224  0.00  0.00    +0.019 C 
ATOM     30  C   UNL     1      35.202 -22.356 -18.356  0.00  0.00    +0.003 C 
ATOM     31  C   UNL     1      33.017 -21.861 -19.155  0.00  0.00    +0.099 C 
ATOM     32  C   UNL     1      34.634 -23.222 -17.428  0.00  0.00    +0.021 C 
ATOM     33  C   UNL     1      33.255 -23.355 -17.425  0.00  0.00    +0.099 C 
ENDBRANCH  27  29
ENDBRANCH  24  26
ENDBRANCH  21  23
ENDBRANCH   1  21
TORSDOF 7
ENDMDL
MODEL 9
REMARK VINA RESULT:     -10.3      1.641      2.303
REMARK  Name = 12136798
REMARK  7 active torsions:
REMARK  status: ('A' for Active; 'I' for Inactive)
REMARK    1  A    between atoms: C_1  and  C_21
REMARK    2  A    between atoms: C_2  and  C_9
REMARK    3  A    between atoms: N_8  and  C_12
REMARK    4  A    between atoms: C_13  and  N_18
REMARK    5  A    between atoms: C_21  and  N_23
REMARK    6  A    between atoms: C_24  and  C_26
REMARK    7  A    between atoms: C_27  and  C_29
REMARK                            x       y       z     vdW  Elec       q    Type
REMARK                         _______ _______ _______ _____ _____    ______ ____
ROOT
ATOM      1  C   UNL     1      36.201 -21.102 -19.689  0.00  0.00    -0.003 C 
ATOM      2  C   UNL     1      34.672 -22.645 -17.954  0.00  0.00    +0.054 C 
ATOM      3  C   UNL     1      36.782 -21.624 -18.539  0.00  0.00    -0.002 C 
ATOM      4  C   UNL     1      34.864 -21.343 -19.980  0.00  0.00    -0.002 C 
ATOM      5  C   UNL     1      36.015 -22.398 -17.668  0.00  0.00    +0.004 C 
ATOM      6  C   UNL     1      34.097 -22.118 -19.110  0.00  0.00    +0.004 C 
ENDROOT
BRANCH   2   9
ATOM      7  O   UNL     1      34.418 -24.369 -16.413  0.00  0.00    -0.270 OA
ATOM      8  N   UNL     1      32.520 -23.094 -16.942  0.00  0.00    -0.279 N 
ATOM      9  C   UNL     1      33.871 -23.451 -17.046  0.00  0.00    +0.250 C 
ATOM     10  H   UNL     1      32.232 -22.342 -17.508  0.00  0.00    +0.155 HD
BRANCH   8  12
ATOM     11  F   UNL     1      28.556 -25.375 -13.838  0.00  0.00    -0.204 F 
ATOM     12  C   UNL     1      31.514 -23.675 -16.130  0.00  0.00    +0.064 C 
ATOM     13  C   UNL     1      31.662 -23.714 -14.754  0.00  0.00    +0.057 C 
ATOM     14  C   UNL     1      30.391 -24.198 -16.751  0.00  0.00    +0.018 C 
ATOM     15  C   UNL     1      30.658 -24.290 -13.976  0.00  0.00    +0.045 C 
ATOM     16  C   UNL     1      29.388 -24.774 -15.972  0.00  0.00    +0.031 C 
ATOM     17  C   UNL     1      29.521 -24.821 -14.585  0.00  0.00    +0.141 C 
BRANCH  13  18
ATOM     18  N   UNL     1      32.804 -23.182 -14.115  0.00  0.00    -0.356 N 
ATOM     19  H   UNL     1      33.618 -23.730 -14.028  0.00  0.00    +0.142 HD
ATOM     20  H   UNL     1      32.788 -22.265 -13.759  0.00  0.00    +0.142 HD
ENDBRANCH  13  18
ENDBRANCH   8  12
ENDBRANCH   2   9
BRANCH   1  21
ATOM     21  C   UNL     1      37.026 -20.269 -20.626  0.00  0.00    +0.117 C 
BRANCH  21  23
ATOM     22  O   UNL     1      35.725 -19.541 -23.110  0.00  0.00    -0.270 OA
ATOM     23  N   UNL     1      36.383 -19.013 -20.944  0.00  0.00    -0.297 N 
ATOM     24  C   UNL     1      35.785 -18.759 -22.166  0.00  0.00    +0.246 C 
ATOM     25  H   UNL     1      36.370 -18.306 -20.259  0.00  0.00    +0.150 HD
BRANCH  24  26
ATOM     26  C   UNL     1      35.201 -17.389 -22.223  0.00  0.00    +0.058 C 
ATOM     27  C   UNL     1      34.973 -16.807 -23.409  0.00  0.00    +0.006 C 
BRANCH  27  29
ATOM     28  N   UNL     1      33.190 -13.922 -24.974  0.00  0.00    -0.242 NA
ATOM     29  C   UNL     1      34.391 -15.464 -23.583  0.00  0.00    +0.019 C 
ATOM     30  C   UNL     1      34.489 -14.529 -22.575  0.00  0.00    +0.003 C 
ATOM     31  C   UNL     1      33.746 -15.135 -24.751  0.00  0.00    +0.099 C 
ATOM     32  C   UNL     1      33.930 -13.270 -22.767  0.00  0.00    +0.021 C 
ATOM     33  C   UNL     1      33.297 -13.019 -23.973  0.00  0.00    +0.099 C 
ENDBRANCH  27  29
ENDBRANCH  24  26
ENDBRANCH  21  23
ENDBRANCH   1  21
TORSDOF 7
ENDMDL
