MODEL 1
REMARK VINA RESULT:     -11.8      0.000      0.000
REMARK  Name = 44129603
REMARK  3 active torsions:
REMARK  status: ('A' for Active; 'I' for Inactive)
REMARK    1  A    between atoms: N_5  and  C_17
REMARK    2  A    between atoms: C_12  and  C_24
REMARK    3  A    between atoms: C_24  and  O_25
REMARK                            x       y       z     vdW  Elec       q    Type
REMARK                         _______ _______ _______ _____ _____    ______ ____
ROOT
ATOM      1  N   UNL     1      36.736 -23.086 -15.148  0.00  0.00    -0.246 N 
ATOM      2  N   UNL     1      37.706 -23.165 -14.214  0.00  0.00    -0.163 NA
ATOM      3  N   UNL     1      34.150 -23.000 -16.601  0.00  0.00    -0.336 NA
ATOM      4  N   UNL     1      31.837 -23.694 -16.629  0.00  0.00    -0.170 NA
ATOM      5  N   UNL     1      32.772 -22.526 -18.437  0.00  0.00    -0.247 N 
ATOM      6  C   UNL     1      34.563 -24.280 -12.518  0.00  0.00    +0.035 C 
ATOM      7  C   UNL     1      35.695 -23.831 -13.371  0.00  0.00    +0.024 A 
ATOM      8  C   UNL     1      33.409 -24.873 -13.373  0.00  0.00    +0.035 C 
ATOM      9  C   UNL     1      35.517 -23.481 -14.691  0.00  0.00    +0.106 A 
ATOM     10  C   UNL     1      33.201 -24.194 -14.709  0.00  0.00    +0.030 C 
ATOM     11  C   UNL     1      34.249 -23.558 -15.380  0.00  0.00    +0.158 C 
ATOM     12  C   UNL     1      37.062 -23.617 -13.130  0.00  0.00    +0.174 A 
ATOM     13  C   UNL     1      32.008 -24.238 -15.403  0.00  0.00    +0.110 C 
ATOM     14  C   UNL     1      37.081 -22.591 -16.461  0.00  0.00    +0.154 C 
ATOM     15  C   UNL     1      32.928 -23.103 -17.158  0.00  0.00    +0.149 C 
ATOM     16  H   UNL     1      31.864 -22.622 -18.806  0.00  0.00    +0.165 HD
ENDROOT
BRANCH   5  17
ATOM     17  C   UNL     1      33.658 -21.840 -19.288  0.00  0.00    +0.058 C 
ATOM     18  C   UNL     1      33.168 -20.899 -20.193  0.00  0.00    +0.015 C 
ATOM     19  C   UNL     1      35.026 -22.102 -19.225  0.00  0.00    +0.015 C 
ATOM     20  C   UNL     1      34.047 -20.218 -21.036  0.00  0.00    +0.001 C 
ATOM     21  C   UNL     1      35.906 -21.421 -20.068  0.00  0.00    +0.001 C 
ATOM     22  C   UNL     1      35.416 -20.480 -20.973  0.00  0.00    +0.000 C 
ENDBRANCH   5  17
BRANCH  12  24
ATOM     23  O   UNL     1      37.737 -24.853 -11.197  0.00  0.00    -0.243 OA
ATOM     24  C   UNL     1      37.788 -23.833 -11.911  0.00  0.00    +0.357 C 
BRANCH  24  25
ATOM     25  O   UNL     1      38.588 -22.777 -11.565  0.00  0.00    -0.476 OA
ATOM     26  H   UNL     1      38.586 -22.458 -10.683  0.00  0.00    +0.295 HD
ENDBRANCH  24  25
ENDBRANCH  12  24
TORSDOF 3
ENDMDL
MODEL 2
REMARK VINA RESULT:     -11.2      0.502      1.179
REMARK  Name = 44129603
REMARK  3 active torsions:
REMARK  status: ('A' for Active; 'I' for Inactive)
REMARK    1  A    between atoms: N_5  and  C_17
REMARK    2  A    between atoms: C_12  and  C_24
REMARK    3  A    between atoms: C_24  and  O_25
REMARK                            x       y       z     vdW  Elec       q    Type
REMARK                         _______ _______ _______ _____ _____    ______ ____
ROOT
ATOM      1  N   UNL     1      36.717 -23.048 -15.479  0.00  0.00    -0.246 N 
ATOM      2  N   UNL     1      37.705 -23.177 -14.571  0.00  0.00    -0.163 NA
ATOM      3  N   UNL     1      34.103 -22.843 -16.868  0.00  0.00    -0.336 NA
ATOM      4  N   UNL     1      31.764 -23.445 -16.847  0.00  0.00    -0.170 NA
ATOM      5  N   UNL     1      32.701 -22.292 -18.664  0.00  0.00    -0.247 N 
ATOM      6  C   UNL     1      34.562 -24.189 -12.811  0.00  0.00    +0.035 C 
ATOM      7  C   UNL     1      35.691 -23.774 -13.687  0.00  0.00    +0.024 A 
ATOM      8  C   UNL     1      33.366 -24.726 -13.645  0.00  0.00    +0.035 C 
ATOM      9  C   UNL     1      35.495 -23.401 -14.997  0.00  0.00    +0.106 A 
ATOM     10  C   UNL     1      33.153 -24.022 -14.968  0.00  0.00    +0.030 C 
ATOM     11  C   UNL     1      34.209 -23.419 -15.656  0.00  0.00    +0.158 C 
ATOM     12  C   UNL     1      37.071 -23.617 -13.476  0.00  0.00    +0.174 A 
ATOM     13  C   UNL     1      31.943 -24.011 -15.633  0.00  0.00    +0.110 C 
ATOM     14  C   UNL     1      37.050 -22.551 -16.794  0.00  0.00    +0.154 C 
ATOM     15  C   UNL     1      32.865 -22.890 -17.396  0.00  0.00    +0.149 C 
ATOM     16  H   UNL     1      31.781 -22.348 -19.012  0.00  0.00    +0.165 HD
ENDROOT
BRANCH   5  17
ATOM     17  C   UNL     1      33.593 -21.631 -19.528  0.00  0.00    +0.058 C 
ATOM     18  C   UNL     1      34.965 -21.845 -19.411  0.00  0.00    +0.015 C 
ATOM     19  C   UNL     1      33.102 -20.761 -20.503  0.00  0.00    +0.015 C 
ATOM     20  C   UNL     1      35.850 -21.190 -20.269  0.00  0.00    +0.001 C 
ATOM     21  C   UNL     1      33.987 -20.106 -21.361  0.00  0.00    +0.001 C 
ATOM     22  C   UNL     1      35.360 -20.320 -21.244  0.00  0.00    +0.000 C 
ENDBRANCH   5  17
BRANCH  12  24
ATOM     23  O   UNL     1      37.691 -23.279 -11.191  0.00  0.00    -0.243 OA
ATOM     24  C   UNL     1      37.816 -23.876 -12.278  0.00  0.00    +0.357 C 
BRANCH  24  25
ATOM     25  O   UNL     1      38.729 -24.887 -12.418  0.00  0.00    -0.476 OA
ATOM     26  H   UNL     1      39.122 -25.272 -11.659  0.00  0.00    +0.295 HD
ENDBRANCH  24  25
ENDBRANCH  12  24
TORSDOF 3
ENDMDL
MODEL 3
REMARK VINA RESULT:     -10.2     11.830     14.903
REMARK  Name = 44129603
REMARK  3 active torsions:
REMARK  status: ('A' for Active; 'I' for Inactive)
REMARK    1  A    between atoms: N_5  and  C_17
REMARK    2  A    between atoms: C_12  and  C_24
REMARK    3  A    between atoms: C_24  and  O_25
REMARK                            x       y       z     vdW  Elec       q    Type
REMARK                         _______ _______ _______ _____ _____    ______ ____
ROOT
ATOM      1  N   UNL     1      33.627 -11.988 -24.314  0.00  0.00    -0.246 N 
ATOM      2  N   UNL     1      34.081 -13.150 -24.825  0.00  0.00    -0.163 NA
ATOM      3  N   UNL     1      32.649  -9.818 -22.542  0.00  0.00    -0.336 NA
ATOM      4  N   UNL     1      31.493  -9.263 -20.495  0.00  0.00    -0.170 NA
ATOM      5  N   UNL     1      32.164  -7.590 -21.998  0.00  0.00    -0.247 N 
ATOM      6  C   UNL     1      32.934 -13.939 -21.352  0.00  0.00    +0.035 C 
ATOM      7  C   UNL     1      33.310 -13.430 -22.698  0.00  0.00    +0.024 A 
ATOM      8  C   UNL     1      31.850 -13.045 -20.690  0.00  0.00    +0.035 C 
ATOM      9  C   UNL     1      33.149 -12.108 -23.046  0.00  0.00    +0.106 A 
ATOM     10  C   UNL     1      31.979 -11.567 -20.995  0.00  0.00    +0.030 C 
ATOM     11  C   UNL     1      32.568 -11.111 -22.176  0.00  0.00    +0.158 C 
ATOM     12  C   UNL     1      33.888 -14.026 -23.831  0.00  0.00    +0.174 A 
ATOM     13  C   UNL     1      31.442 -10.580 -20.192  0.00  0.00    +0.110 C 
ATOM     14  C   UNL     1      33.716 -10.796 -25.126  0.00  0.00    +0.154 C 
ATOM     15  C   UNL     1      32.098  -8.960 -21.662  0.00  0.00    +0.149 C 
ATOM     16  H   UNL     1      31.752  -6.998 -21.327  0.00  0.00    +0.165 HD
ENDROOT
BRANCH   5  17
ATOM     17  C   UNL     1      32.703  -6.904 -23.101  0.00  0.00    +0.058 C 
ATOM     18  C   UNL     1      31.863  -6.193 -23.958  0.00  0.00    +0.015 C 
ATOM     19  C   UNL     1      34.077  -6.935 -23.338  0.00  0.00    +0.015 C 
ATOM     20  C   UNL     1      32.398  -5.511 -25.052  0.00  0.00    +0.001 C 
ATOM     21  C   UNL     1      34.612  -6.254 -24.432  0.00  0.00    +0.001 C 
ATOM     22  C   UNL     1      33.773  -5.543 -25.289  0.00  0.00    +0.000 C 
ENDBRANCH   5  17
BRANCH  12  24
ATOM     23  O   UNL     1      33.765 -16.192 -24.839  0.00  0.00    -0.243 OA
ATOM     24  C   UNL     1      34.259 -15.401 -24.012  0.00  0.00    +0.357 C 
BRANCH  24  25
ATOM     25  O   UNL     1      35.252 -15.809 -23.163  0.00  0.00    -0.476 OA
ATOM     26  H   UNL     1      35.079 -15.892 -22.245  0.00  0.00    +0.295 HD
ENDBRANCH  24  25
ENDBRANCH  12  24
TORSDOF 3
ENDMDL
MODEL 4
REMARK VINA RESULT:     -10.1      3.562      7.050
REMARK  Name = 44129603
REMARK  3 active torsions:
REMARK  status: ('A' for Active; 'I' for Inactive)
REMARK    1  A    between atoms: N_5  and  C_17
REMARK    2  A    between atoms: C_12  and  C_24
REMARK    3  A    between atoms: C_24  and  O_25
REMARK                            x       y       z     vdW  Elec       q    Type
REMARK                         _______ _______ _______ _____ _____    ______ ____
ROOT
ATOM      1  N   UNL     1      32.497 -24.103 -15.259  0.00  0.00    -0.246 N 
ATOM      2  N   UNL     1      31.152 -24.190 -15.245  0.00  0.00    -0.163 NA
ATOM      3  N   UNL     1      35.322 -23.379 -15.808  0.00  0.00    -0.336 NA
ATOM      4  N   UNL     1      36.895 -22.502 -17.417  0.00  0.00    -0.170 NA
ATOM      5  N   UNL     1      37.618 -23.316 -15.337  0.00  0.00    -0.247 N 
ATOM      6  C   UNL     1      32.013 -22.149 -18.261  0.00  0.00    +0.035 C 
ATOM      7  C   UNL     1      31.881 -22.989 -17.040  0.00  0.00    +0.024 A 
ATOM      8  C   UNL     1      33.407 -22.326 -18.922  0.00  0.00    +0.035 C 
ATOM      9  C   UNL     1      32.980 -23.399 -16.318  0.00  0.00    +0.106 A 
ATOM     10  C   UNL     1      34.547 -22.528 -17.947  0.00  0.00    +0.030 C 
ATOM     11  C   UNL     1      34.344 -23.105 -16.691  0.00  0.00    +0.158 C 
ATOM     12  C   UNL     1      30.782 -23.503 -16.334  0.00  0.00    +0.174 A 
ATOM     13  C   UNL     1      35.866 -22.258 -18.258  0.00  0.00    +0.110 C 
ATOM     14  C   UNL     1      33.239 -24.720 -14.183  0.00  0.00    +0.154 C 
ATOM     15  C   UNL     1      36.558 -23.053 -16.232  0.00  0.00    +0.149 C 
ATOM     16  H   UNL     1      38.503 -23.061 -15.686  0.00  0.00    +0.165 HD
ENDROOT
BRANCH   5  17
ATOM     17  C   UNL     1      37.659 -23.869 -14.044  0.00  0.00    +0.058 C 
ATOM     18  C   UNL     1      37.319 -23.088 -12.941  0.00  0.00    +0.015 C 
ATOM     19  C   UNL     1      38.039 -25.200 -13.868  0.00  0.00    +0.015 C 
ATOM     20  C   UNL     1      37.358 -23.638 -11.658  0.00  0.00    +0.001 C 
ATOM     21  C   UNL     1      38.078 -25.749 -12.586  0.00  0.00    +0.001 C 
ATOM     22  C   UNL     1      37.738 -24.968 -11.482  0.00  0.00    +0.000 C 
ENDBRANCH   5  17
BRANCH  12  24
ATOM     23  O   UNL     1      28.810 -22.335 -17.018  0.00  0.00    -0.243 OA
ATOM     24  C   UNL     1      29.389 -23.377 -16.656  0.00  0.00    +0.357 C 
BRANCH  24  25
ATOM     25  O   UNL     1      28.697 -24.551 -16.529  0.00  0.00    -0.476 OA
ATOM     26  H   UNL     1      28.756 -25.204 -17.199  0.00  0.00    +0.295 HD
ENDBRANCH  24  25
ENDBRANCH  12  24
TORSDOF 3
ENDMDL
MODEL 5
REMARK VINA RESULT:      -9.7      3.595      6.685
REMARK  Name = 44129603
REMARK  3 active torsions:
REMARK  status: ('A' for Active; 'I' for Inactive)
REMARK    1  A    between atoms: N_5  and  C_17
REMARK    2  A    between atoms: C_12  and  C_24
REMARK    3  A    between atoms: C_24  and  O_25
REMARK                            x       y       z     vdW  Elec       q    Type
REMARK                         _______ _______ _______ _____ _____    ______ ____
ROOT
ATOM      1  N   UNL     1      36.501 -21.989 -17.943  0.00  0.00    -0.246 N 
ATOM      2  N   UNL     1      36.836 -21.212 -18.993  0.00  0.00    -0.163 NA
ATOM      3  N   UNL     1      35.136 -23.812 -16.041  0.00  0.00    -0.336 NA
ATOM      4  N   UNL     1      33.023 -24.649 -15.225  0.00  0.00    -0.170 NA
ATOM      5  N   UNL     1      35.045 -25.276 -14.211  0.00  0.00    -0.247 N 
ATOM      6  C   UNL     1      33.192 -21.962 -19.399  0.00  0.00    +0.035 C 
ATOM      7  C   UNL     1      34.625 -21.764 -19.049  0.00  0.00    +0.024 A 
ATOM      8  C   UNL     1      32.345 -22.307 -18.143  0.00  0.00    +0.035 C 
ATOM      9  C   UNL     1      35.186 -22.339 -17.931  0.00  0.00    +0.106 A 
ATOM     10  C   UNL     1      33.058 -23.161 -17.117  0.00  0.00    +0.030 C 
ATOM     11  C   UNL     1      34.448 -23.135 -16.978  0.00  0.00    +0.158 C 
ATOM     12  C   UNL     1      35.685 -21.082 -19.667  0.00  0.00    +0.174 A 
ATOM     13  C   UNL     1      32.394 -23.939 -16.188  0.00  0.00    +0.110 C 
ATOM     14  C   UNL     1      37.534 -22.364 -17.006  0.00  0.00    +0.154 C 
ATOM     15  C   UNL     1      34.368 -24.542 -15.209  0.00  0.00    +0.149 C 
ATOM     16  H   UNL     1      34.447 -25.796 -13.628  0.00  0.00    +0.165 HD
ENDROOT
BRANCH   5  17
ATOM     17  C   UNL     1      36.408 -25.412 -13.888  0.00  0.00    +0.058 C 
ATOM     18  C   UNL     1      36.938 -24.721 -12.799  0.00  0.00    +0.015 C 
ATOM     19  C   UNL     1      37.227 -26.238 -14.657  0.00  0.00    +0.015 C 
ATOM     20  C   UNL     1      38.290 -24.857 -12.478  0.00  0.00    +0.001 C 
ATOM     21  C   UNL     1      38.578 -26.374 -14.336  0.00  0.00    +0.001 C 
ATOM     22  C   UNL     1      39.109 -25.683 -13.247  0.00  0.00    +0.000 C 
ENDBRANCH   5  17
BRANCH  12  24
ATOM     23  O   UNL     1      34.885 -20.476 -21.838  0.00  0.00    -0.243 OA
ATOM     24  C   UNL     1      35.651 -20.301 -20.871  0.00  0.00    +0.357 C 
BRANCH  24  25
ATOM     25  O   UNL     1      36.572 -19.289 -20.884  0.00  0.00    -0.476 OA
ATOM     26  H   UNL     1      37.002 -19.035 -20.090  0.00  0.00    +0.295 HD
ENDBRANCH  24  25
ENDBRANCH  12  24
TORSDOF 3
ENDMDL
MODEL 6
REMARK VINA RESULT:      -9.7      1.908      4.464
REMARK  Name = 44129603
REMARK  3 active torsions:
REMARK  status: ('A' for Active; 'I' for Inactive)
REMARK    1  A    between atoms: N_5  and  C_17
REMARK    2  A    between atoms: C_12  and  C_24
REMARK    3  A    between atoms: C_24  and  O_25
REMARK                            x       y       z     vdW  Elec       q    Type
REMARK                         _______ _______ _______ _____ _____    ______ ____
ROOT
ATOM      1  N   UNL     1      34.864 -24.034 -13.311  0.00  0.00    -0.246 N 
ATOM      2  N   UNL     1      35.712 -24.343 -12.308  0.00  0.00    -0.163 NA
ATOM      3  N   UNL     1      33.624 -23.431 -15.939  0.00  0.00    -0.336 NA
ATOM      4  N   UNL     1      33.964 -22.579 -18.173  0.00  0.00    -0.170 NA
ATOM      5  N   UNL     1      31.822 -23.167 -17.415  0.00  0.00    -0.247 N 
ATOM      6  C   UNL     1      37.868 -23.588 -15.272  0.00  0.00    +0.035 C 
ATOM      7  C   UNL     1      36.847 -23.826 -14.216  0.00  0.00    +0.024 A 
ATOM      8  C   UNL     1      37.322 -22.656 -16.389  0.00  0.00    +0.035 C 
ATOM      9  C   UNL     1      35.499 -23.711 -14.471  0.00  0.00    +0.106 A 
ATOM     10  C   UNL     1      35.853 -22.844 -16.705  0.00  0.00    +0.030 C 
ATOM     11  C   UNL     1      34.951 -23.311 -15.746  0.00  0.00    +0.158 C 
ATOM     12  C   UNL     1      36.921 -24.218 -12.870  0.00  0.00    +0.174 A 
ATOM     13  C   UNL     1      35.286 -22.479 -17.910  0.00  0.00    +0.110 C 
ATOM     14  C   UNL     1      33.443 -24.101 -13.059  0.00  0.00    +0.154 C 
ATOM     15  C   UNL     1      33.206 -23.053 -17.162  0.00  0.00    +0.149 C 
ATOM     16  H   UNL     1      31.560 -22.882 -18.320  0.00  0.00    +0.165 HD
ENDROOT
BRANCH   5  17
ATOM     17  C   UNL     1      30.743 -23.608 -16.628  0.00  0.00    +0.058 C 
ATOM     18  C   UNL     1      29.505 -22.972 -16.720  0.00  0.00    +0.015 C 
ATOM     19  C   UNL     1      30.911 -24.684 -15.755  0.00  0.00    +0.015 C 
ATOM     20  C   UNL     1      28.435 -23.411 -15.940  0.00  0.00    +0.001 C 
ATOM     21  C   UNL     1      29.840 -25.122 -14.975  0.00  0.00    +0.001 C 
ATOM     22  C   UNL     1      28.603 -24.486 -15.068  0.00  0.00    +0.000 C 
ENDBRANCH   5  17
BRANCH  12  24
ATOM     23  O   UNL     1      38.861 -23.609 -11.610  0.00  0.00    -0.243 OA
ATOM     24  C   UNL     1      38.098 -24.470 -12.088  0.00  0.00    +0.357 C 
BRANCH  24  25
ATOM     25  O   UNL     1      38.339 -25.803 -11.891  0.00  0.00    -0.476 OA
ATOM     26  H   UNL     1      37.913 -26.258 -11.191  0.00  0.00    +0.295 HD
ENDBRANCH  24  25
ENDBRANCH  12  24
TORSDOF 3
ENDMDL
MODEL 7
REMARK VINA RESULT:      -9.5      3.263      6.196
REMARK  Name = 44129603
REMARK  3 active torsions:
REMARK  status: ('A' for Active; 'I' for Inactive)
REMARK    1  A    between atoms: N_5  and  C_17
REMARK    2  A    between atoms: C_12  and  C_24
REMARK    3  A    between atoms: C_24  and  O_25
REMARK                            x       y       z     vdW  Elec       q    Type
REMARK                         _______ _______ _______ _____ _____    ______ ____
ROOT
ATOM      1  N   UNL     1      34.285 -22.557 -18.120  0.00  0.00    -0.246 N 
ATOM      2  N   UNL     1      34.789 -21.957 -19.217  0.00  0.00    -0.163 NA
ATOM      3  N   UNL     1      33.809 -23.611 -15.387  0.00  0.00    -0.336 NA
ATOM      4  N   UNL     1      34.808 -24.363 -13.321  0.00  0.00    -0.170 NA
ATOM      5  N   UNL     1      32.490 -24.500 -13.665  0.00  0.00    -0.247 N 
ATOM      6  C   UNL     1      37.578 -22.033 -16.723  0.00  0.00    +0.035 C 
ATOM      7  C   UNL     1      36.360 -22.119 -17.573  0.00  0.00    +0.024 A 
ATOM      8  C   UNL     1      37.575 -23.123 -15.617  0.00  0.00    +0.035 C 
ATOM      9  C   UNL     1      35.191 -22.682 -17.112  0.00  0.00    +0.106 A 
ATOM     10  C   UNL     1      36.208 -23.443 -15.050  0.00  0.00    +0.030 C 
ATOM     11  C   UNL     1      35.044 -23.277 -15.804  0.00  0.00    +0.158 C 
ATOM     12  C   UNL     1      36.056 -21.688 -18.874  0.00  0.00    +0.174 A 
ATOM     13  C   UNL     1      36.020 -24.010 -13.804  0.00  0.00    +0.110 C 
ATOM     14  C   UNL     1      32.898 -22.960 -18.130  0.00  0.00    +0.154 C 
ATOM     15  C   UNL     1      33.766 -24.140 -14.150  0.00  0.00    +0.149 C 
ATOM     16  H   UNL     1      32.504 -24.881 -12.757  0.00  0.00    +0.165 HD
ENDROOT
BRANCH   5  17
ATOM     17  C   UNL     1      31.201 -24.421 -14.224  0.00  0.00    +0.058 C 
ATOM     18  C   UNL     1      30.688 -23.188 -14.622  0.00  0.00    +0.015 C 
ATOM     19  C   UNL     1      30.438 -25.578 -14.379  0.00  0.00    +0.015 C 
ATOM     20  C   UNL     1      29.410 -23.110 -15.178  0.00  0.00    +0.001 C 
ATOM     21  C   UNL     1      29.160 -25.501 -14.935  0.00  0.00    +0.001 C 
ATOM     22  C   UNL     1      28.647 -24.267 -15.333  0.00  0.00    +0.000 C 
ENDBRANCH   5  17
BRANCH  12  24
ATOM     23  O   UNL     1      37.101 -19.808 -19.920  0.00  0.00    -0.243 OA
ATOM     24  C   UNL     1      36.924 -21.036 -19.813  0.00  0.00    +0.357 C 
BRANCH  24  25
ATOM     25  O   UNL     1      37.585 -21.911 -20.633  0.00  0.00    -0.476 OA
ATOM     26  H   UNL     1      37.565 -21.788 -21.562  0.00  0.00    +0.295 HD
ENDBRANCH  24  25
ENDBRANCH  12  24
TORSDOF 3
ENDMDL
MODEL 8
REMARK VINA RESULT:      -9.3      3.498      6.718
REMARK  Name = 44129603
REMARK  3 active torsions:
REMARK  status: ('A' for Active; 'I' for Inactive)
REMARK    1  A    between atoms: N_5  and  C_17
REMARK    2  A    between atoms: C_12  and  C_24
REMARK    3  A    between atoms: C_24  and  O_25
REMARK                            x       y       z     vdW  Elec       q    Type
REMARK                         _______ _______ _______ _____ _____    ______ ____
ROOT
ATOM      1  N   UNL     1      35.303 -22.739 -17.049  0.00  0.00    -0.246 N 
ATOM      2  N   UNL     1      35.303 -22.218 -18.293  0.00  0.00    -0.163 NA
ATOM      3  N   UNL     1      34.594 -24.080 -14.499  0.00  0.00    -0.336 NA
ATOM      4  N   UNL     1      32.823 -24.694 -12.976  0.00  0.00    -0.170 NA
ATOM      5  N   UNL     1      35.073 -25.100 -12.443  0.00  0.00    -0.247 N 
ATOM      6  C   UNL     1      31.729 -23.003 -17.516  0.00  0.00    +0.035 C 
ATOM      7  C   UNL     1      33.190 -22.747 -17.623  0.00  0.00    +0.024 A 
ATOM      8  C   UNL     1      31.268 -23.052 -16.034  0.00  0.00    +0.035 C 
ATOM      9  C   UNL     1      34.059 -23.064 -16.603  0.00  0.00    +0.106 A 
ATOM     10  C   UNL     1      32.273 -23.664 -15.081  0.00  0.00    +0.030 C 
ATOM     11  C   UNL     1      33.646 -23.621 -15.336  0.00  0.00    +0.158 C 
ATOM     12  C   UNL     1      34.010 -22.229 -18.639  0.00  0.00    +0.174 A 
ATOM     13  C   UNL     1      31.924 -24.210 -13.861  0.00  0.00    +0.110 C 
ATOM     14  C   UNL     1      36.568 -22.907 -16.371  0.00  0.00    +0.154 C 
ATOM     15  C   UNL     1      34.116 -24.599 -13.352  0.00  0.00    +0.149 C 
ATOM     16  H   UNL     1      34.681 -25.471 -11.619  0.00  0.00    +0.165 HD
ENDROOT
BRANCH   5  17
ATOM     17  C   UNL     1      36.477 -25.174 -12.482  0.00  0.00    +0.058 C 
ATOM     18  C   UNL     1      37.102 -26.204 -13.184  0.00  0.00    +0.015 C 
ATOM     19  C   UNL     1      37.244 -24.216 -11.819  0.00  0.00    +0.015 C 
ATOM     20  C   UNL     1      38.495 -26.276 -13.224  0.00  0.00    +0.001 C 
ATOM     21  C   UNL     1      38.637 -24.288 -11.858  0.00  0.00    +0.001 C 
ATOM     22  C   UNL     1      39.262 -25.318 -12.561  0.00  0.00    +0.000 C 
ENDBRANCH   5  17
BRANCH  12  24
ATOM     23  O   UNL     1      32.510 -21.920 -20.477  0.00  0.00    -0.243 OA
ATOM     24  C   UNL     1      33.613 -21.735 -19.926  0.00  0.00    +0.357 C 
BRANCH  24  25
ATOM     25  O   UNL     1      34.589 -21.002 -20.547  0.00  0.00    -0.476 OA
ATOM     26  H   UNL     1      35.430 -21.383 -20.708  0.00  0.00    +0.295 HD
ENDBRANCH  24  25
ENDBRANCH  12  24
TORSDOF 3
ENDMDL
MODEL 9
REMARK VINA RESULT:      -9.0      2.564      4.381
REMARK  Name = 44129603
REMARK  3 active torsions:
REMARK  status: ('A' for Active; 'I' for Inactive)
REMARK    1  A    between atoms: N_5  and  C_17
REMARK    2  A    between atoms: C_12  and  C_24
REMARK    3  A    between atoms: C_24  and  O_25
REMARK                            x       y       z     vdW  Elec       q    Type
REMARK                         _______ _______ _______ _____ _____    ______ ____
ROOT
ATOM      1  N   UNL     1      32.417 -23.296 -16.345  0.00  0.00    -0.246 N 
ATOM      2  N   UNL     1      31.338 -23.867 -15.773  0.00  0.00    -0.163 NA
ATOM      3  N   UNL     1      35.162 -22.563 -17.202  0.00  0.00    -0.336 NA
ATOM      4  N   UNL     1      37.508 -22.544 -16.629  0.00  0.00    -0.170 NA
ATOM      5  N   UNL     1      36.734 -21.524 -18.596  0.00  0.00    -0.247 N 
ATOM      6  C   UNL     1      34.300 -25.184 -13.906  0.00  0.00    +0.035 C 
ATOM      7  C   UNL     1      33.262 -24.535 -14.750  0.00  0.00    +0.024 A 
ATOM      8  C   UNL     1      35.608 -24.347 -13.871  0.00  0.00    +0.035 C 
ATOM      9  C   UNL     1      33.591 -23.661 -15.762  0.00  0.00    +0.106 A 
ATOM     10  C   UNL     1      35.939 -23.640 -15.168  0.00  0.00    +0.030 C 
ATOM     11  C   UNL     1      34.943 -23.257 -16.069  0.00  0.00    +0.158 C 
ATOM     12  C   UNL     1      31.862 -24.626 -14.802  0.00  0.00    +0.174 A 
ATOM     13  C   UNL     1      37.217 -23.237 -15.505  0.00  0.00    +0.110 C 
ATOM     14  C   UNL     1      32.216 -22.420 -17.476  0.00  0.00    +0.154 C 
ATOM     15  C   UNL     1      36.453 -22.246 -17.416  0.00  0.00    +0.149 C 
ATOM     16  H   UNL     1      37.689 -21.315 -18.714  0.00  0.00    +0.165 HD
ENDROOT
BRANCH   5  17
ATOM     17  C   UNL     1      35.919 -21.044 -19.637  0.00  0.00    +0.058 C 
ATOM     18  C   UNL     1      34.580 -21.429 -19.708  0.00  0.00    +0.015 C 
ATOM     19  C   UNL     1      36.449 -20.183 -20.597  0.00  0.00    +0.015 C 
ATOM     20  C   UNL     1      33.771 -20.952 -20.740  0.00  0.00    +0.001 C 
ATOM     21  C   UNL     1      35.640 -19.706 -21.629  0.00  0.00    +0.001 C 
ATOM     22  C   UNL     1      34.301 -20.091 -21.700  0.00  0.00    +0.000 C 
ENDBRANCH   5  17
BRANCH  12  24
ATOM     23  O   UNL     1      30.909 -25.313 -12.718  0.00  0.00    -0.243 OA
ATOM     24  C   UNL     1      30.996 -25.400 -13.958  0.00  0.00    +0.357 C 
BRANCH  24  25
ATOM     25  O   UNL     1      30.226 -26.295 -14.652  0.00  0.00    -0.476 OA
ATOM     26  H   UNL     1      30.514 -27.181 -14.753  0.00  0.00    +0.295 HD
ENDBRANCH  24  25
ENDBRANCH  12  24
TORSDOF 3
ENDMDL
