MODEL 1
REMARK VINA RESULT:     -11.4      0.000      0.000
REMARK  Name = 3478
REMARK  7 active torsions:
REMARK  status: ('A' for Active; 'I' for Inactive)
REMARK    1  A    between atoms: C_1  and  S_7
REMARK    2  A    between atoms: C_2  and  C_22
REMARK    3  A    between atoms: S_7  and  N_12
REMARK    4  A    between atoms: N_11  and  C_16
REMARK    5  A    between atoms: C_22  and  C_23
REMARK    6  A    between atoms: C_23  and  N_25
REMARK    7  A    between atoms: C_26  and  C_30
REMARK                            x       y       z     vdW  Elec       q    Type
REMARK                         _______ _______ _______ _____ _____    ______ ____
ROOT
ATOM      1  C   UNL     1      34.406 -22.202 -18.905  0.00  0.00    +0.125 C 
ATOM      2  C   UNL     1      35.606 -20.361 -20.622  0.00  0.00    -0.020 C 
ATOM      3  C   UNL     1      33.621 -21.443 -19.772  0.00  0.00    +0.020 C 
ATOM      4  C   UNL     1      35.791 -22.042 -18.895  0.00  0.00    +0.020 C 
ATOM      5  C   UNL     1      34.221 -20.522 -20.630  0.00  0.00    -0.003 C 
ATOM      6  C   UNL     1      36.391 -21.120 -19.754  0.00  0.00    -0.003 C 
ENDROOT
BRANCH   1   7
ATOM      7  S   UNL     1      33.645 -23.370 -17.817  0.00  0.00    +0.077 S 
ATOM      8  O   UNL     1      33.633 -24.661 -18.478  0.00  0.00    -0.150 OA
ATOM      9  O   UNL     1      32.409 -22.769 -17.355  0.00  0.00    -0.150 OA
BRANCH   7  12
ATOM     10  O   UNL     1      33.626 -24.819 -15.070  0.00  0.00    -0.251 OA
ATOM     11  N   UNL     1      35.685 -23.966 -14.453  0.00  0.00    -0.289 N 
ATOM     12  N   UNL     1      34.771 -23.402 -16.532  0.00  0.00    -0.169 N 
ATOM     13  C   UNL     1      34.613 -24.129 -15.309  0.00  0.00    +0.319 C 
ATOM     14  H   UNL     1      36.431 -23.390 -14.738  0.00  0.00    +0.151 HD
ATOM     15  H   UNL     1      35.596 -22.876 -16.641  0.00  0.00    +0.178 HD
BRANCH  11  16
ATOM     16  C   UNL     1      35.761 -24.605 -13.158  0.00  0.00    +0.073 C 
ATOM     17  C   UNL     1      36.052 -23.581 -12.055  0.00  0.00    +0.020 C 
ATOM     18  C   UNL     1      36.801 -25.730 -13.160  0.00  0.00    +0.020 C 
ATOM     19  C   UNL     1      37.487 -23.057 -12.108  0.00  0.00    +0.002 C 
ATOM     20  C   UNL     1      38.234 -25.203 -13.211  0.00  0.00    +0.002 C 
ATOM     21  C   UNL     1      38.503 -24.195 -12.097  0.00  0.00    +0.000 C 
ENDBRANCH  11  16
ENDBRANCH   7  12
ENDBRANCH   1   7
BRANCH   2  22
ATOM     22  C   UNL     1      36.249 -19.376 -21.539  0.00  0.00    +0.048 C 
BRANCH  22  23
ATOM     23  C   UNL     1      35.422 -19.081 -22.797  0.00  0.00    +0.094 C 
BRANCH  23  25
ATOM     24  O   UNL     1      34.615 -17.669 -25.163  0.00  0.00    -0.269 OA
ATOM     25  N   UNL     1      35.030 -17.700 -22.881  0.00  0.00    -0.300 N 
ATOM     26  C   UNL     1      34.653 -17.099 -24.076  0.00  0.00    +0.261 C 
ATOM     27  H   UNL     1      35.028 -17.158 -22.059  0.00  0.00    +0.150 HD
BRANCH  26  30
ATOM     28  N   UNL     1      34.751 -14.983 -22.924  0.00  0.00    -0.262 NA
ATOM     29  N   UNL     1      33.227 -13.742 -24.926  0.00  0.00    -0.270 NA
ATOM     30  C   UNL     1      34.301 -15.657 -24.000  0.00  0.00    +0.132 C 
ATOM     31  C   UNL     1      33.553 -15.049 -24.984  0.00  0.00    +0.174 C 
ATOM     32  C   UNL     1      33.676 -13.066 -23.850  0.00  0.00    +0.057 C 
ATOM     33  C   UNL     1      34.425 -13.676 -22.866  0.00  0.00    +0.166 C 
ATOM     34  C   UNL     1      33.336 -11.620 -23.753  0.00  0.00    +0.049 C 
ENDBRANCH  26  30
ENDBRANCH  23  25
ENDBRANCH  22  23
ENDBRANCH   2  22
TORSDOF 7
ENDMDL
MODEL 2
REMARK VINA RESULT:     -10.8      1.511      1.910
REMARK  Name = 3478
REMARK  7 active torsions:
REMARK  status: ('A' for Active; 'I' for Inactive)
REMARK    1  A    between atoms: C_1  and  S_7
REMARK    2  A    between atoms: C_2  and  C_22
REMARK    3  A    between atoms: S_7  and  N_12
REMARK    4  A    between atoms: N_11  and  C_16
REMARK    5  A    between atoms: C_22  and  C_23
REMARK    6  A    between atoms: C_23  and  N_25
REMARK    7  A    between atoms: C_26  and  C_30
REMARK                            x       y       z     vdW  Elec       q    Type
REMARK                         _______ _______ _______ _____ _____    ______ ____
ROOT
ATOM      1  C   UNL     1      34.086 -21.824 -19.497  0.00  0.00    +0.125 C 
ATOM      2  C   UNL     1      34.863 -19.801 -21.252  0.00  0.00    -0.020 C 
ATOM      3  C   UNL     1      33.121 -21.093 -20.189  0.00  0.00    +0.020 C 
ATOM      4  C   UNL     1      35.439 -21.545 -19.681  0.00  0.00    +0.020 C 
ATOM      5  C   UNL     1      33.509 -20.081 -21.067  0.00  0.00    -0.003 C 
ATOM      6  C   UNL     1      35.828 -20.532 -20.559  0.00  0.00    -0.003 C 
ENDROOT
BRANCH   1   7
ATOM      7  S   UNL     1      33.593 -23.107 -18.384  0.00  0.00    +0.077 S 
ATOM      8  O   UNL     1      33.767 -24.379 -19.057  0.00  0.00    -0.150 OA
ATOM      9  O   UNL     1      32.299 -22.726 -17.852  0.00  0.00    -0.150 OA
BRANCH   7  12
ATOM     10  O   UNL     1      33.700 -24.127 -15.452  0.00  0.00    -0.251 OA
ATOM     11  N   UNL     1      35.780 -23.198 -15.061  0.00  0.00    -0.289 N 
ATOM     12  N   UNL     1      34.774 -22.949 -17.159  0.00  0.00    -0.169 N 
ATOM     13  C   UNL     1      34.672 -23.484 -15.835  0.00  0.00    +0.319 C 
ATOM     14  H   UNL     1      36.511 -22.673 -15.462  0.00  0.00    +0.151 HD
ATOM     15  H   UNL     1      35.592 -22.448 -17.382  0.00  0.00    +0.178 HD
BRANCH  11  16
ATOM     16  C   UNL     1      35.915 -23.635 -13.690  0.00  0.00    +0.073 C 
ATOM     17  C   UNL     1      37.320 -23.341 -13.152  0.00  0.00    +0.020 C 
ATOM     18  C   UNL     1      35.565 -25.120 -13.548  0.00  0.00    +0.020 C 
ATOM     19  C   UNL     1      38.381 -24.256 -13.763  0.00  0.00    +0.002 C 
ATOM     20  C   UNL     1      36.629 -26.032 -14.157  0.00  0.00    +0.002 C 
ATOM     21  C   UNL     1      38.017 -25.729 -13.599  0.00  0.00    +0.000 C 
ENDBRANCH  11  16
ENDBRANCH   7  12
ENDBRANCH   1   7
BRANCH   2  22
ATOM     22  C   UNL     1      35.279 -18.719 -22.191  0.00  0.00    +0.048 C 
BRANCH  22  23
ATOM     23  C   UNL     1      35.913 -17.511 -21.490  0.00  0.00    +0.094 C 
BRANCH  23  25
ATOM     24  O   UNL     1      35.323 -15.649 -23.594  0.00  0.00    -0.269 OA
ATOM     25  N   UNL     1      35.016 -16.389 -21.418  0.00  0.00    -0.300 N 
ATOM     26  C   UNL     1      34.792 -15.537 -22.493  0.00  0.00    +0.261 C 
ATOM     27  H   UNL     1      34.542 -16.217 -20.572  0.00  0.00    +0.150 HD
BRANCH  26  30
ATOM     28  N   UNL     1      33.792 -13.461 -23.204  0.00  0.00    -0.262 NA
ATOM     29  N   UNL     1      32.244 -13.325 -20.869  0.00  0.00    -0.270 NA
ATOM     30  C   UNL     1      33.857 -14.409 -22.248  0.00  0.00    +0.132 C 
ATOM     31  C   UNL     1      33.096 -14.343 -21.102  0.00  0.00    +0.174 C 
ATOM     32  C   UNL     1      32.179 -12.376 -21.823  0.00  0.00    +0.057 C 
ATOM     33  C   UNL     1      32.940 -12.443 -22.971  0.00  0.00    +0.166 C 
ATOM     34  C   UNL     1      31.247 -11.237 -21.600  0.00  0.00    +0.049 C 
ENDBRANCH  26  30
ENDBRANCH  23  25
ENDBRANCH  22  23
ENDBRANCH   2  22
TORSDOF 7
ENDMDL
MODEL 3
REMARK VINA RESULT:     -10.5      3.388      4.419
REMARK  Name = 3478
REMARK  7 active torsions:
REMARK  status: ('A' for Active; 'I' for Inactive)
REMARK    1  A    between atoms: C_1  and  S_7
REMARK    2  A    between atoms: C_2  and  C_22
REMARK    3  A    between atoms: S_7  and  N_12
REMARK    4  A    between atoms: N_11  and  C_16
REMARK    5  A    between atoms: C_22  and  C_23
REMARK    6  A    between atoms: C_23  and  N_25
REMARK    7  A    between atoms: C_26  and  C_30
REMARK                            x       y       z     vdW  Elec       q    Type
REMARK                         _______ _______ _______ _____ _____    ______ ____
ROOT
ATOM      1  C   UNL     1      34.441 -21.872 -19.675  0.00  0.00    +0.125 C 
ATOM      2  C   UNL     1      34.849 -19.626 -21.277  0.00  0.00    -0.020 C 
ATOM      3  C   UNL     1      35.735 -21.410 -19.912  0.00  0.00    +0.020 C 
ATOM      4  C   UNL     1      33.350 -21.211 -20.238  0.00  0.00    +0.020 C 
ATOM      5  C   UNL     1      35.939 -20.287 -20.713  0.00  0.00    -0.003 C 
ATOM      6  C   UNL     1      33.554 -20.087 -21.040  0.00  0.00    -0.003 C 
ENDROOT
BRANCH   1   7
ATOM      7  S   UNL     1      34.182 -23.295 -18.658  0.00  0.00    +0.077 S 
ATOM      8  O   UNL     1      35.148 -23.259 -17.577  0.00  0.00    -0.150 OA
ATOM      9  O   UNL     1      34.116 -24.439 -19.548  0.00  0.00    -0.150 OA
BRANCH   7  12
ATOM     10  O   UNL     1      33.009 -23.478 -15.789  0.00  0.00    -0.251 OA
ATOM     11  N   UNL     1      30.908 -22.782 -16.456  0.00  0.00    -0.289 N 
ATOM     12  N   UNL     1      32.623 -22.974 -18.037  0.00  0.00    -0.169 N 
ATOM     13  C   UNL     1      32.233 -23.111 -16.666  0.00  0.00    +0.319 C 
ATOM     14  H   UNL     1      30.366 -22.498 -17.229  0.00  0.00    +0.151 HD
ATOM     15  H   UNL     1      31.936 -22.671 -18.674  0.00  0.00    +0.178 HD
BRANCH  11  16
ATOM     16  C   UNL     1      30.281 -22.835 -15.155  0.00  0.00    +0.073 C 
ATOM     17  C   UNL     1      30.850 -23.984 -14.315  0.00  0.00    +0.020 C 
ATOM     18  C   UNL     1      28.757 -22.942 -15.282  0.00  0.00    +0.020 C 
ATOM     19  C   UNL     1      30.396 -25.355 -14.815  0.00  0.00    +0.002 C 
ATOM     20  C   UNL     1      28.306 -24.315 -15.781  0.00  0.00    +0.002 C 
ATOM     21  C   UNL     1      28.876 -25.441 -14.923  0.00  0.00    +0.000 C 
ENDBRANCH  11  16
ENDBRANCH   7  12
ENDBRANCH   1   7
BRANCH   2  22
ATOM     22  C   UNL     1      35.066 -18.424 -22.134  0.00  0.00    +0.048 C 
BRANCH  22  23
ATOM     23  C   UNL     1      35.674 -17.235 -21.380  0.00  0.00    +0.094 C 
BRANCH  23  25
ATOM     24  O   UNL     1      35.245 -15.329 -23.483  0.00  0.00    -0.269 OA
ATOM     25  N   UNL     1      34.790 -16.101 -21.344  0.00  0.00    -0.300 N 
ATOM     26  C   UNL     1      34.647 -15.228 -22.415  0.00  0.00    +0.261 C 
ATOM     27  H   UNL     1      34.266 -15.937 -20.526  0.00  0.00    +0.150 HD
BRANCH  26  30
ATOM     28  N   UNL     1      33.711 -13.134 -23.160  0.00  0.00    -0.262 NA
ATOM     29  N   UNL     1      32.045 -12.997 -20.907  0.00  0.00    -0.270 NA
ATOM     30  C   UNL     1      33.714 -14.090 -22.210  0.00  0.00    +0.132 C 
ATOM     31  C   UNL     1      32.896 -14.023 -21.104  0.00  0.00    +0.174 C 
ATOM     32  C   UNL     1      32.041 -12.039 -21.856  0.00  0.00    +0.057 C 
ATOM     33  C   UNL     1      32.860 -12.107 -22.963  0.00  0.00    +0.166 C 
ATOM     34  C   UNL     1      31.113 -10.890 -21.671  0.00  0.00    +0.049 C 
ENDBRANCH  26  30
ENDBRANCH  23  25
ENDBRANCH  22  23
ENDBRANCH   2  22
TORSDOF 7
ENDMDL
MODEL 4
REMARK VINA RESULT:     -10.4      2.913      4.540
REMARK  Name = 3478
REMARK  7 active torsions:
REMARK  status: ('A' for Active; 'I' for Inactive)
REMARK    1  A    between atoms: C_1  and  S_7
REMARK    2  A    between atoms: C_2  and  C_22
REMARK    3  A    between atoms: S_7  and  N_12
REMARK    4  A    between atoms: N_11  and  C_16
REMARK    5  A    between atoms: C_22  and  C_23
REMARK    6  A    between atoms: C_23  and  N_25
REMARK    7  A    between atoms: C_26  and  C_30
REMARK                            x       y       z     vdW  Elec       q    Type
REMARK                         _______ _______ _______ _____ _____    ______ ____
ROOT
ATOM      1  C   UNL     1      35.549 -23.101 -16.834  0.00  0.00    +0.125 C 
ATOM      2  C   UNL     1      35.513 -21.646 -19.213  0.00  0.00    -0.020 C 
ATOM      3  C   UNL     1      36.670 -22.367 -17.221  0.00  0.00    +0.020 C 
ATOM      4  C   UNL     1      34.409 -23.107 -17.637  0.00  0.00    +0.020 C 
ATOM      5  C   UNL     1      36.653 -21.640 -18.410  0.00  0.00    -0.003 C 
ATOM      6  C   UNL     1      34.391 -22.379 -18.827  0.00  0.00    -0.003 C 
ENDROOT
BRANCH   1   7
ATOM      7  S   UNL     1      35.572 -24.023 -15.326  0.00  0.00    +0.077 S 
ATOM      8  O   UNL     1      35.753 -23.091 -14.230  0.00  0.00    -0.150 OA
ATOM      9  O   UNL     1      36.500 -25.120 -15.519  0.00  0.00    -0.150 OA
BRANCH   7  12
ATOM     10  O   UNL     1      32.915 -22.843 -14.233  0.00  0.00    -0.251 OA
ATOM     11  N   UNL     1      31.678 -24.694 -14.854  0.00  0.00    -0.289 N 
ATOM     12  N   UNL     1      33.976 -24.634 -15.292  0.00  0.00    -0.169 N 
ATOM     13  C   UNL     1      32.841 -23.958 -14.741  0.00  0.00    +0.319 C 
ATOM     14  H   UNL     1      31.724 -25.582 -15.279  0.00  0.00    +0.151 HD
ATOM     15  H   UNL     1      33.825 -25.525 -15.683  0.00  0.00    +0.178 HD
BRANCH  11  16
ATOM     16  C   UNL     1      30.398 -24.222 -14.376  0.00  0.00    +0.073 C 
ATOM     17  C   UNL     1      29.293 -25.246 -14.656  0.00  0.00    +0.020 C 
ATOM     18  C   UNL     1      30.055 -22.856 -14.979  0.00  0.00    +0.020 C 
ATOM     19  C   UNL     1      28.937 -25.331 -16.140  0.00  0.00    +0.002 C 
ATOM     20  C   UNL     1      29.698 -22.944 -16.463  0.00  0.00    +0.002 C 
ATOM     21  C   UNL     1      28.588 -23.961 -16.715  0.00  0.00    +0.000 C 
ENDBRANCH  11  16
ENDBRANCH   7  12
ENDBRANCH   1   7
BRANCH   2  22
ATOM     22  C   UNL     1      35.493 -20.868 -20.486  0.00  0.00    +0.048 C 
BRANCH  22  23
ATOM     23  C   UNL     1      36.571 -19.779 -20.555  0.00  0.00    +0.094 C 
BRANCH  23  25
ATOM     24  O   UNL     1      35.743 -18.992 -23.189  0.00  0.00    -0.269 OA
ATOM     25  N   UNL     1      36.033 -18.502 -20.941  0.00  0.00    -0.300 N 
ATOM     26  C   UNL     1      35.658 -18.209 -22.247  0.00  0.00    +0.261 C 
ATOM     27  H   UNL     1      35.927 -17.806 -20.251  0.00  0.00    +0.150 HD
BRANCH  26  30
ATOM     28  N   UNL     1      35.046 -16.031 -21.410  0.00  0.00    -0.262 NA
ATOM     29  N   UNL     1      34.327 -15.168 -23.980  0.00  0.00    -0.270 NA
ATOM     30  C   UNL     1      35.145 -16.835 -22.487  0.00  0.00    +0.132 C 
ATOM     31  C   UNL     1      34.793 -16.412 -23.749  0.00  0.00    +0.174 C 
ATOM     32  C   UNL     1      34.227 -14.364 -22.904  0.00  0.00    +0.057 C 
ATOM     33  C   UNL     1      34.580 -14.788 -21.641  0.00  0.00    +0.166 C 
ATOM     34  C   UNL     1      33.717 -12.982 -23.122  0.00  0.00    +0.049 C 
ENDBRANCH  26  30
ENDBRANCH  23  25
ENDBRANCH  22  23
ENDBRANCH   2  22
TORSDOF 7
ENDMDL
MODEL 5
REMARK VINA RESULT:     -10.0      5.218     13.524
REMARK  Name = 3478
REMARK  7 active torsions:
REMARK  status: ('A' for Active; 'I' for Inactive)
REMARK    1  A    between atoms: C_1  and  S_7
REMARK    2  A    between atoms: C_2  and  C_22
REMARK    3  A    between atoms: S_7  and  N_12
REMARK    4  A    between atoms: N_11  and  C_16
REMARK    5  A    between atoms: C_22  and  C_23
REMARK    6  A    between atoms: C_23  and  N_25
REMARK    7  A    between atoms: C_26  and  C_30
REMARK                            x       y       z     vdW  Elec       q    Type
REMARK                         _______ _______ _______ _____ _____    ______ ____
ROOT
ATOM      1  C   UNL     1      32.461 -12.476 -21.803  0.00  0.00    +0.125 C 
ATOM      2  C   UNL     1      33.884 -14.700 -22.702  0.00  0.00    -0.020 C 
ATOM      3  C   UNL     1      32.908 -12.532 -23.122  0.00  0.00    +0.020 C 
ATOM      4  C   UNL     1      32.725 -13.533 -20.932  0.00  0.00    +0.020 C 
ATOM      5  C   UNL     1      33.620 -13.643 -23.572  0.00  0.00    -0.003 C 
ATOM      6  C   UNL     1      33.437 -14.645 -21.382  0.00  0.00    -0.003 C 
ENDROOT
BRANCH   1   7
ATOM      7  S   UNL     1      31.559 -11.067 -21.233  0.00  0.00    +0.077 S 
ATOM      8  O   UNL     1      32.046 -10.724 -19.911  0.00  0.00    -0.150 OA
ATOM      9  O   UNL     1      30.153 -11.354 -21.448  0.00  0.00    -0.150 OA
BRANCH   7  12
ATOM     10  O   UNL     1      32.830  -8.259 -20.849  0.00  0.00    -0.251 OA
ATOM     11  N   UNL     1      32.958  -7.856 -23.122  0.00  0.00    -0.289 N 
ATOM     12  N   UNL     1      32.068  -9.878 -22.350  0.00  0.00    -0.169 N 
ATOM     13  C   UNL     1      32.643  -8.612 -22.010  0.00  0.00    +0.319 C 
ATOM     14  H   UNL     1      32.768  -8.230 -24.013  0.00  0.00    +0.151 HD
ATOM     15  H   UNL     1      31.957 -10.081 -23.307  0.00  0.00    +0.178 HD
BRANCH  11  16
ATOM     16  C   UNL     1      33.554  -6.542 -23.036  0.00  0.00    +0.073 C 
ATOM     17  C   UNL     1      32.482  -5.447 -23.056  0.00  0.00    +0.020 C 
ATOM     18  C   UNL     1      34.584  -6.331 -24.151  0.00  0.00    +0.020 C 
ATOM     19  C   UNL     1      31.835  -5.288 -24.431  0.00  0.00    +0.002 C 
ATOM     20  C   UNL     1      33.934  -6.170 -25.525  0.00  0.00    +0.002 C 
ATOM     21  C   UNL     1      32.878  -5.068 -25.523  0.00  0.00    +0.000 C 
ENDBRANCH  11  16
ENDBRANCH   7  12
ENDBRANCH   1   7
BRANCH   2  22
ATOM     22  C   UNL     1      34.645 -15.890 -23.182  0.00  0.00    +0.048 C 
BRANCH  22  23
ATOM     23  C   UNL     1      35.711 -16.375 -22.191  0.00  0.00    +0.094 C 
BRANCH  23  25
ATOM     24  O   UNL     1      35.711 -19.103 -23.089  0.00  0.00    -0.269 OA
ATOM     25  N   UNL     1      35.278 -17.526 -21.444  0.00  0.00    -0.300 N 
ATOM     26  C   UNL     1      35.314 -18.815 -21.963  0.00  0.00    +0.261 C 
ATOM     27  H   UNL     1      34.942 -17.394 -20.527  0.00  0.00    +0.150 HD
BRANCH  26  30
ATOM     28  N   UNL     1      35.730 -20.576 -20.369  0.00  0.00    -0.262 NA
ATOM     29  N   UNL     1      32.989 -21.142 -20.175  0.00  0.00    -0.270 NA
ATOM     30  C   UNL     1      34.807 -19.891 -21.074  0.00  0.00    +0.132 C 
ATOM     31  C   UNL     1      33.461 -20.168 -20.978  0.00  0.00    +0.174 C 
ATOM     32  C   UNL     1      33.911 -21.828 -19.470  0.00  0.00    +0.057 C 
ATOM     33  C   UNL     1      35.257 -21.550 -19.565  0.00  0.00    +0.166 C 
ATOM     34  C   UNL     1      33.424 -22.911 -18.571  0.00  0.00    +0.049 C 
ENDBRANCH  26  30
ENDBRANCH  23  25
ENDBRANCH  22  23
ENDBRANCH   2  22
TORSDOF 7
ENDMDL
MODEL 6
REMARK VINA RESULT:     -10.0      3.572     11.998
REMARK  Name = 3478
REMARK  7 active torsions:
REMARK  status: ('A' for Active; 'I' for Inactive)
REMARK    1  A    between atoms: C_1  and  S_7
REMARK    2  A    between atoms: C_2  and  C_22
REMARK    3  A    between atoms: S_7  and  N_12
REMARK    4  A    between atoms: N_11  and  C_16
REMARK    5  A    between atoms: C_22  and  C_23
REMARK    6  A    between atoms: C_23  and  N_25
REMARK    7  A    between atoms: C_26  and  C_30
REMARK                            x       y       z     vdW  Elec       q    Type
REMARK                         _______ _______ _______ _____ _____    ______ ____
ROOT
ATOM      1  C   UNL     1      34.648 -17.921 -23.727  0.00  0.00    +0.125 C 
ATOM      2  C   UNL     1      35.557 -19.327 -21.496  0.00  0.00    -0.020 C 
ATOM      3  C   UNL     1      34.436 -19.296 -23.635  0.00  0.00    +0.020 C 
ATOM      4  C   UNL     1      35.314 -17.248 -22.703  0.00  0.00    +0.020 C 
ATOM      5  C   UNL     1      34.891 -20.000 -22.520  0.00  0.00    -0.003 C 
ATOM      6  C   UNL     1      35.769 -17.952 -21.588  0.00  0.00    -0.003 C 
ENDROOT
BRANCH   1   7
ATOM      7  S   UNL     1      34.071 -17.029 -25.140  0.00  0.00    +0.077 S 
ATOM      8  O   UNL     1      32.721 -17.471 -25.432  0.00  0.00    -0.150 OA
ATOM      9  O   UNL     1      35.110 -17.123 -26.148  0.00  0.00    -0.150 OA
BRANCH   7  12
ATOM     10  O   UNL     1      32.891 -14.393 -26.281  0.00  0.00    -0.251 OA
ATOM     11  N   UNL     1      33.549 -13.146 -24.449  0.00  0.00    -0.289 N 
ATOM     12  N   UNL     1      34.025 -15.436 -24.526  0.00  0.00    -0.169 N 
ATOM     13  C   UNL     1      33.436 -14.310 -25.184  0.00  0.00    +0.319 C 
ATOM     14  H   UNL     1      34.005 -13.184 -23.577  0.00  0.00    +0.151 HD
ATOM     15  H   UNL     1      34.438 -15.279 -23.645  0.00  0.00    +0.178 HD
BRANCH  11  16
ATOM     16  C   UNL     1      33.027 -11.876 -24.901  0.00  0.00    +0.073 C 
ATOM     17  C   UNL     1      33.902 -11.283 -26.011  0.00  0.00    +0.020 C 
ATOM     18  C   UNL     1      32.872 -10.897 -23.733  0.00  0.00    +0.020 C 
ATOM     19  C   UNL     1      35.246 -10.776 -25.487  0.00  0.00    +0.002 C 
ATOM     20  C   UNL     1      34.217 -10.390 -23.212  0.00  0.00    +0.002 C 
ATOM     21  C   UNL     1      35.065  -9.794 -24.332  0.00  0.00    +0.000 C 
ENDBRANCH  11  16
ENDBRANCH   7  12
ENDBRANCH   1   7
BRANCH   2  22
ATOM     22  C   UNL     1      36.044 -20.078 -20.303  0.00  0.00    +0.048 C 
BRANCH  22  23
ATOM     23  C   UNL     1      35.810 -21.592 -20.395  0.00  0.00    +0.094 C 
BRANCH  23  25
ATOM     24  O   UNL     1      32.964 -21.830 -20.102  0.00  0.00    -0.269 OA
ATOM     25  N   UNL     1      35.104 -22.106 -19.252  0.00  0.00    -0.300 N 
ATOM     26  C   UNL     1      33.717 -22.183 -19.199  0.00  0.00    +0.261 C 
ATOM     27  H   UNL     1      35.625 -22.414 -18.475  0.00  0.00    +0.150 HD
BRANCH  26  30
ATOM     28  N   UNL     1      31.804 -22.614 -17.796  0.00  0.00    -0.262 NA
ATOM     29  N   UNL     1      33.426 -23.762 -15.816  0.00  0.00    -0.270 NA
ATOM     30  C   UNL     1      33.140 -22.713 -17.937  0.00  0.00    +0.132 C 
ATOM     31  C   UNL     1      33.937 -23.277 -16.965  0.00  0.00    +0.174 C 
ATOM     32  C   UNL     1      32.089 -23.662 -15.674  0.00  0.00    +0.057 C 
ATOM     33  C   UNL     1      31.292 -23.099 -16.647  0.00  0.00    +0.166 C 
ATOM     34  C   UNL     1      31.489 -24.189 -14.417  0.00  0.00    +0.049 C 
ENDBRANCH  26  30
ENDBRANCH  23  25
ENDBRANCH  22  23
ENDBRANCH   2  22
TORSDOF 7
ENDMDL
MODEL 7
REMARK VINA RESULT:      -9.9      3.117      5.397
REMARK  Name = 3478
REMARK  7 active torsions:
REMARK  status: ('A' for Active; 'I' for Inactive)
REMARK    1  A    between atoms: C_1  and  S_7
REMARK    2  A    between atoms: C_2  and  C_22
REMARK    3  A    between atoms: S_7  and  N_12
REMARK    4  A    between atoms: N_11  and  C_16
REMARK    5  A    between atoms: C_22  and  C_23
REMARK    6  A    between atoms: C_23  and  N_25
REMARK    7  A    between atoms: C_26  and  C_30
REMARK                            x       y       z     vdW  Elec       q    Type
REMARK                         _______ _______ _______ _____ _____    ______ ____
ROOT
ATOM      1  C   UNL     1      36.150 -23.725 -14.917  0.00  0.00    +0.125 C 
ATOM      2  C   UNL     1      36.616 -22.288 -17.262  0.00  0.00    -0.020 C 
ATOM      3  C   UNL     1      37.418 -23.205 -15.177  0.00  0.00    +0.020 C 
ATOM      4  C   UNL     1      35.115 -23.528 -15.830  0.00  0.00    +0.020 C 
ATOM      5  C   UNL     1      37.652 -22.487 -16.349  0.00  0.00    -0.003 C 
ATOM      6  C   UNL     1      35.349 -22.809 -17.004  0.00  0.00    -0.003 C 
ENDROOT
BRANCH   1   7
ATOM      7  S   UNL     1      35.855 -24.635 -13.431  0.00  0.00    +0.077 S 
ATOM      8  O   UNL     1      35.784 -23.692 -12.331  0.00  0.00    -0.150 OA
ATOM      9  O   UNL     1      36.815 -25.722 -13.407  0.00  0.00    -0.150 OA
BRANCH   7  12
ATOM     10  O   UNL     1      33.011 -23.501 -12.908  0.00  0.00    -0.251 OA
ATOM     11  N   UNL     1      31.959 -25.360 -13.792  0.00  0.00    -0.289 N 
ATOM     12  N   UNL     1      34.297 -25.266 -13.738  0.00  0.00    -0.169 N 
ATOM     13  C   UNL     1      33.062 -24.611 -13.431  0.00  0.00    +0.319 C 
ATOM     14  H   UNL     1      32.106 -26.242 -14.207  0.00  0.00    +0.151 HD
ATOM     15  H   UNL     1      34.244 -26.154 -14.160  0.00  0.00    +0.178 HD
BRANCH  11  16
ATOM     16  C   UNL     1      30.601 -24.909 -13.588  0.00  0.00    +0.073 C 
ATOM     17  C   UNL     1      29.611 -25.759 -14.393  0.00  0.00    +0.020 C 
ATOM     18  C   UNL     1      30.458 -23.421 -13.926  0.00  0.00    +0.020 C 
ATOM     19  C   UNL     1      29.693 -25.485 -15.895  0.00  0.00    +0.002 C 
ATOM     20  C   UNL     1      30.539 -23.151 -15.428  0.00  0.00    +0.002 C 
ATOM     21  C   UNL     1      29.537 -23.999 -16.207  0.00  0.00    +0.000 C 
ENDBRANCH  11  16
ENDBRANCH   7  12
ENDBRANCH   1   7
BRANCH   2  22
ATOM     22  C   UNL     1      36.865 -21.521 -18.516  0.00  0.00    +0.048 C 
BRANCH  22  23
ATOM     23  C   UNL     1      35.858 -21.828 -19.632  0.00  0.00    +0.094 C 
BRANCH  23  25
ATOM     24  O   UNL     1      33.488 -20.578 -20.663  0.00  0.00    -0.269 OA
ATOM     25  N   UNL     1      35.798 -20.781 -20.617  0.00  0.00    -0.300 N 
ATOM     26  C   UNL     1      34.598 -20.234 -21.059  0.00  0.00    +0.261 C 
ATOM     27  H   UNL     1      36.641 -20.439 -20.995  0.00  0.00    +0.150 HD
BRANCH  26  30
ATOM     28  N   UNL     1      34.201 -19.476 -23.313  0.00  0.00    -0.262 NA
ATOM     29  N   UNL     1      35.393 -16.997 -22.764  0.00  0.00    -0.270 NA
ATOM     30  C   UNL     1      34.705 -19.180 -22.099  0.00  0.00    +0.132 C 
ATOM     31  C   UNL     1      35.290 -17.962 -21.829  0.00  0.00    +0.174 C 
ATOM     32  C   UNL     1      34.889 -17.293 -23.979  0.00  0.00    +0.057 C 
ATOM     33  C   UNL     1      34.303 -18.511 -24.248  0.00  0.00    +0.166 C 
ATOM     34  C   UNL     1      34.984 -16.249 -25.037  0.00  0.00    +0.049 C 
ENDBRANCH  26  30
ENDBRANCH  23  25
ENDBRANCH  22  23
ENDBRANCH   2  22
TORSDOF 7
ENDMDL
MODEL 8
REMARK VINA RESULT:      -9.8      2.465     11.511
REMARK  Name = 3478
REMARK  7 active torsions:
REMARK  status: ('A' for Active; 'I' for Inactive)
REMARK    1  A    between atoms: C_1  and  S_7
REMARK    2  A    between atoms: C_2  and  C_22
REMARK    3  A    between atoms: S_7  and  N_12
REMARK    4  A    between atoms: N_11  and  C_16
REMARK    5  A    between atoms: C_22  and  C_23
REMARK    6  A    between atoms: C_23  and  N_25
REMARK    7  A    between atoms: C_26  and  C_30
REMARK                            x       y       z     vdW  Elec       q    Type
REMARK                         _______ _______ _______ _____ _____    ______ ____
ROOT
ATOM      1  C   UNL     1      34.963 -20.472 -20.670  0.00  0.00    +0.125 C 
ATOM      2  C   UNL     1      33.904 -22.337 -18.888  0.00  0.00    -0.020 C 
ATOM      3  C   UNL     1      35.815 -21.261 -19.898  0.00  0.00    +0.020 C 
ATOM      4  C   UNL     1      33.582 -20.615 -20.552  0.00  0.00    +0.020 C 
ATOM      5  C   UNL     1      35.286 -22.193 -19.006  0.00  0.00    -0.003 C 
ATOM      6  C   UNL     1      33.052 -21.548 -19.660  0.00  0.00    -0.003 C 
ENDROOT
BRANCH   1   7
ATOM      7  S   UNL     1      35.635 -19.290 -21.801  0.00  0.00    +0.077 S 
ATOM      8  O   UNL     1      35.106 -19.576 -23.120  0.00  0.00    -0.150 OA
ATOM      9  O   UNL     1      37.067 -19.259 -21.573  0.00  0.00    -0.150 OA
BRANCH   7  12
ATOM     10  O   UNL     1      35.957 -16.324 -22.666  0.00  0.00    -0.251 OA
ATOM     11  N   UNL     1      34.492 -15.552 -21.053  0.00  0.00    -0.289 N 
ATOM     12  N   UNL     1      34.940 -17.844 -21.213  0.00  0.00    -0.169 N 
ATOM     13  C   UNL     1      35.195 -16.532 -21.726  0.00  0.00    +0.319 C 
ATOM     14  H   UNL     1      33.905 -15.822 -20.310  0.00  0.00    +0.151 HD
ATOM     15  H   UNL     1      34.311 -17.918 -20.458  0.00  0.00    +0.178 HD
BRANCH  11  16
ATOM     16  C   UNL     1      34.580 -14.149 -21.390  0.00  0.00    +0.073 C 
ATOM     17  C   UNL     1      33.556 -13.327 -20.600  0.00  0.00    +0.020 C 
ATOM     18  C   UNL     1      34.419 -13.934 -22.899  0.00  0.00    +0.020 C 
ATOM     19  C   UNL     1      32.123 -13.562 -21.078  0.00  0.00    +0.002 C 
ATOM     20  C   UNL     1      32.985 -14.168 -23.374  0.00  0.00    +0.002 C 
ATOM     21  C   UNL     1      31.986 -13.331 -22.580  0.00  0.00    +0.000 C 
ENDBRANCH  11  16
ENDBRANCH   7  12
ENDBRANCH   1   7
BRANCH   2  22
ATOM     22  C   UNL     1      33.337 -23.334 -17.935  0.00  0.00    +0.048 C 
BRANCH  22  23
ATOM     23  C   UNL     1      33.761 -23.101 -16.479  0.00  0.00    +0.094 C 
BRANCH  23  25
ATOM     24  O   UNL     1      34.458 -24.700 -14.199  0.00  0.00    -0.269 OA
ATOM     25  N   UNL     1      35.051 -23.666 -16.189  0.00  0.00    -0.300 N 
ATOM     26  C   UNL     1      35.297 -24.431 -15.055  0.00  0.00    +0.261 C 
ATOM     27  H   UNL     1      35.791 -23.505 -16.819  0.00  0.00    +0.150 HD
BRANCH  26  30
ATOM     28  N   UNL     1      36.837 -26.222 -14.566  0.00  0.00    -0.262 NA
ATOM     29  N   UNL     1      39.038 -24.515 -14.902  0.00  0.00    -0.270 NA
ATOM     30  C   UNL     1      36.689 -24.921 -14.886  0.00  0.00    +0.132 C 
ATOM     31  C   UNL     1      37.770 -24.082 -15.052  0.00  0.00    +0.174 C 
ATOM     32  C   UNL     1      39.186 -25.816 -14.581  0.00  0.00    +0.057 C 
ATOM     33  C   UNL     1      38.105 -26.654 -14.416  0.00  0.00    +0.166 C 
ATOM     34  C   UNL     1      40.573 -26.328 -14.409  0.00  0.00    +0.049 C 
ENDBRANCH  26  30
ENDBRANCH  23  25
ENDBRANCH  22  23
ENDBRANCH   2  22
TORSDOF 7
ENDMDL
MODEL 9
REMARK VINA RESULT:      -9.8      6.578     10.718
REMARK  Name = 3478
REMARK  7 active torsions:
REMARK  status: ('A' for Active; 'I' for Inactive)
REMARK    1  A    between atoms: C_1  and  S_7
REMARK    2  A    between atoms: C_2  and  C_22
REMARK    3  A    between atoms: S_7  and  N_12
REMARK    4  A    between atoms: N_11  and  C_16
REMARK    5  A    between atoms: C_22  and  C_23
REMARK    6  A    between atoms: C_23  and  N_25
REMARK    7  A    between atoms: C_26  and  C_30
REMARK                            x       y       z     vdW  Elec       q    Type
REMARK                         _______ _______ _______ _____ _____    ______ ____
ROOT
ATOM      1  C   UNL     1      32.899 -12.892 -22.954  0.00  0.00    +0.125 C 
ATOM      2  C   UNL     1      31.774 -11.360 -20.913  0.00  0.00    -0.020 C 
ATOM      3  C   UNL     1      32.556 -13.489 -21.742  0.00  0.00    +0.020 C 
ATOM      4  C   UNL     1      32.681 -11.528 -23.147  0.00  0.00    +0.020 C 
ATOM      5  C   UNL     1      31.993 -12.724 -20.721  0.00  0.00    -0.003 C 
ATOM      6  C   UNL     1      32.118 -10.762 -22.125  0.00  0.00    -0.003 C 
ENDROOT
BRANCH   1   7
ATOM      7  S   UNL     1      33.612 -13.863 -24.248  0.00  0.00    +0.077 S 
ATOM      8  O   UNL     1      34.578 -13.040 -24.950  0.00  0.00    -0.150 OA
ATOM      9  O   UNL     1      32.512 -14.479 -24.964  0.00  0.00    -0.150 OA
BRANCH   7  12
ATOM     10  O   UNL     1      34.638 -16.698 -24.995  0.00  0.00    -0.251 OA
ATOM     11  N   UNL     1      35.491 -17.094 -22.884  0.00  0.00    -0.289 N 
ATOM     12  N   UNL     1      34.436 -15.057 -23.345  0.00  0.00    -0.169 N 
ATOM     13  C   UNL     1      34.845 -16.336 -23.841  0.00  0.00    +0.319 C 
ATOM     14  H   UNL     1      35.609 -16.713 -21.983  0.00  0.00    +0.151 HD
ATOM     15  H   UNL     1      34.646 -14.848 -22.406  0.00  0.00    +0.178 HD
BRANCH  11  16
ATOM     16  C   UNL     1      36.003 -18.421 -23.145  0.00  0.00    +0.073 C 
ATOM     17  C   UNL     1      34.867 -19.448 -23.209  0.00  0.00    +0.020 C 
ATOM     18  C   UNL     1      37.054 -18.820 -22.104  0.00  0.00    +0.020 C 
ATOM     19  C   UNL     1      34.257 -19.731 -21.837  0.00  0.00    +0.002 C 
ATOM     20  C   UNL     1      36.441 -19.105 -20.733  0.00  0.00    +0.002 C 
ATOM     21  C   UNL     1      35.321 -20.137 -20.821  0.00  0.00    +0.000 C 
ENDBRANCH  11  16
ENDBRANCH   7  12
ENDBRANCH   1   7
BRANCH   2  22
ATOM     22  C   UNL     1      31.172 -10.540 -19.822  0.00  0.00    +0.048 C 
BRANCH  22  23
ATOM     23  C   UNL     1      31.958  -9.259 -19.514  0.00  0.00    +0.094 C 
BRANCH  23  25
ATOM     24  O   UNL     1      33.028  -6.595 -19.480  0.00  0.00    -0.269 OA
ATOM     25  N   UNL     1      31.718  -8.225 -20.484  0.00  0.00    -0.300 N 
ATOM     26  C   UNL     1      32.281  -6.958 -20.385  0.00  0.00    +0.261 C 
ATOM     27  H   UNL     1      31.129  -8.422 -21.249  0.00  0.00    +0.150 HD
BRANCH  26  30
ATOM     28  N   UNL     1      32.755  -5.904 -22.502  0.00  0.00    -0.262 NA
ATOM     29  N   UNL     1      30.421  -4.357 -22.334  0.00  0.00    -0.270 NA
ATOM     30  C   UNL     1      31.913  -5.994 -21.454  0.00  0.00    +0.132 C 
ATOM     31  C   UNL     1      30.767  -5.234 -21.371  0.00  0.00    +0.174 C 
ATOM     32  C   UNL     1      31.263  -4.266 -23.382  0.00  0.00    +0.057 C 
ATOM     33  C   UNL     1      32.410  -5.027 -23.465  0.00  0.00    +0.166 C 
ATOM     34  C   UNL     1      30.913  -3.307 -24.466  0.00  0.00    +0.049 C 
ENDBRANCH  26  30
ENDBRANCH  23  25
ENDBRANCH  22  23
ENDBRANCH   2  22
TORSDOF 7
ENDMDL
