MODEL 1
REMARK VINA RESULT:     -12.5      0.000      0.000
REMARK  Name = 66599893
REMARK  9 active torsions:
REMARK  status: ('A' for Active; 'I' for Inactive)
REMARK    1  A    between atoms: C_1  and  C_2
REMARK    2  A    between atoms: C_1  and  C_22
REMARK    3  A    between atoms: C_1  and  C_34
REMARK    4  A    between atoms: C_5  and  C_8
REMARK    5  A    between atoms: C_8  and  O_9
REMARK    6  A    between atoms: O_9  and  C_11
REMARK    7  A    between atoms: C_11  and  C_12
REMARK    8  A    between atoms: N_21  and  C_25
REMARK    9  A    between atoms: C_34  and  N_35
REMARK                            x       y       z     vdW  Elec       q    Type
REMARK                         _______ _______ _______ _____ _____    ______ ____
ROOT
ATOM      1  C   UNL     1      35.427 -17.166 -22.995  0.00  0.00    +0.077 C 
ENDROOT
BRANCH   1   2
ATOM      2  C   UNL     1      35.502 -18.383 -22.088  0.00  0.00    -0.016 C 
ATOM      3  C   UNL     1      36.709 -18.728 -21.479  0.00  0.00    -0.004 C 
ATOM      4  C   UNL     1      34.362 -19.157 -21.863  0.00  0.00    -0.004 C 
ATOM      5  C   UNL     1      35.638 -20.618 -20.424  0.00  0.00    +0.021 C 
ATOM      6  C   UNL     1      36.777 -19.846 -20.648  0.00  0.00    -0.001 C 
ATOM      7  C   UNL     1      34.431 -20.275 -21.032  0.00  0.00    -0.001 C 
BRANCH   5   8
ATOM      8  C   UNL     1      35.711 -21.813 -19.533  0.00  0.00    +0.235 C 
BRANCH   8   9
ATOM      9  O   UNL     1      34.532 -21.884 -18.740  0.00  0.00    -0.440 OA
BRANCH   9  11
ATOM     10  O   UNL     1      34.026 -24.031 -19.398  0.00  0.00    -0.245 OA
ATOM     11  C   UNL     1      33.993 -23.123 -18.581  0.00  0.00    +0.341 C 
BRANCH  11  12
ATOM     12  C   UNL     1      33.339 -23.245 -17.253  0.00  0.00    +0.072 C 
ATOM     13  C   UNL     1      34.091 -23.429 -16.094  0.00  0.00    -0.016 C 
ATOM     14  C   UNL     1      32.061 -23.471 -14.784  0.00  0.00    -0.022 C 
ATOM     15  C   UNL     1      33.452 -23.542 -14.859  0.00  0.00    -0.008 C 
ATOM     16  C   UNL     1      31.948 -23.174 -17.179  0.00  0.00    +0.006 C 
ATOM     17  C   UNL     1      31.309 -23.287 -15.945  0.00  0.00    -0.004 C 
ATOM     18  C   UNL     1      35.582 -23.509 -16.144  0.00  0.00    +0.031 C 
ATOM     19  C   UNL     1      31.376 -23.592 -13.465  0.00  0.00    +0.031 C 
ENDBRANCH  11  12
ENDBRANCH   9  11
ENDBRANCH   8   9
ENDBRANCH   5   8
ENDBRANCH   1   2
BRANCH   1  22
ATOM     20  O   UNL     1      35.062 -15.828 -21.014  0.00  0.00    -0.275 OA
ATOM     21  N   UNL     1      34.147 -15.090 -23.051  0.00  0.00    -0.284 N 
ATOM     22  C   UNL     1      34.874 -15.960 -22.221  0.00  0.00    +0.228 C 
ATOM     23  H   UNL     1      34.084 -15.352 -23.997  0.00  0.00    +0.155 HD
BRANCH  21  25
ATOM     24  N   UNL     1      31.760  -9.159 -22.410  0.00  0.00    -0.242 NA
ATOM     25  C   UNL     1      33.504 -13.900 -22.702  0.00  0.00    +0.050 C 
ATOM     26  C   UNL     1      33.703 -12.751 -23.470  0.00  0.00    +0.015 C 
ATOM     27  C   UNL     1      33.065 -11.547 -23.131  0.00  0.00    +0.004 C 
ATOM     28  C   UNL     1      32.667 -13.863 -21.591  0.00  0.00    +0.015 C 
ATOM     29  C   UNL     1      32.217 -11.513 -22.005  0.00  0.00    +0.019 C 
ATOM     30  C   UNL     1      32.024 -12.676 -21.240  0.00  0.00    +0.003 C 
ATOM     31  C   UNL     1      33.244 -10.377 -23.880  0.00  0.00    +0.021 C 
ATOM     32  C   UNL     1      31.599 -10.298 -21.700  0.00  0.00    +0.099 C 
ATOM     33  C   UNL     1      32.578  -9.229 -23.482  0.00  0.00    +0.099 C 
ENDBRANCH  21  25
ENDBRANCH   1  22
BRANCH   1  34
ATOM     34  C   UNL     1      34.591 -17.415 -24.266  0.00  0.00    -0.072 C 
BRANCH  34  35
ATOM     35  N   UNL     1      35.203 -16.814 -25.448  0.00  0.00    +0.381 N 
ATOM     36  H   UNL     1      36.202 -17.017 -25.454  0.00  0.00    -0.089 HD
ATOM     37  H   UNL     1      35.062 -15.804 -25.427  0.00  0.00    -0.089 HD
ATOM     38  H   UNL     1      34.772 -17.199 -26.288  0.00  0.00    -0.089 HD
ENDBRANCH  34  35
ENDBRANCH   1  34
TORSDOF 9
ENDMDL
MODEL 2
REMARK VINA RESULT:     -12.4      0.710      1.613
REMARK  Name = 66599893
REMARK  9 active torsions:
REMARK  status: ('A' for Active; 'I' for Inactive)
REMARK    1  A    between atoms: C_1  and  C_2
REMARK    2  A    between atoms: C_1  and  C_22
REMARK    3  A    between atoms: C_1  and  C_34
REMARK    4  A    between atoms: C_5  and  C_8
REMARK    5  A    between atoms: C_8  and  O_9
REMARK    6  A    between atoms: O_9  and  C_11
REMARK    7  A    between atoms: C_11  and  C_12
REMARK    8  A    between atoms: N_21  and  C_25
REMARK    9  A    between atoms: C_34  and  N_35
REMARK                            x       y       z     vdW  Elec       q    Type
REMARK                         _______ _______ _______ _____ _____    ______ ____
ROOT
ATOM      1  C   UNL     1      35.167 -17.410 -23.603  0.00  0.00    +0.077 C 
ENDROOT
BRANCH   1   2
ATOM      2  C   UNL     1      35.293 -18.496 -22.546  0.00  0.00    -0.016 C 
ATOM      3  C   UNL     1      34.181 -19.265 -22.199  0.00  0.00    -0.004 C 
ATOM      4  C   UNL     1      36.520 -18.724 -21.923  0.00  0.00    -0.004 C 
ATOM      5  C   UNL     1      35.523 -20.488 -20.606  0.00  0.00    +0.021 C 
ATOM      6  C   UNL     1      34.296 -20.259 -21.228  0.00  0.00    -0.001 C 
ATOM      7  C   UNL     1      36.635 -19.720 -20.952  0.00  0.00    -0.001 C 
BRANCH   5   8
ATOM      8  C   UNL     1      35.647 -21.553 -19.569  0.00  0.00    +0.235 C 
BRANCH   8   9
ATOM      9  O   UNL     1      34.396 -21.722 -18.913  0.00  0.00    -0.440 OA
BRANCH   9  11
ATOM     10  O   UNL     1      34.116 -23.929 -19.502  0.00  0.00    -0.245 OA
ATOM     11  C   UNL     1      33.999 -23.007 -18.709  0.00  0.00    +0.341 C 
BRANCH  11  12
ATOM     12  C   UNL     1      33.384 -23.160 -17.366  0.00  0.00    +0.072 C 
ATOM     13  C   UNL     1      34.172 -23.340 -16.230  0.00  0.00    -0.016 C 
ATOM     14  C   UNL     1      32.180 -23.445 -14.865  0.00  0.00    -0.022 C 
ATOM     15  C   UNL     1      33.570 -23.483 -14.979  0.00  0.00    -0.008 C 
ATOM     16  C   UNL     1      31.994 -23.123 -17.253  0.00  0.00    +0.006 C 
ATOM     17  C   UNL     1      31.392 -23.266 -16.003  0.00  0.00    -0.004 C 
ATOM     18  C   UNL     1      35.662 -23.383 -16.322  0.00  0.00    +0.031 C 
ATOM     19  C   UNL     1      31.535 -23.598 -13.530  0.00  0.00    +0.031 C 
ENDBRANCH  11  12
ENDBRANCH   9  11
ENDBRANCH   8   9
ENDBRANCH   5   8
ENDBRANCH   1   2
BRANCH   1  22
ATOM     20  O   UNL     1      35.331 -15.787 -21.820  0.00  0.00    -0.275 OA
ATOM     21  N   UNL     1      34.122 -15.211 -23.753  0.00  0.00    -0.284 N 
ATOM     22  C   UNL     1      34.901 -16.051 -22.940  0.00  0.00    +0.228 C 
ATOM     23  H   UNL     1      33.851 -15.586 -24.622  0.00  0.00    +0.155 HD
BRANCH  21  25
ATOM     24  N   UNL     1      31.563  -9.739 -21.565  0.00  0.00    -0.242 NA
ATOM     25  C   UNL     1      33.685 -13.912 -23.485  0.00  0.00    +0.050 C 
ATOM     26  C   UNL     1      32.885 -13.664 -22.368  0.00  0.00    +0.015 C 
ATOM     27  C   UNL     1      32.435 -12.364 -22.086  0.00  0.00    +0.004 C 
ATOM     28  C   UNL     1      34.047 -12.869 -24.331  0.00  0.00    +0.015 C 
ATOM     29  C   UNL     1      32.804 -11.309 -22.946  0.00  0.00    +0.019 C 
ATOM     30  C   UNL     1      33.611 -11.571 -24.067  0.00  0.00    +0.003 C 
ATOM     31  C   UNL     1      31.632 -12.083 -20.974  0.00  0.00    +0.021 C 
ATOM     32  C   UNL     1      32.340 -10.030 -22.633  0.00  0.00    +0.099 C 
ATOM     33  C   UNL     1      31.230 -10.773 -20.764  0.00  0.00    +0.099 C 
ENDBRANCH  21  25
ENDBRANCH   1  22
BRANCH   1  34
ATOM     34  C   UNL     1      34.078 -17.717 -24.651  0.00  0.00    -0.072 C 
BRANCH  34  35
ATOM     35  N   UNL     1      34.525 -18.708 -25.626  0.00  0.00    +0.381 N 
ATOM     36  H   UNL     1      33.934 -19.537 -25.563  0.00  0.00    -0.089 HD
ATOM     37  H   UNL     1      35.492 -18.964 -25.432  0.00  0.00    -0.089 HD
ATOM     38  H   UNL     1      34.460 -18.314 -26.565  0.00  0.00    -0.089 HD
ENDBRANCH  34  35
ENDBRANCH   1  34
TORSDOF 9
ENDMDL
MODEL 3
REMARK VINA RESULT:     -11.8      0.622      1.679
REMARK  Name = 66599893
REMARK  9 active torsions:
REMARK  status: ('A' for Active; 'I' for Inactive)
REMARK    1  A    between atoms: C_1  and  C_2
REMARK    2  A    between atoms: C_1  and  C_22
REMARK    3  A    between atoms: C_1  and  C_34
REMARK    4  A    between atoms: C_5  and  C_8
REMARK    5  A    between atoms: C_8  and  O_9
REMARK    6  A    between atoms: O_9  and  C_11
REMARK    7  A    between atoms: C_11  and  C_12
REMARK    8  A    between atoms: N_21  and  C_25
REMARK    9  A    between atoms: C_34  and  N_35
REMARK                            x       y       z     vdW  Elec       q    Type
REMARK                         _______ _______ _______ _____ _____    ______ ____
ROOT
ATOM      1  C   UNL     1      35.366 -17.146 -23.111  0.00  0.00    +0.077 C 
ENDROOT
BRANCH   1   2
ATOM      2  C   UNL     1      35.557 -18.330 -22.177  0.00  0.00    -0.016 C 
ATOM      3  C   UNL     1      34.471 -19.141 -21.846  0.00  0.00    -0.004 C 
ATOM      4  C   UNL     1      36.820 -18.608 -21.651  0.00  0.00    -0.004 C 
ATOM      5  C   UNL     1      35.908 -20.504 -20.463  0.00  0.00    +0.021 C 
ATOM      6  C   UNL     1      34.647 -20.227 -20.988  0.00  0.00    -0.001 C 
ATOM      7  C   UNL     1      36.994 -19.694 -20.793  0.00  0.00    -0.001 C 
BRANCH   5   8
ATOM      8  C   UNL     1      36.096 -21.666 -19.547  0.00  0.00    +0.235 C 
BRANCH   8   9
ATOM      9  O   UNL     1      35.055 -21.679 -18.579  0.00  0.00    -0.440 OA
BRANCH   9  11
ATOM     10  O   UNL     1      33.928 -23.577 -19.232  0.00  0.00    -0.245 OA
ATOM     11  C   UNL     1      34.446 -22.878 -18.374  0.00  0.00    +0.341 C 
BRANCH  11  12
ATOM     12  C   UNL     1      34.486 -23.249 -16.936  0.00  0.00    +0.072 C 
ATOM     13  C   UNL     1      33.312 -23.424 -16.204  0.00  0.00    -0.016 C 
ATOM     14  C   UNL     1      34.616 -23.943 -14.237  0.00  0.00    -0.022 C 
ATOM     15  C   UNL     1      33.377 -23.771 -14.855  0.00  0.00    -0.008 C 
ATOM     16  C   UNL     1      35.725 -23.421 -16.320  0.00  0.00    +0.006 C 
ATOM     17  C   UNL     1      35.791 -23.768 -14.970  0.00  0.00    -0.004 C 
ATOM     18  C   UNL     1      31.972 -23.246 -16.840  0.00  0.00    +0.031 C 
ATOM     19  C   UNL     1      34.687 -24.313 -12.795  0.00  0.00    +0.031 C 
ENDBRANCH  11  12
ENDBRANCH   9  11
ENDBRANCH   8   9
ENDBRANCH   5   8
ENDBRANCH   1   2
BRANCH   1  22
ATOM     20  O   UNL     1      35.074 -15.793 -21.129  0.00  0.00    -0.275 OA
ATOM     21  N   UNL     1      34.099 -15.061 -23.140  0.00  0.00    -0.284 N 
ATOM     22  C   UNL     1      34.846 -15.931 -22.328  0.00  0.00    +0.228 C 
ATOM     23  H   UNL     1      34.004 -15.329 -24.082  0.00  0.00    +0.155 HD
BRANCH  21  25
ATOM     24  N   UNL     1      31.823  -9.095 -22.430  0.00  0.00    -0.242 NA
ATOM     25  C   UNL     1      33.476 -13.865 -22.780  0.00  0.00    +0.050 C 
ATOM     26  C   UNL     1      33.706 -12.708 -23.526  0.00  0.00    +0.015 C 
ATOM     27  C   UNL     1      33.088 -11.497 -23.176  0.00  0.00    +0.004 C 
ATOM     28  C   UNL     1      32.627 -13.828 -21.677  0.00  0.00    +0.015 C 
ATOM     29  C   UNL     1      32.229 -11.464 -22.058  0.00  0.00    +0.019 C 
ATOM     30  C   UNL     1      32.004 -12.635 -21.314  0.00  0.00    +0.003 C 
ATOM     31  C   UNL     1      33.298 -10.319 -23.904  0.00  0.00    +0.021 C 
ATOM     32  C   UNL     1      31.631 -10.242 -21.740  0.00  0.00    +0.099 C 
ATOM     33  C   UNL     1      32.650  -9.164 -23.494  0.00  0.00    +0.099 C 
ENDBRANCH  21  25
ENDBRANCH   1  22
BRANCH   1  34
ATOM     34  C   UNL     1      34.429 -17.461 -24.294  0.00  0.00    -0.072 C 
BRANCH  34  35
ATOM     35  N   UNL     1      34.908 -16.867 -25.540  0.00  0.00    +0.381 N 
ATOM     36  H   UNL     1      34.129 -16.768 -26.191  0.00  0.00    -0.089 HD
ATOM     37  H   UNL     1      35.620 -17.470 -25.952  0.00  0.00    -0.089 HD
ATOM     38  H   UNL     1      35.309 -15.950 -25.347  0.00  0.00    -0.089 HD
ENDBRANCH  34  35
ENDBRANCH   1  34
TORSDOF 9
ENDMDL
MODEL 4
REMARK VINA RESULT:     -11.7      2.643      5.357
REMARK  Name = 66599893
REMARK  9 active torsions:
REMARK  status: ('A' for Active; 'I' for Inactive)
REMARK    1  A    between atoms: C_1  and  C_2
REMARK    2  A    between atoms: C_1  and  C_22
REMARK    3  A    between atoms: C_1  and  C_34
REMARK    4  A    between atoms: C_5  and  C_8
REMARK    5  A    between atoms: C_8  and  O_9
REMARK    6  A    between atoms: O_9  and  C_11
REMARK    7  A    between atoms: C_11  and  C_12
REMARK    8  A    between atoms: N_21  and  C_25
REMARK    9  A    between atoms: C_34  and  N_35
REMARK                            x       y       z     vdW  Elec       q    Type
REMARK                         _______ _______ _______ _____ _____    ______ ____
ROOT
ATOM      1  C   UNL     1      32.411 -12.696 -22.500  0.00  0.00    +0.077 C 
ENDROOT
BRANCH   1   2
ATOM      2  C   UNL     1      33.346 -13.894 -22.444  0.00  0.00    -0.016 C 
ATOM      3  C   UNL     1      33.711 -14.550 -23.620  0.00  0.00    -0.004 C 
ATOM      4  C   UNL     1      33.840 -14.337 -21.217  0.00  0.00    -0.004 C 
ATOM      5  C   UNL     1      35.061 -16.091 -22.342  0.00  0.00    +0.021 C 
ATOM      6  C   UNL     1      34.568 -15.649 -23.569  0.00  0.00    -0.001 C 
ATOM      7  C   UNL     1      34.697 -15.436 -21.166  0.00  0.00    -0.001 C 
BRANCH   5   8
ATOM      8  C   UNL     1      35.979 -17.266 -22.287  0.00  0.00    +0.235 C 
BRANCH   8   9
ATOM      9  O   UNL     1      35.462 -18.228 -21.377  0.00  0.00    -0.440 OA
BRANCH   9  11
ATOM     10  O   UNL     1      34.603 -19.460 -23.121  0.00  0.00    -0.245 OA
ATOM     11  C   UNL     1      34.843 -19.305 -21.934  0.00  0.00    +0.341 C 
BRANCH  11  12
ATOM     12  C   UNL     1      34.482 -20.300 -20.892  0.00  0.00    +0.072 C 
ATOM     13  C   UNL     1      35.464 -20.984 -20.177  0.00  0.00    -0.016 C 
ATOM     14  C   UNL     1      33.750 -22.162 -18.948  0.00  0.00    -0.022 C 
ATOM     15  C   UNL     1      35.098 -21.915 -19.205  0.00  0.00    -0.008 C 
ATOM     16  C   UNL     1      33.133 -20.547 -20.636  0.00  0.00    +0.006 C 
ATOM     17  C   UNL     1      32.767 -21.478 -19.664  0.00  0.00    -0.004 C 
ATOM     18  C   UNL     1      36.916 -20.739 -20.431  0.00  0.00    +0.031 C 
ATOM     19  C   UNL     1      33.357 -23.157 -17.910  0.00  0.00    +0.031 C 
ENDBRANCH  11  12
ENDBRANCH   9  11
ENDBRANCH   8   9
ENDBRANCH   5   8
ENDBRANCH   1   2
BRANCH   1  22
ATOM     20  O   UNL     1      34.039 -11.700 -23.983  0.00  0.00    -0.275 OA
ATOM     21  N   UNL     1      32.510 -10.290 -22.887  0.00  0.00    -0.284 N 
ATOM     22  C   UNL     1      33.091 -11.524 -23.222  0.00  0.00    +0.228 C 
ATOM     23  H   UNL     1      31.760 -10.326 -22.250  0.00  0.00    +0.155 HD
BRANCH  21  25
ATOM     24  N   UNL     1      32.945  -4.188 -24.854  0.00  0.00    -0.242 NA
ATOM     25  C   UNL     1      32.860  -9.017 -23.344  0.00  0.00    +0.050 C 
ATOM     26  C   UNL     1      31.882  -8.029 -23.469  0.00  0.00    +0.015 C 
ATOM     27  C   UNL     1      32.217  -6.746 -23.929  0.00  0.00    +0.004 C 
ATOM     28  C   UNL     1      34.183  -8.737 -23.674  0.00  0.00    +0.015 C 
ATOM     29  C   UNL     1      33.559  -6.466 -24.262  0.00  0.00    +0.019 C 
ATOM     30  C   UNL     1      34.535  -7.468 -24.131  0.00  0.00    +0.003 C 
ATOM     31  C   UNL     1      31.260  -5.733 -24.066  0.00  0.00    +0.021 C 
ATOM     32  C   UNL     1      33.856  -5.178 -24.715  0.00  0.00    +0.099 C 
ATOM     33  C   UNL     1      31.671  -4.492 -24.526  0.00  0.00    +0.099 C 
ENDBRANCH  21  25
ENDBRANCH   1  22
BRANCH   1  34
ATOM     34  C   UNL     1      31.920 -12.254 -21.106  0.00  0.00    -0.072 C 
BRANCH  34  35
ATOM     35  N   UNL     1      30.632 -11.568 -21.174  0.00  0.00    +0.381 N 
ATOM     36  H   UNL     1      30.202 -11.560 -20.250  0.00  0.00    -0.089 HD
ATOM     37  H   UNL     1      30.022 -12.057 -21.829  0.00  0.00    -0.089 HD
ATOM     38  H   UNL     1      30.774 -10.610 -21.493  0.00  0.00    -0.089 HD
ENDBRANCH  34  35
ENDBRANCH   1  34
TORSDOF 9
ENDMDL
MODEL 5
REMARK VINA RESULT:     -11.7      4.954      8.657
REMARK  Name = 66599893
REMARK  9 active torsions:
REMARK  status: ('A' for Active; 'I' for Inactive)
REMARK    1  A    between atoms: C_1  and  C_2
REMARK    2  A    between atoms: C_1  and  C_22
REMARK    3  A    between atoms: C_1  and  C_34
REMARK    4  A    between atoms: C_5  and  C_8
REMARK    5  A    between atoms: C_8  and  O_9
REMARK    6  A    between atoms: O_9  and  C_11
REMARK    7  A    between atoms: C_11  and  C_12
REMARK    8  A    between atoms: N_21  and  C_25
REMARK    9  A    between atoms: C_34  and  N_35
REMARK                            x       y       z     vdW  Elec       q    Type
REMARK                         _______ _______ _______ _____ _____    ______ ____
ROOT
ATOM      1  C   UNL     1      31.703  -9.814 -21.422  0.00  0.00    +0.077 C 
ENDROOT
BRANCH   1   2
ATOM      2  C   UNL     1      32.317 -10.881 -22.315  0.00  0.00    -0.016 C 
ATOM      3  C   UNL     1      33.057 -10.510 -23.438  0.00  0.00    -0.004 C 
ATOM      4  C   UNL     1      32.141 -12.231 -22.011  0.00  0.00    -0.004 C 
ATOM      5  C   UNL     1      33.444 -12.838 -23.953  0.00  0.00    +0.021 C 
ATOM      6  C   UNL     1      33.619 -11.489 -24.258  0.00  0.00    -0.001 C 
ATOM      7  C   UNL     1      32.704 -13.209 -22.830  0.00  0.00    -0.001 C 
BRANCH   5   8
ATOM      8  C   UNL     1      34.046 -13.885 -24.828  0.00  0.00    +0.235 C 
BRANCH   8   9
ATOM      9  O   UNL     1      33.515 -15.157 -24.478  0.00  0.00    -0.440 OA
BRANCH   9  11
ATOM     10  O   UNL     1      34.268 -16.421 -26.248  0.00  0.00    -0.245 OA
ATOM     11  C   UNL     1      34.119 -16.234 -25.051  0.00  0.00    +0.341 C 
BRANCH  11  12
ATOM     12  C   UNL     1      34.590 -17.185 -24.012  0.00  0.00    +0.072 C 
ATOM     13  C   UNL     1      34.434 -18.562 -24.172  0.00  0.00    -0.016 C 
ATOM     14  C   UNL     1      35.491 -18.931 -22.031  0.00  0.00    -0.022 C 
ATOM     15  C   UNL     1      34.884 -19.435 -23.182  0.00  0.00    -0.008 C 
ATOM     16  C   UNL     1      35.197 -16.681 -22.862  0.00  0.00    +0.006 C 
ATOM     17  C   UNL     1      35.647 -17.554 -21.871  0.00  0.00    -0.004 C 
ATOM     18  C   UNL     1      33.789 -19.129 -25.395  0.00  0.00    +0.031 C 
ATOM     19  C   UNL     1      35.972 -19.862 -20.971  0.00  0.00    +0.031 C 
ENDBRANCH  11  12
ENDBRANCH   9  11
ENDBRANCH   8   9
ENDBRANCH   5   8
ENDBRANCH   1   2
BRANCH   1  22
ATOM     20  O   UNL     1      33.350  -8.045 -21.402  0.00  0.00    -0.275 OA
ATOM     21  N   UNL     1      31.351  -7.703 -22.592  0.00  0.00    -0.284 N 
ATOM     22  C   UNL     1      32.251  -8.429 -21.795  0.00  0.00    +0.228 C 
ATOM     23  H   UNL     1      30.505  -8.158 -22.808  0.00  0.00    +0.155 HD
BRANCH  21  25
ATOM     24  N   UNL     1      32.729  -2.342 -25.856  0.00  0.00    -0.242 NA
ATOM     25  C   UNL     1      31.505  -6.419 -23.118  0.00  0.00    +0.050 C 
ATOM     26  C   UNL     1      32.264  -6.226 -24.273  0.00  0.00    +0.015 C 
ATOM     27  C   UNL     1      32.430  -4.941 -24.814  0.00  0.00    +0.004 C 
ATOM     28  C   UNL     1      30.901  -5.333 -22.490  0.00  0.00    +0.015 C 
ATOM     29  C   UNL     1      31.816  -3.843 -24.174  0.00  0.00    +0.019 C 
ATOM     30  C   UNL     1      31.053  -4.049 -23.012  0.00  0.00    +0.003 C 
ATOM     31  C   UNL     1      33.186  -4.714 -25.971  0.00  0.00    +0.021 C 
ATOM     32  C   UNL     1      32.002  -2.581 -24.741  0.00  0.00    +0.099 C 
ATOM     33  C   UNL     1      33.301  -3.416 -26.442  0.00  0.00    +0.099 C 
ENDBRANCH  21  25
ENDBRANCH   1  22
BRANCH   1  34
ATOM     34  C   UNL     1      31.921 -10.090 -19.921  0.00  0.00    -0.072 C 
BRANCH  34  35
ATOM     35  N   UNL     1      31.925  -8.859 -19.136  0.00  0.00    +0.381 N 
ATOM     36  H   UNL     1      32.887  -8.574 -18.955  0.00  0.00    -0.089 HD
ATOM     37  H   UNL     1      31.447  -9.020 -18.249  0.00  0.00    -0.089 HD
ATOM     38  H   UNL     1      31.443  -8.124 -19.653  0.00  0.00    -0.089 HD
ENDBRANCH  34  35
ENDBRANCH   1  34
TORSDOF 9
ENDMDL
MODEL 6
REMARK VINA RESULT:     -11.7      3.093     11.628
REMARK  Name = 66599893
REMARK  9 active torsions:
REMARK  status: ('A' for Active; 'I' for Inactive)
REMARK    1  A    between atoms: C_1  and  C_2
REMARK    2  A    between atoms: C_1  and  C_22
REMARK    3  A    between atoms: C_1  and  C_34
REMARK    4  A    between atoms: C_5  and  C_8
REMARK    5  A    between atoms: C_8  and  O_9
REMARK    6  A    between atoms: O_9  and  C_11
REMARK    7  A    between atoms: C_11  and  C_12
REMARK    8  A    between atoms: N_21  and  C_25
REMARK    9  A    between atoms: C_34  and  N_35
REMARK                            x       y       z     vdW  Elec       q    Type
REMARK                         _______ _______ _______ _____ _____    ______ ____
ROOT
ATOM      1  C   UNL     1      36.037 -19.298 -21.809  0.00  0.00    +0.077 C 
ENDROOT
BRANCH   1   2
ATOM      2  C   UNL     1      35.509 -17.881 -21.968  0.00  0.00    -0.016 C 
ATOM      3  C   UNL     1      35.252 -17.371 -23.241  0.00  0.00    -0.004 C 
ATOM      4  C   UNL     1      35.280 -17.091 -20.841  0.00  0.00    -0.004 C 
ATOM      5  C   UNL     1      34.539 -15.282 -22.260  0.00  0.00    +0.021 C 
ATOM      6  C   UNL     1      34.768 -16.071 -23.386  0.00  0.00    -0.001 C 
ATOM      7  C   UNL     1      34.796 -15.791 -20.987  0.00  0.00    -0.001 C 
BRANCH   5   8
ATOM      8  C   UNL     1      34.021 -13.891 -22.415  0.00  0.00    +0.235 C 
BRANCH   8   9
ATOM      9  O   UNL     1      34.554 -13.317 -23.602  0.00  0.00    -0.440 OA
BRANCH   9  11
ATOM     10  O   UNL     1      33.014 -13.041 -25.289  0.00  0.00    -0.245 OA
ATOM     11  C   UNL     1      33.681 -12.604 -24.364  0.00  0.00    +0.341 C 
BRANCH  11  12
ATOM     12  C   UNL     1      33.637 -11.186 -23.925  0.00  0.00    +0.072 C 
ATOM     13  C   UNL     1      34.494 -10.234 -24.474  0.00  0.00    -0.016 C 
ATOM     14  C   UNL     1      33.514  -8.536 -23.062  0.00  0.00    -0.022 C 
ATOM     15  C   UNL     1      34.433  -8.909 -24.044  0.00  0.00    -0.008 C 
ATOM     16  C   UNL     1      32.718 -10.815 -22.943  0.00  0.00    +0.006 C 
ATOM     17  C   UNL     1      32.656  -9.489 -22.512  0.00  0.00    -0.004 C 
ATOM     18  C   UNL     1      35.487 -10.605 -25.527  0.00  0.00    +0.031 C 
ATOM     19  C   UNL     1      33.447  -7.120 -22.600  0.00  0.00    +0.031 C 
ENDBRANCH  11  12
ENDBRANCH   9  11
ENDBRANCH   8   9
ENDBRANCH   5   8
ENDBRANCH   1   2
BRANCH   1  22
ATOM     20  O   UNL     1      33.895 -20.060 -20.987  0.00  0.00    -0.275 OA
ATOM     21  N   UNL     1      35.846 -20.850 -19.937  0.00  0.00    -0.284 N 
ATOM     22  C   UNL     1      35.118 -20.107 -20.881  0.00  0.00    +0.228 C 
ATOM     23  H   UNL     1      36.825 -20.764 -19.985  0.00  0.00    +0.155 HD
BRANCH  21  25
ATOM     24  N   UNL     1      34.682 -24.602 -14.852  0.00  0.00    -0.242 NA
ATOM     25  C   UNL     1      35.355 -21.696 -18.940  0.00  0.00    +0.050 C 
ATOM     26  C   UNL     1      36.168 -22.043 -17.860  0.00  0.00    +0.015 C 
ATOM     27  C   UNL     1      35.691 -22.894 -16.850  0.00  0.00    +0.004 C 
ATOM     28  C   UNL     1      34.057 -22.191 -19.025  0.00  0.00    +0.015 C 
ATOM     29  C   UNL     1      34.374 -23.393 -16.940  0.00  0.00    +0.019 C 
ATOM     30  C   UNL     1      33.565 -23.036 -18.032  0.00  0.00    +0.003 C 
ATOM     31  C   UNL     1      36.481 -23.261 -15.754  0.00  0.00    +0.021 C 
ATOM     32  C   UNL     1      33.934 -24.235 -15.917  0.00  0.00    +0.099 C 
ATOM     33  C   UNL     1      35.936 -24.105 -14.799  0.00  0.00    +0.099 C 
ENDBRANCH  21  25
ENDBRANCH   1  22
BRANCH   1  34
ATOM     34  C   UNL     1      37.490 -19.342 -21.294  0.00  0.00    -0.072 C 
BRANCH  34  35
ATOM     35  N   UNL     1      38.402 -18.616 -22.175  0.00  0.00    +0.381 N 
ATOM     36  H   UNL     1      39.019 -19.278 -22.645  0.00  0.00    -0.089 HD
ATOM     37  H   UNL     1      38.959 -17.964 -21.624  0.00  0.00    -0.089 HD
ATOM     38  H   UNL     1      37.863 -18.099 -22.870  0.00  0.00    -0.089 HD
ENDBRANCH  34  35
ENDBRANCH   1  34
TORSDOF 9
ENDMDL
MODEL 7
REMARK VINA RESULT:     -11.4      2.475      4.731
REMARK  Name = 66599893
REMARK  9 active torsions:
REMARK  status: ('A' for Active; 'I' for Inactive)
REMARK    1  A    between atoms: C_1  and  C_2
REMARK    2  A    between atoms: C_1  and  C_22
REMARK    3  A    between atoms: C_1  and  C_34
REMARK    4  A    between atoms: C_5  and  C_8
REMARK    5  A    between atoms: C_8  and  O_9
REMARK    6  A    between atoms: O_9  and  C_11
REMARK    7  A    between atoms: C_11  and  C_12
REMARK    8  A    between atoms: N_21  and  C_25
REMARK    9  A    between atoms: C_34  and  N_35
REMARK                            x       y       z     vdW  Elec       q    Type
REMARK                         _______ _______ _______ _____ _____    ______ ____
ROOT
ATOM      1  C   UNL     1      33.849 -13.105 -24.070  0.00  0.00    +0.077 C 
ENDROOT
BRANCH   1   2
ATOM      2  C   UNL     1      34.268 -14.283 -23.204  0.00  0.00    -0.016 C 
ATOM      3  C   UNL     1      34.320 -14.146 -21.816  0.00  0.00    -0.004 C 
ATOM      4  C   UNL     1      34.601 -15.501 -23.797  0.00  0.00    -0.004 C 
ATOM      5  C   UNL     1      35.037 -16.443 -21.615  0.00  0.00    +0.021 C 
ATOM      6  C   UNL     1      34.705 -15.226 -21.022  0.00  0.00    -0.001 C 
ATOM      7  C   UNL     1      34.986 -16.581 -23.002  0.00  0.00    -0.001 C 
BRANCH   5   8
ATOM      8  C   UNL     1      35.448 -17.599 -20.766  0.00  0.00    +0.235 C 
BRANCH   8   9
ATOM      9  O   UNL     1      36.094 -18.574 -21.575  0.00  0.00    -0.440 OA
BRANCH   9  11
ATOM     10  O   UNL     1      34.913 -19.824 -23.104  0.00  0.00    -0.245 OA
ATOM     11  C   UNL     1      35.326 -19.624 -21.972  0.00  0.00    +0.341 C 
BRANCH  11  12
ATOM     12  C   UNL     1      35.039 -20.527 -20.828  0.00  0.00    +0.072 C 
ATOM     13  C   UNL     1      33.729 -20.798 -20.435  0.00  0.00    -0.016 C 
ATOM     14  C   UNL     1      34.552 -22.229 -18.672  0.00  0.00    -0.022 C 
ATOM     15  C   UNL     1      33.485 -21.649 -19.357  0.00  0.00    -0.008 C 
ATOM     16  C   UNL     1      36.107 -21.107 -20.144  0.00  0.00    +0.006 C 
ATOM     17  C   UNL     1      35.864 -21.958 -19.065  0.00  0.00    -0.004 C 
ATOM     18  C   UNL     1      32.567 -20.190 -21.152  0.00  0.00    +0.031 C 
ATOM     19  C   UNL     1      34.295 -23.138 -17.519  0.00  0.00    +0.031 C 
ENDBRANCH  11  12
ENDBRANCH   9  11
ENDBRANCH   8   9
ENDBRANCH   5   8
ENDBRANCH   1   2
BRANCH   1  22
ATOM     20  O   UNL     1      32.152 -12.494 -22.460  0.00  0.00    -0.275 OA
ATOM     21  N   UNL     1      33.351 -10.779 -23.532  0.00  0.00    -0.284 N 
ATOM     22  C   UNL     1      33.013 -12.112 -23.248  0.00  0.00    +0.228 C 
ATOM     23  H   UNL     1      34.061 -10.648 -24.201  0.00  0.00    +0.155 HD
BRANCH  21  25
ATOM     24  N   UNL     1      30.830  -5.032 -22.152  0.00  0.00    -0.242 NA
ATOM     25  C   UNL     1      32.808  -9.615 -22.983  0.00  0.00    +0.050 C 
ATOM     26  C   UNL     1      32.466  -8.548 -23.815  0.00  0.00    +0.015 C 
ATOM     27  C   UNL     1      31.921  -7.370 -23.279  0.00  0.00    +0.004 C 
ATOM     28  C   UNL     1      32.610  -9.521 -21.609  0.00  0.00    +0.015 C 
ATOM     29  C   UNL     1      31.721  -7.279 -21.886  0.00  0.00    +0.019 C 
ATOM     30  C   UNL     1      32.069  -8.360 -21.058  0.00  0.00    +0.003 C 
ATOM     31  C   UNL     1      31.567  -6.282 -24.086  0.00  0.00    +0.021 C 
ATOM     32  C   UNL     1      31.176  -6.093 -21.389  0.00  0.00    +0.099 C 
ATOM     33  C   UNL     1      31.034  -5.155 -23.481  0.00  0.00    +0.099 C 
ENDBRANCH  21  25
ENDBRANCH   1  22
BRANCH   1  34
ATOM     34  C   UNL     1      33.079 -13.535 -25.335  0.00  0.00    -0.072 C 
BRANCH  34  35
ATOM     35  N   UNL     1      33.398 -12.688 -26.481  0.00  0.00    +0.381 N 
ATOM     36  H   UNL     1      33.926 -13.228 -27.166  0.00  0.00    -0.089 HD
ATOM     37  H   UNL     1      33.957 -11.894 -26.170  0.00  0.00    -0.089 HD
ATOM     38  H   UNL     1      32.534 -12.351 -26.905  0.00  0.00    -0.089 HD
ENDBRANCH  34  35
ENDBRANCH   1  34
TORSDOF 9
ENDMDL
MODEL 8
REMARK VINA RESULT:     -11.4      2.982     11.498
REMARK  Name = 66599893
REMARK  9 active torsions:
REMARK  status: ('A' for Active; 'I' for Inactive)
REMARK    1  A    between atoms: C_1  and  C_2
REMARK    2  A    between atoms: C_1  and  C_22
REMARK    3  A    between atoms: C_1  and  C_34
REMARK    4  A    between atoms: C_5  and  C_8
REMARK    5  A    between atoms: C_8  and  O_9
REMARK    6  A    between atoms: O_9  and  C_11
REMARK    7  A    between atoms: C_11  and  C_12
REMARK    8  A    between atoms: N_21  and  C_25
REMARK    9  A    between atoms: C_34  and  N_35
REMARK                            x       y       z     vdW  Elec       q    Type
REMARK                         _______ _______ _______ _____ _____    ______ ____
ROOT
ATOM      1  C   UNL     1      36.099 -19.368 -22.025  0.00  0.00    +0.077 C 
ENDROOT
BRANCH   1   2
ATOM      2  C   UNL     1      35.481 -18.116 -22.628  0.00  0.00    -0.016 C 
ATOM      3  C   UNL     1      35.411 -16.941 -21.879  0.00  0.00    -0.004 C 
ATOM      4  C   UNL     1      34.983 -18.142 -23.932  0.00  0.00    -0.004 C 
ATOM      5  C   UNL     1      34.347 -15.820 -23.734  0.00  0.00    +0.021 C 
ATOM      6  C   UNL     1      34.843 -15.794 -22.432  0.00  0.00    -0.001 C 
ATOM      7  C   UNL     1      34.415 -16.994 -24.484  0.00  0.00    -0.001 C 
BRANCH   5   8
ATOM      8  C   UNL     1      33.740 -14.592 -24.327  0.00  0.00    +0.235 C 
BRANCH   8   9
ATOM      9  O   UNL     1      34.108 -13.460 -23.548  0.00  0.00    -0.440 OA
BRANCH   9  11
ATOM     10  O   UNL     1      32.044 -13.096 -22.597  0.00  0.00    -0.245 OA
ATOM     11  C   UNL     1      33.083 -12.689 -23.095  0.00  0.00    +0.341 C 
BRANCH  11  12
ATOM     12  C   UNL     1      33.385 -11.248 -23.286  0.00  0.00    +0.072 C 
ATOM     13  C   UNL     1      32.609 -10.262 -22.678  0.00  0.00    -0.016 C 
ATOM     14  C   UNL     1      33.993  -8.554 -23.678  0.00  0.00    -0.022 C 
ATOM     15  C   UNL     1      32.913  -8.915 -22.873  0.00  0.00    -0.008 C 
ATOM     16  C   UNL     1      34.465 -10.887 -24.091  0.00  0.00    +0.006 C 
ATOM     17  C   UNL     1      34.770  -9.540 -24.287  0.00  0.00    -0.004 C 
ATOM     18  C   UNL     1      31.446 -10.621 -21.810  0.00  0.00    +0.031 C 
ATOM     19  C   UNL     1      34.320  -7.114 -23.890  0.00  0.00    +0.031 C 
ENDBRANCH  11  12
ENDBRANCH   9  11
ENDBRANCH   8   9
ENDBRANCH   5   8
ENDBRANCH   1   2
BRANCH   1  22
ATOM     20  O   UNL     1      33.889 -19.851 -21.170  0.00  0.00    -0.275 OA
ATOM     21  N   UNL     1      35.738 -20.884 -20.149  0.00  0.00    -0.284 N 
ATOM     22  C   UNL     1      35.098 -20.053 -21.083  0.00  0.00    +0.228 C 
ATOM     23  H   UNL     1      36.720 -20.925 -20.211  0.00  0.00    +0.155 HD
BRANCH  21  25
ATOM     24  N   UNL     1      34.165 -24.411 -15.013  0.00  0.00    -0.242 NA
ATOM     25  C   UNL     1      35.159 -21.662 -19.144  0.00  0.00    +0.050 C 
ATOM     26  C   UNL     1      35.921 -22.060 -18.045  0.00  0.00    +0.015 C 
ATOM     27  C   UNL     1      35.354 -22.843 -17.027  0.00  0.00    +0.004 C 
ATOM     28  C   UNL     1      33.822 -22.037 -19.240  0.00  0.00    +0.015 C 
ATOM     29  C   UNL     1      33.999 -23.222 -17.128  0.00  0.00    +0.019 C 
ATOM     30  C   UNL     1      33.240 -22.814 -18.239  0.00  0.00    +0.003 C 
ATOM     31  C   UNL     1      36.092 -23.259 -15.912  0.00  0.00    +0.021 C 
ATOM     32  C   UNL     1      33.468 -23.999 -16.097  0.00  0.00    +0.099 C 
ATOM     33  C   UNL     1      35.458 -24.029 -14.949  0.00  0.00    +0.099 C 
ENDBRANCH  21  25
ENDBRANCH   1  22
BRANCH   1  34
ATOM     34  C   UNL     1      37.423 -19.087 -21.287  0.00  0.00    -0.072 C 
BRANCH  34  35
ATOM     35  N   UNL     1      38.491 -18.710 -22.208  0.00  0.00    +0.381 N 
ATOM     36  H   UNL     1      39.321 -19.269 -22.014  0.00  0.00    -0.089 HD
ATOM     37  H   UNL     1      38.711 -17.721 -22.087  0.00  0.00    -0.089 HD
ATOM     38  H   UNL     1      38.186 -18.874 -23.168  0.00  0.00    -0.089 HD
ENDBRANCH  34  35
ENDBRANCH   1  34
TORSDOF 9
ENDMDL
MODEL 9
REMARK VINA RESULT:     -11.2      3.050     10.917
REMARK  Name = 66599893
REMARK  9 active torsions:
REMARK  status: ('A' for Active; 'I' for Inactive)
REMARK    1  A    between atoms: C_1  and  C_2
REMARK    2  A    between atoms: C_1  and  C_22
REMARK    3  A    between atoms: C_1  and  C_34
REMARK    4  A    between atoms: C_5  and  C_8
REMARK    5  A    between atoms: C_8  and  O_9
REMARK    6  A    between atoms: O_9  and  C_11
REMARK    7  A    between atoms: C_11  and  C_12
REMARK    8  A    between atoms: N_21  and  C_25
REMARK    9  A    between atoms: C_34  and  N_35
REMARK                            x       y       z     vdW  Elec       q    Type
REMARK                         _______ _______ _______ _____ _____    ______ ____
ROOT
ATOM      1  C   UNL     1      36.134 -19.575 -21.962  0.00  0.00    +0.077 C 
ENDROOT
BRANCH   1   2
ATOM      2  C   UNL     1      35.546 -18.354 -22.652  0.00  0.00    -0.016 C 
ATOM      3  C   UNL     1      35.521 -17.124 -21.993  0.00  0.00    -0.004 C 
ATOM      4  C   UNL     1      35.032 -18.463 -23.945  0.00  0.00    -0.004 C 
ATOM      5  C   UNL     1      34.467 -16.115 -23.918  0.00  0.00    +0.021 C 
ATOM      6  C   UNL     1      34.980 -16.005 -22.626  0.00  0.00    -0.001 C 
ATOM      7  C   UNL     1      34.492 -17.344 -24.577  0.00  0.00    -0.001 C 
BRANCH   5   8
ATOM      8  C   UNL     1      33.890 -14.917 -24.596  0.00  0.00    +0.235 C 
BRANCH   8   9
ATOM      9  O   UNL     1      34.137 -13.761 -23.804  0.00  0.00    -0.440 OA
BRANCH   9  11
ATOM     10  O   UNL     1      33.384 -12.192 -25.310  0.00  0.00    -0.245 OA
ATOM     11  C   UNL     1      33.474 -12.632 -24.174  0.00  0.00    +0.341 C 
BRANCH  11  12
ATOM     12  C   UNL     1      32.853 -11.977 -22.995  0.00  0.00    +0.072 C 
ATOM     13  C   UNL     1      32.852 -10.589 -22.860  0.00  0.00    -0.016 C 
ATOM     14  C   UNL     1      31.676 -10.794 -20.759  0.00  0.00    -0.022 C 
ATOM     15  C   UNL     1      32.263  -9.997 -21.742  0.00  0.00    -0.008 C 
ATOM     16  C   UNL     1      32.267 -12.774 -22.012  0.00  0.00    +0.006 C 
ATOM     17  C   UNL     1      31.678 -12.183 -20.894  0.00  0.00    -0.004 C 
ATOM     18  C   UNL     1      33.473  -9.712 -23.898  0.00  0.00    +0.031 C 
ATOM     19  C   UNL     1      31.048 -10.164 -19.563  0.00  0.00    +0.031 C 
ENDBRANCH  11  12
ENDBRANCH   9  11
ENDBRANCH   8   9
ENDBRANCH   5   8
ENDBRANCH   1   2
BRANCH   1  22
ATOM     20  O   UNL     1      33.903 -19.938 -21.104  0.00  0.00    -0.275 OA
ATOM     21  N   UNL     1      35.700 -21.042 -20.063  0.00  0.00    -0.284 N 
ATOM     22  C   UNL     1      35.101 -20.197 -21.011  0.00  0.00    +0.228 C 
ATOM     23  H   UNL     1      36.678 -21.131 -20.123  0.00  0.00    +0.155 HD
BRANCH  21  25
ATOM     24  N   UNL     1      33.948 -24.386 -14.863  0.00  0.00    -0.242 NA
ATOM     25  C   UNL     1      35.082 -21.775 -19.046  0.00  0.00    +0.050 C 
ATOM     26  C   UNL     1      35.818 -22.171 -17.928  0.00  0.00    +0.015 C 
ATOM     27  C   UNL     1      35.212 -22.909 -16.899  0.00  0.00    +0.004 C 
ATOM     28  C   UNL     1      33.735 -22.109 -19.151  0.00  0.00    +0.015 C 
ATOM     29  C   UNL     1      33.847 -23.245 -17.008  0.00  0.00    +0.019 C 
ATOM     30  C   UNL     1      33.116 -22.841 -18.138  0.00  0.00    +0.003 C 
ATOM     31  C   UNL     1      35.923 -23.321 -15.765  0.00  0.00    +0.021 C 
ATOM     32  C   UNL     1      33.279 -23.979 -15.965  0.00  0.00    +0.099 C 
ATOM     33  C   UNL     1      35.253 -24.046 -14.792  0.00  0.00    +0.099 C 
ENDBRANCH  21  25
ENDBRANCH   1  22
BRANCH   1  34
ATOM     34  C   UNL     1      37.440 -19.264 -21.204  0.00  0.00    -0.072 C 
BRANCH  34  35
ATOM     35  N   UNL     1      38.482 -18.763 -22.097  0.00  0.00    +0.381 N 
ATOM     36  H   UNL     1      39.113 -19.525 -22.345  0.00  0.00    -0.089 HD
ATOM     37  H   UNL     1      39.007 -18.027 -21.626  0.00  0.00    -0.089 HD
ATOM     38  H   UNL     1      38.053 -18.386 -22.942  0.00  0.00    -0.089 HD
ENDBRANCH  34  35
ENDBRANCH   1  34
TORSDOF 9
ENDMDL
