MODEL 1
REMARK VINA RESULT:     -10.8      0.000      0.000
REMARK  Name = 28693
REMARK  5 active torsions:
REMARK  status: ('A' for Active; 'I' for Inactive)
REMARK    1  A    between atoms: C_6  and  C_20
REMARK    2  A    between atoms: C_20  and  N_22
REMARK    3  A    between atoms: C_23  and  O_25
REMARK    4  A    between atoms: O_25  and  C_26
REMARK    5  A    between atoms: C_26  and  C_27
REMARK                            x       y       z     vdW  Elec       q    Type
REMARK                         _______ _______ _______ _____ _____    ______ ____
ROOT
ATOM      1  N   UNL     1      32.194 -13.307 -21.784  0.00  0.00    +0.387 N 
ATOM      2  N   UNL     1      32.512  -7.380 -20.766  0.00  0.00    -0.284 N 
ATOM      3  C   UNL     1      32.838 -11.335 -23.209  0.00  0.00    +0.004 C 
ATOM      4  C   UNL     1      32.650 -11.895 -21.732  0.00  0.00    -0.050 C 
ATOM      5  C   UNL     1      33.817 -12.222 -23.990  0.00  0.00    +0.002 C 
ATOM      6  C   UNL     1      33.369 -13.685 -23.948  0.00  0.00    -0.001 C 
ATOM      7  C   UNL     1      31.692 -10.988 -20.867  0.00  0.00    +0.007 C 
ATOM      8  C   UNL     1      33.167 -14.150 -22.502  0.00  0.00    -0.076 C 
ATOM      9  C   UNL     1      33.241  -9.869 -23.192  0.00  0.00    -0.024 C 
ATOM     10  C   UNL     1      32.817  -9.112 -22.093  0.00  0.00    +0.007 C 
ATOM     11  C   UNL     1      32.093  -9.556 -20.969  0.00  0.00    -0.008 C 
ATOM     12  C   UNL     1      33.075  -7.760 -21.964  0.00  0.00    +0.051 C 
ATOM     13  C   UNL     1      31.959 -13.879 -20.456  0.00  0.00    -0.101 C 
ATOM     14  C   UNL     1      33.928  -9.170 -24.193  0.00  0.00    -0.004 C 
ATOM     15  C   UNL     1      31.910  -8.462 -20.155  0.00  0.00    +0.061 C 
ATOM     16  C   UNL     1      33.778  -7.059 -22.944  0.00  0.00    +0.015 C 
ATOM     17  C   UNL     1      34.195  -7.797 -24.064  0.00  0.00    +0.001 C 
ATOM     18  C   UNL     1      32.535  -6.043 -20.215  0.00  0.00    +0.117 C 
ATOM     19  H   UNL     1      31.305 -13.294 -22.284  0.00  0.00    -0.080 HD
ENDROOT
BRANCH   6  20
ATOM     20  C   UNL     1      34.383 -14.577 -24.665  0.00  0.00    +0.091 C 
BRANCH  20  22
ATOM     21  O   UNL     1      34.560 -17.225 -25.847  0.00  0.00    -0.226 OA
ATOM     22  N   UNL     1      34.530 -15.830 -23.991  0.00  0.00    -0.271 N 
ATOM     23  C   UNL     1      34.607 -17.057 -24.633  0.00  0.00    +0.402 C 
ATOM     24  H   UNL     1      34.580 -15.821 -23.008  0.00  0.00    +0.153 HD
BRANCH  23  25
ATOM     25  O   UNL     1      34.744 -18.060 -23.716  0.00  0.00    -0.430 OA
BRANCH  25  26
ATOM     26  C   UNL     1      35.475 -17.726 -22.530  0.00  0.00    +0.237 C 
BRANCH  26  27
ATOM     27  C   UNL     1      35.553 -18.937 -21.646  0.00  0.00    +0.021 C 
ATOM     28  C   UNL     1      36.774 -19.308 -21.093  0.00  0.00    -0.001 C 
ATOM     29  C   UNL     1      34.404 -19.675 -21.386  0.00  0.00    -0.001 C 
ATOM     30  C   UNL     1      36.846 -20.432 -20.271  0.00  0.00    -0.000 C 
ATOM     31  C   UNL     1      34.476 -20.800 -20.565  0.00  0.00    -0.000 C 
ATOM     32  C   UNL     1      35.698 -21.179 -20.007  0.00  0.00    -0.000 C 
ENDBRANCH  26  27
ENDBRANCH  25  26
ENDBRANCH  23  25
ENDBRANCH  20  22
ENDBRANCH   6  20
TORSDOF 5
ENDMDL
MODEL 2
REMARK VINA RESULT:     -10.8      9.624     13.452
REMARK  Name = 28693
REMARK  5 active torsions:
REMARK  status: ('A' for Active; 'I' for Inactive)
REMARK    1  A    between atoms: C_6  and  C_20
REMARK    2  A    between atoms: C_20  and  N_22
REMARK    3  A    between atoms: C_23  and  O_25
REMARK    4  A    between atoms: O_25  and  C_26
REMARK    5  A    between atoms: C_26  and  C_27
REMARK                            x       y       z     vdW  Elec       q    Type
REMARK                         _______ _______ _______ _____ _____    ______ ____
ROOT
ATOM      1  N   UNL     1      31.870 -23.957 -15.143  0.00  0.00    +0.387 N 
ATOM      2  N   UNL     1      34.236 -21.308 -20.006  0.00  0.00    -0.284 N 
ATOM      3  C   UNL     1      34.222 -23.671 -15.990  0.00  0.00    +0.004 C 
ATOM      4  C   UNL     1      32.722 -23.144 -16.047  0.00  0.00    -0.050 C 
ATOM      5  C   UNL     1      34.737 -23.646 -14.544  0.00  0.00    +0.002 C 
ATOM      6  C   UNL     1      33.788 -24.413 -13.621  0.00  0.00    -0.001 C 
ATOM      7  C   UNL     1      32.160 -23.101 -17.520  0.00  0.00    +0.007 C 
ATOM      8  C   UNL     1      32.356 -23.885 -13.754  0.00  0.00    -0.076 C 
ATOM      9  C   UNL     1      35.110 -22.904 -16.956  0.00  0.00    -0.024 C 
ATOM     10  C   UNL     1      34.489 -22.366 -18.091  0.00  0.00    +0.007 C 
ATOM     11  C   UNL     1      33.122 -22.413 -18.428  0.00  0.00    -0.008 C 
ATOM     12  C   UNL     1      35.178 -21.679 -19.072  0.00  0.00    +0.051 C 
ATOM     13  C   UNL     1      30.460 -23.554 -15.174  0.00  0.00    -0.101 C 
ATOM     14  C   UNL     1      36.498 -22.736 -16.877  0.00  0.00    -0.004 C 
ATOM     15  C   UNL     1      32.985 -21.751 -19.626  0.00  0.00    +0.061 C 
ATOM     16  C   UNL     1      36.557 -21.487 -18.991  0.00  0.00    +0.015 C 
ATOM     17  C   UNL     1      37.201 -22.036 -17.871  0.00  0.00    +0.001 C 
ATOM     18  C   UNL     1      34.503 -20.563 -21.217  0.00  0.00    +0.117 C 
ATOM     19  H   UNL     1      31.932 -24.915 -15.487  0.00  0.00    -0.080 HD
ENDROOT
BRANCH   6  20
ATOM     20  C   UNL     1      34.264 -24.326 -12.170  0.00  0.00    +0.091 C 
BRANCH  20  22
ATOM     21  O   UNL     1      36.110 -24.426  -9.930  0.00  0.00    -0.226 OA
ATOM     22  N   UNL     1      35.583 -23.777 -12.096  0.00  0.00    -0.271 N 
ATOM     23  C   UNL     1      36.404 -23.869 -10.983  0.00  0.00    +0.402 C 
ATOM     24  H   UNL     1      35.930 -23.304 -12.887  0.00  0.00    +0.153 HD
BRANCH  23  25
ATOM     25  O   UNL     1      37.597 -23.248 -11.225  0.00  0.00    -0.430 OA
BRANCH  25  26
ATOM     26  C   UNL     1      38.678 -24.103 -11.616  0.00  0.00    +0.237 C 
BRANCH  26  27
ATOM     27  C   UNL     1      38.233 -24.960 -12.764  0.00  0.00    +0.021 C 
ATOM     28  C   UNL     1      37.727 -26.232 -12.518  0.00  0.00    -0.001 C 
ATOM     29  C   UNL     1      38.330 -24.476 -14.063  0.00  0.00    -0.001 C 
ATOM     30  C   UNL     1      37.313 -27.029 -13.585  0.00  0.00    -0.000 C 
ATOM     31  C   UNL     1      37.916 -25.273 -15.131  0.00  0.00    -0.000 C 
ATOM     32  C   UNL     1      37.408 -26.550 -14.891  0.00  0.00    -0.000 C 
ENDBRANCH  26  27
ENDBRANCH  25  26
ENDBRANCH  23  25
ENDBRANCH  20  22
ENDBRANCH   6  20
TORSDOF 5
ENDMDL
MODEL 3
REMARK VINA RESULT:     -10.8      6.226     12.289
REMARK  Name = 28693
REMARK  5 active torsions:
REMARK  status: ('A' for Active; 'I' for Inactive)
REMARK    1  A    between atoms: C_6  and  C_20
REMARK    2  A    between atoms: C_20  and  N_22
REMARK    3  A    between atoms: C_23  and  O_25
REMARK    4  A    between atoms: O_25  and  C_26
REMARK    5  A    between atoms: C_26  and  C_27
REMARK                            x       y       z     vdW  Elec       q    Type
REMARK                         _______ _______ _______ _____ _____    ______ ____
ROOT
ATOM      1  N   UNL     1      36.941 -23.279 -16.323  0.00  0.00    +0.387 N 
ATOM      2  N   UNL     1      31.580 -24.443 -13.838  0.00  0.00    -0.284 N 
ATOM      3  C   UNL     1      34.579 -23.228 -17.191  0.00  0.00    +0.004 C 
ATOM      4  C   UNL     1      35.518 -23.198 -15.907  0.00  0.00    -0.050 C 
ATOM      5  C   UNL     1      34.959 -22.093 -18.151  0.00  0.00    +0.002 C 
ATOM      6  C   UNL     1      36.451 -22.149 -18.488  0.00  0.00    -0.001 C 
ATOM      7  C   UNL     1      35.135 -24.314 -14.861  0.00  0.00    +0.007 C 
ATOM      8  C   UNL     1      37.296 -22.157 -17.210  0.00  0.00    -0.076 C 
ATOM      9  C   UNL     1      33.111 -23.214 -16.798  0.00  0.00    -0.024 C 
ATOM     10  C   UNL     1      32.787 -23.767 -15.552  0.00  0.00    +0.007 C 
ATOM     11  C   UNL     1      33.669 -24.299 -14.591  0.00  0.00    -0.008 C 
ATOM     12  C   UNL     1      31.491 -23.857 -15.082  0.00  0.00    +0.051 C 
ATOM     13  C   UNL     1      37.866 -23.297 -15.186  0.00  0.00    -0.101 C 
ATOM     14  C   UNL     1      32.032 -22.777 -17.576  0.00  0.00    -0.004 C 
ATOM     15  C   UNL     1      32.898 -24.719 -13.532  0.00  0.00    +0.061 C 
ATOM     16  C   UNL     1      30.411 -23.403 -15.839  0.00  0.00    +0.015 C 
ATOM     17  C   UNL     1      30.713 -22.864 -17.100  0.00  0.00    +0.001 C 
ATOM     18  C   UNL     1      30.463 -24.737 -12.967  0.00  0.00    +0.117 C 
ATOM     19  H   UNL     1      37.035 -24.163 -16.821  0.00  0.00    -0.080 HD
ENDROOT
BRANCH   6  20
ATOM     20  C   UNL     1      36.842 -20.974 -19.386  0.00  0.00    +0.091 C 
BRANCH  20  22
ATOM     21  O   UNL     1      36.197 -18.445 -20.662  0.00  0.00    -0.226 OA
ATOM     22  N   UNL     1      35.831 -20.719 -20.365  0.00  0.00    -0.271 N 
ATOM     23  C   UNL     1      35.586 -19.475 -20.927  0.00  0.00    +0.402 C 
ATOM     24  H   UNL     1      35.274 -21.475 -20.659  0.00  0.00    +0.153 HD
BRANCH  23  25
ATOM     25  O   UNL     1      34.560 -19.559 -21.827  0.00  0.00    -0.430 OA
BRANCH  25  26
ATOM     26  C   UNL     1      34.943 -19.753 -23.193  0.00  0.00    +0.237 C 
BRANCH  26  27
ATOM     27  C   UNL     1      34.549 -18.542 -23.988  0.00  0.00    +0.021 C 
ATOM     28  C   UNL     1      35.022 -17.289 -23.615  0.00  0.00    -0.001 C 
ATOM     29  C   UNL     1      33.715 -18.685 -25.091  0.00  0.00    -0.001 C 
ATOM     30  C   UNL     1      34.656 -16.164 -24.354  0.00  0.00    -0.000 C 
ATOM     31  C   UNL     1      33.348 -17.560 -25.830  0.00  0.00    -0.000 C 
ATOM     32  C   UNL     1      33.819 -16.300 -25.461  0.00  0.00    -0.000 C 
ENDBRANCH  26  27
ENDBRANCH  25  26
ENDBRANCH  23  25
ENDBRANCH  20  22
ENDBRANCH   6  20
TORSDOF 5
ENDMDL
MODEL 4
REMARK VINA RESULT:     -10.3      6.519     12.967
REMARK  Name = 28693
REMARK  5 active torsions:
REMARK  status: ('A' for Active; 'I' for Inactive)
REMARK    1  A    between atoms: C_6  and  C_20
REMARK    2  A    between atoms: C_20  and  N_22
REMARK    3  A    between atoms: C_23  and  O_25
REMARK    4  A    between atoms: O_25  and  C_26
REMARK    5  A    between atoms: C_26  and  C_27
REMARK                            x       y       z     vdW  Elec       q    Type
REMARK                         _______ _______ _______ _____ _____    ______ ____
ROOT
ATOM      1  N   UNL     1      32.299 -23.167 -16.124  0.00  0.00    +0.387 N 
ATOM      2  N   UNL     1      36.589 -25.209 -12.424  0.00  0.00    -0.284 N 
ATOM      3  C   UNL     1      34.804 -22.933 -16.078  0.00  0.00    +0.004 C 
ATOM      4  C   UNL     1      33.544 -23.770 -15.586  0.00  0.00    -0.050 C 
ATOM      5  C   UNL     1      34.823 -22.858 -17.610  0.00  0.00    +0.002 C 
ATOM      6  C   UNL     1      33.492 -22.319 -18.140  0.00  0.00    -0.001 C 
ATOM      7  C   UNL     1      33.505 -23.923 -14.016  0.00  0.00    +0.007 C 
ATOM      8  C   UNL     1      32.319 -23.142 -17.598  0.00  0.00    -0.076 C 
ATOM      9  C   UNL     1      36.092 -23.485 -15.489  0.00  0.00    -0.024 C 
ATOM     10  C   UNL     1      35.993 -24.135 -14.253  0.00  0.00    +0.007 C 
ATOM     11  C   UNL     1      34.826 -24.382 -13.501  0.00  0.00    -0.008 C 
ATOM     12  C   UNL     1      37.085 -24.651 -13.581  0.00  0.00    +0.051 C 
ATOM     13  C   UNL     1      31.089 -23.863 -15.677  0.00  0.00    -0.101 C 
ATOM     14  C   UNL     1      37.385 -23.350 -16.010  0.00  0.00    -0.004 C 
ATOM     15  C   UNL     1      35.219 -25.049 -12.364  0.00  0.00    +0.061 C 
ATOM     16  C   UNL     1      38.374 -24.542 -14.103  0.00  0.00    +0.015 C 
ATOM     17  C   UNL     1      38.498 -23.875 -15.332  0.00  0.00    +0.001 C 
ATOM     18  C   UNL     1      37.377 -25.871 -11.407  0.00  0.00    +0.117 C 
ATOM     19  H   UNL     1      32.269 -22.216 -15.758  0.00  0.00    -0.080 HD
ENDROOT
BRANCH   6  20
ATOM     20  C   UNL     1      33.486 -22.313 -19.669  0.00  0.00    +0.091 C 
BRANCH  20  22
ATOM     21  O   UNL     1      36.048 -21.158 -20.404  0.00  0.00    -0.226 OA
ATOM     22  N   UNL     1      33.743 -21.001 -20.177  0.00  0.00    -0.271 N 
ATOM     23  C   UNL     1      35.003 -20.524 -20.505  0.00  0.00    +0.402 C 
ATOM     24  H   UNL     1      32.976 -20.397 -20.302  0.00  0.00    +0.153 HD
BRANCH  23  25
ATOM     25  O   UNL     1      34.917 -19.239 -20.962  0.00  0.00    -0.430 OA
BRANCH  25  26
ATOM     26  C   UNL     1      35.905 -18.850 -21.922  0.00  0.00    +0.237 C 
BRANCH  26  27
ATOM     27  C   UNL     1      35.218 -18.398 -23.177  0.00  0.00    +0.021 C 
ATOM     28  C   UNL     1      35.209 -17.048 -23.510  0.00  0.00    -0.001 C 
ATOM     29  C   UNL     1      34.596 -19.333 -23.996  0.00  0.00    -0.001 C 
ATOM     30  C   UNL     1      34.570 -16.627 -24.676  0.00  0.00    -0.000 C 
ATOM     31  C   UNL     1      33.957 -18.913 -25.163  0.00  0.00    -0.000 C 
ATOM     32  C   UNL     1      33.944 -17.560 -25.502  0.00  0.00    -0.000 C 
ENDBRANCH  26  27
ENDBRANCH  25  26
ENDBRANCH  23  25
ENDBRANCH  20  22
ENDBRANCH   6  20
TORSDOF 5
ENDMDL
MODEL 5
REMARK VINA RESULT:     -10.3      3.873      6.976
REMARK  Name = 28693
REMARK  5 active torsions:
REMARK  status: ('A' for Active; 'I' for Inactive)
REMARK    1  A    between atoms: C_6  and  C_20
REMARK    2  A    between atoms: C_20  and  N_22
REMARK    3  A    between atoms: C_23  and  O_25
REMARK    4  A    between atoms: O_25  and  C_26
REMARK    5  A    between atoms: C_26  and  C_27
REMARK                            x       y       z     vdW  Elec       q    Type
REMARK                         _______ _______ _______ _____ _____    ______ ____
ROOT
ATOM      1  N   UNL     1      34.133  -7.969 -23.174  0.00  0.00    +0.387 N 
ATOM      2  N   UNL     1      33.103  -3.471 -27.043  0.00  0.00    -0.284 N 
ATOM      3  C   UNL     1      32.914  -5.775 -22.997  0.00  0.00    +0.004 C 
ATOM      4  C   UNL     1      33.482  -6.898 -23.970  0.00  0.00    -0.050 C 
ATOM      5  C   UNL     1      31.949  -6.396 -21.978  0.00  0.00    +0.002 C 
ATOM      6  C   UNL     1      32.620  -7.556 -21.239  0.00  0.00    -0.001 C 
ATOM      7  C   UNL     1      34.441  -6.304 -25.073  0.00  0.00    +0.007 C 
ATOM      8  C   UNL     1      33.180  -8.581 -22.232  0.00  0.00    -0.076 C 
ATOM      9  C   UNL     1      32.298  -4.629 -23.784  0.00  0.00    -0.024 C 
ATOM     10  C   UNL     1      32.811  -4.397 -25.066  0.00  0.00    +0.007 C 
ATOM     11  C   UNL     1      33.808  -5.131 -25.740  0.00  0.00    -0.008 C 
ATOM     12  C   UNL     1      32.376  -3.368 -25.878  0.00  0.00    +0.051 C 
ATOM     13  C   UNL     1      34.720  -9.022 -24.008  0.00  0.00    -0.101 C 
ATOM     14  C   UNL     1      31.322  -3.728 -23.340  0.00  0.00    -0.004 C 
ATOM     15  C   UNL     1      33.978  -4.536 -26.969  0.00  0.00    +0.061 C 
ATOM     16  C   UNL     1      31.388  -2.478 -25.454  0.00  0.00    +0.015 C 
ATOM     17  C   UNL     1      30.874  -2.681 -24.164  0.00  0.00    +0.001 C 
ATOM     18  C   UNL     1      32.982  -2.595 -28.188  0.00  0.00    +0.117 C 
ATOM     19  H   UNL     1      34.890  -7.514 -22.662  0.00  0.00    -0.080 HD
ENDROOT
BRANCH   6  20
ATOM     20  C   UNL     1      31.634  -8.220 -20.277  0.00  0.00    +0.091 C 
BRANCH  20  22
ATOM     21  O   UNL     1      32.388 -10.288 -18.380  0.00  0.00    -0.226 OA
ATOM     22  N   UNL     1      31.607  -9.638 -20.468  0.00  0.00    -0.271 N 
ATOM     23  C   UNL     1      31.986 -10.562 -19.506  0.00  0.00    +0.402 C 
ATOM     24  H   UNL     1      31.300  -9.978 -21.339  0.00  0.00    +0.153 HD
BRANCH  23  25
ATOM     25  O   UNL     1      31.847 -11.831 -19.992  0.00  0.00    -0.430 OA
BRANCH  25  26
ATOM     26  C   UNL     1      31.687 -11.942 -21.411  0.00  0.00    +0.237 C 
BRANCH  26  27
ATOM     27  C   UNL     1      32.665 -12.952 -21.937  0.00  0.00    +0.021 C 
ATOM     28  C   UNL     1      32.951 -12.991 -23.297  0.00  0.00    -0.001 C 
ATOM     29  C   UNL     1      33.277 -13.839 -21.059  0.00  0.00    -0.001 C 
ATOM     30  C   UNL     1      33.860 -13.929 -23.786  0.00  0.00    -0.000 C 
ATOM     31  C   UNL     1      34.186 -14.778 -21.547  0.00  0.00    -0.000 C 
ATOM     32  C   UNL     1      34.477 -14.823 -22.911  0.00  0.00    -0.000 C 
ENDBRANCH  26  27
ENDBRANCH  25  26
ENDBRANCH  23  25
ENDBRANCH  20  22
ENDBRANCH   6  20
TORSDOF 5
ENDMDL
MODEL 6
REMARK VINA RESULT:     -10.1      2.718      4.743
REMARK  Name = 28693
REMARK  5 active torsions:
REMARK  status: ('A' for Active; 'I' for Inactive)
REMARK    1  A    between atoms: C_6  and  C_20
REMARK    2  A    between atoms: C_20  and  N_22
REMARK    3  A    between atoms: C_23  and  O_25
REMARK    4  A    between atoms: O_25  and  C_26
REMARK    5  A    between atoms: C_26  and  C_27
REMARK                            x       y       z     vdW  Elec       q    Type
REMARK                         _______ _______ _______ _____ _____    ______ ____
ROOT
ATOM      1  N   UNL     1      34.146  -9.556 -23.633  0.00  0.00    +0.387 N 
ATOM      2  N   UNL     1      32.942  -3.839 -25.095  0.00  0.00    -0.284 N 
ATOM      3  C   UNL     1      32.722  -7.762 -22.591  0.00  0.00    +0.004 C 
ATOM      4  C   UNL     1      33.448  -8.275 -23.910  0.00  0.00    -0.050 C 
ATOM      5  C   UNL     1      31.759  -8.836 -22.066  0.00  0.00    +0.002 C 
ATOM      6  C   UNL     1      32.487 -10.169 -21.879  0.00  0.00    -0.001 C 
ATOM      7  C   UNL     1      34.413  -7.187 -24.521  0.00  0.00    +0.007 C 
ATOM      8  C   UNL     1      33.198 -10.585 -23.171  0.00  0.00    -0.076 C 
ATOM      9  C   UNL     1      32.052  -6.417 -22.821  0.00  0.00    -0.024 C 
ATOM     10  C   UNL     1      32.618  -5.591 -23.799  0.00  0.00    +0.007 C 
ATOM     11  C   UNL     1      33.717  -5.874 -24.635  0.00  0.00    -0.008 C 
ATOM     12  C   UNL     1      32.140  -4.327 -24.088  0.00  0.00    +0.051 C 
ATOM     13  C   UNL     1      34.875 -10.070 -24.797  0.00  0.00    -0.101 C 
ATOM     14  C   UNL     1      30.973  -5.878 -22.110  0.00  0.00    -0.004 C 
ATOM     15  C   UNL     1      33.905  -4.769 -25.433  0.00  0.00    +0.061 C 
ATOM     16  C   UNL     1      31.051  -3.790 -23.401  0.00  0.00    +0.015 C 
ATOM     17  C   UNL     1      30.481  -4.595 -22.402  0.00  0.00    +0.001 C 
ATOM     18  C   UNL     1      32.810  -2.541 -25.719  0.00  0.00    +0.117 C 
ATOM     19  H   UNL     1      34.825  -9.351 -22.901  0.00  0.00    -0.080 HD
ENDROOT
BRANCH   6  20
ATOM     20  C   UNL     1      31.511 -11.255 -21.426  0.00  0.00    +0.091 C 
BRANCH  20  22
ATOM     21  O   UNL     1      32.316 -13.606 -22.930  0.00  0.00    -0.226 OA
ATOM     22  N   UNL     1      32.211 -12.406 -20.946  0.00  0.00    -0.271 N 
ATOM     23  C   UNL     1      32.560 -13.492 -21.734  0.00  0.00    +0.402 C 
ATOM     24  H   UNL     1      32.462 -12.427 -19.994  0.00  0.00    +0.153 HD
BRANCH  23  25
ATOM     25  O   UNL     1      33.219 -14.425 -20.984  0.00  0.00    -0.430 OA
BRANCH  25  26
ATOM     26  C   UNL     1      34.629 -14.531 -21.218  0.00  0.00    +0.237 C 
BRANCH  26  27
ATOM     27  C   UNL     1      34.927 -15.875 -21.814  0.00  0.00    +0.021 C 
ATOM     28  C   UNL     1      34.888 -16.040 -23.194  0.00  0.00    -0.001 C 
ATOM     29  C   UNL     1      35.240 -16.943 -20.982  0.00  0.00    -0.001 C 
ATOM     30  C   UNL     1      35.165 -17.289 -23.749  0.00  0.00    -0.000 C 
ATOM     31  C   UNL     1      35.517 -18.193 -21.536  0.00  0.00    -0.000 C 
ATOM     32  C   UNL     1      35.479 -18.366 -22.920  0.00  0.00    -0.000 C 
ENDBRANCH  26  27
ENDBRANCH  25  26
ENDBRANCH  23  25
ENDBRANCH  20  22
ENDBRANCH   6  20
TORSDOF 5
ENDMDL
MODEL 7
REMARK VINA RESULT:     -10.0      1.236      2.662
REMARK  Name = 28693
REMARK  5 active torsions:
REMARK  status: ('A' for Active; 'I' for Inactive)
REMARK    1  A    between atoms: C_6  and  C_20
REMARK    2  A    between atoms: C_20  and  N_22
REMARK    3  A    between atoms: C_23  and  O_25
REMARK    4  A    between atoms: O_25  and  C_26
REMARK    5  A    between atoms: C_26  and  C_27
REMARK                            x       y       z     vdW  Elec       q    Type
REMARK                         _______ _______ _______ _____ _____    ______ ____
ROOT
ATOM      1  N   UNL     1      34.806 -11.375 -24.998  0.00  0.00    +0.387 N 
ATOM      2  N   UNL     1      32.311  -7.207 -21.440  0.00  0.00    -0.284 N 
ATOM      3  C   UNL     1      33.580 -11.478 -22.803  0.00  0.00    +0.004 C 
ATOM      4  C   UNL     1      33.870 -10.632 -24.119  0.00  0.00    -0.050 C 
ATOM      5  C   UNL     1      33.036 -12.864 -23.175  0.00  0.00    +0.002 C 
ATOM      6  C   UNL     1      33.978 -13.568 -24.154  0.00  0.00    -0.001 C 
ATOM      7  C   UNL     1      34.382  -9.177 -23.792  0.00  0.00    +0.007 C 
ATOM      8  C   UNL     1      34.248 -12.685 -25.377  0.00  0.00    -0.076 C 
ATOM      9  C   UNL     1      32.675 -10.716 -21.849  0.00  0.00    -0.024 C 
ATOM     10  C   UNL     1      32.731  -9.318 -21.909  0.00  0.00    +0.007 C 
ATOM     11  C   UNL     1      33.498  -8.524 -22.784  0.00  0.00    -0.008 C 
ATOM     12  C   UNL     1      31.995  -8.497 -21.076  0.00  0.00    +0.051 C 
ATOM     13  C   UNL     1      35.153 -10.636 -26.215  0.00  0.00    -0.101 C 
ATOM     14  C   UNL     1      31.843 -11.256 -20.860  0.00  0.00    -0.004 C 
ATOM     15  C   UNL     1      33.225  -7.211 -22.474  0.00  0.00    +0.061 C 
ATOM     16  C   UNL     1      31.146  -9.025 -20.103  0.00  0.00    +0.015 C 
ATOM     17  C   UNL     1      31.090 -10.425 -20.013  0.00  0.00    +0.001 C 
ATOM     18  C   UNL     1      31.773  -6.009 -20.833  0.00  0.00    +0.117 C 
ATOM     19  H   UNL     1      35.659 -11.502 -24.452  0.00  0.00    -0.080 HD
ENDROOT
BRANCH   6  20
ATOM     20  C   UNL     1      33.399 -14.918 -24.579  0.00  0.00    +0.091 C 
BRANCH  20  22
ATOM     21  O   UNL     1      34.273 -17.325 -25.952  0.00  0.00    -0.226 OA
ATOM     22  N   UNL     1      34.174 -15.998 -24.049  0.00  0.00    -0.271 N 
ATOM     23  C   UNL     1      34.551 -17.117 -24.775  0.00  0.00    +0.402 C 
ATOM     24  H   UNL     1      34.457 -15.942 -23.108  0.00  0.00    +0.153 HD
BRANCH  23  25
ATOM     25  O   UNL     1      35.281 -17.964 -23.990  0.00  0.00    -0.430 OA
BRANCH  25  26
ATOM     26  C   UNL     1      35.470 -17.548 -22.632  0.00  0.00    +0.237 C 
BRANCH  26  27
ATOM     27  C   UNL     1      35.560 -18.763 -21.756  0.00  0.00    +0.021 C 
ATOM     28  C   UNL     1      36.781 -19.120 -21.196  0.00  0.00    -0.001 C 
ATOM     29  C   UNL     1      34.420 -19.521 -21.512  0.00  0.00    -0.001 C 
ATOM     30  C   UNL     1      36.865 -20.249 -20.382  0.00  0.00    -0.000 C 
ATOM     31  C   UNL     1      34.503 -20.650 -20.697  0.00  0.00    -0.000 C 
ATOM     32  C   UNL     1      35.726 -21.015 -20.133  0.00  0.00    -0.000 C 
ENDBRANCH  26  27
ENDBRANCH  25  26
ENDBRANCH  23  25
ENDBRANCH  20  22
ENDBRANCH   6  20
TORSDOF 5
ENDMDL
MODEL 8
REMARK VINA RESULT:     -10.0      3.529     10.343
REMARK  Name = 28693
REMARK  5 active torsions:
REMARK  status: ('A' for Active; 'I' for Inactive)
REMARK    1  A    between atoms: C_6  and  C_20
REMARK    2  A    between atoms: C_20  and  N_22
REMARK    3  A    between atoms: C_23  and  O_25
REMARK    4  A    between atoms: O_25  and  C_26
REMARK    5  A    between atoms: C_26  and  C_27
REMARK                            x       y       z     vdW  Elec       q    Type
REMARK                         _______ _______ _______ _____ _____    ______ ____
ROOT
ATOM      1  N   UNL     1      33.339 -12.878 -25.906  0.00  0.00    +0.387 N 
ATOM      2  N   UNL     1      34.936 -18.161 -23.496  0.00  0.00    -0.284 N 
ATOM      3  C   UNL     1      33.628 -13.689 -23.541  0.00  0.00    +0.004 C 
ATOM      4  C   UNL     1      33.983 -13.925 -25.074  0.00  0.00    -0.050 C 
ATOM      5  C   UNL     1      34.051 -12.278 -23.112  0.00  0.00    +0.002 C 
ATOM      6  C   UNL     1      33.446 -11.226 -24.044  0.00  0.00    -0.001 C 
ATOM      7  C   UNL     1      33.615 -15.382 -25.553  0.00  0.00    +0.007 C 
ATOM      8  C   UNL     1      33.791 -11.534 -25.506  0.00  0.00    -0.076 C 
ATOM      9  C   UNL     1      34.217 -14.783 -22.666  0.00  0.00    -0.024 C 
ATOM     10  C   UNL     1      34.403 -16.036 -23.264  0.00  0.00    +0.007 C 
ATOM     11  C   UNL     1      34.149 -16.398 -24.602  0.00  0.00    -0.008 C 
ATOM     12  C   UNL     1      34.892 -17.133 -22.580  0.00  0.00    +0.051 C 
ATOM     13  C   UNL     1      33.589 -13.056 -27.339  0.00  0.00    -0.101 C 
ATOM     14  C   UNL     1      34.527 -14.701 -21.303  0.00  0.00    -0.004 C 
ATOM     15  C   UNL     1      34.484 -17.726 -24.726  0.00  0.00    +0.061 C 
ATOM     16  C   UNL     1      35.225 -17.055 -21.228  0.00  0.00    +0.015 C 
ATOM     17  C   UNL     1      35.028 -15.812 -20.605  0.00  0.00    +0.001 C 
ATOM     18  C   UNL     1      35.386 -19.509 -23.223  0.00  0.00    +0.117 C 
ATOM     19  H   UNL     1      32.336 -12.973 -25.746  0.00  0.00    -0.080 HD
ENDROOT
BRANCH   6  20
ATOM     20  C   UNL     1      33.927  -9.827 -23.659  0.00  0.00    +0.091 C 
BRANCH  20  22
ATOM     21  O   UNL     1      32.724  -8.818 -21.215  0.00  0.00    -0.226 OA
ATOM     22  N   UNL     1      32.826  -8.923 -23.533  0.00  0.00    -0.271 N 
ATOM     23  C   UNL     1      32.309  -8.488 -22.322  0.00  0.00    +0.402 C 
ATOM     24  H   UNL     1      32.409  -8.588 -24.359  0.00  0.00    +0.153 HD
BRANCH  23  25
ATOM     25  O   UNL     1      31.264  -7.634 -22.535  0.00  0.00    -0.430 OA
BRANCH  25  26
ATOM     26  C   UNL     1      31.018  -7.278 -23.901  0.00  0.00    +0.237 C 
BRANCH  26  27
ATOM     27  C   UNL     1      31.424  -5.850 -24.116  0.00  0.00    +0.021 C 
ATOM     28  C   UNL     1      30.876  -4.851 -23.319  0.00  0.00    -0.001 C 
ATOM     29  C   UNL     1      32.344  -5.538 -25.110  0.00  0.00    -0.001 C 
ATOM     30  C   UNL     1      31.253  -3.523 -23.518  0.00  0.00    -0.000 C 
ATOM     31  C   UNL     1      32.722  -4.210 -25.310  0.00  0.00    -0.000 C 
ATOM     32  C   UNL     1      32.176  -3.202 -24.514  0.00  0.00    -0.000 C 
ENDBRANCH  26  27
ENDBRANCH  25  26
ENDBRANCH  23  25
ENDBRANCH  20  22
ENDBRANCH   6  20
TORSDOF 5
ENDMDL
MODEL 9
REMARK VINA RESULT:     -10.0      3.115      5.678
REMARK  Name = 28693
REMARK  5 active torsions:
REMARK  status: ('A' for Active; 'I' for Inactive)
REMARK    1  A    between atoms: C_6  and  C_20
REMARK    2  A    between atoms: C_20  and  N_22
REMARK    3  A    between atoms: C_23  and  O_25
REMARK    4  A    between atoms: O_25  and  C_26
REMARK    5  A    between atoms: C_26  and  C_27
REMARK                            x       y       z     vdW  Elec       q    Type
REMARK                         _______ _______ _______ _____ _____    ______ ____
ROOT
ATOM      1  N   UNL     1      34.244  -8.832 -23.619  0.00  0.00    +0.387 N 
ATOM      2  N   UNL     1      33.094  -3.340 -25.807  0.00  0.00    -0.284 N 
ATOM      3  C   UNL     1      32.800  -6.923 -22.842  0.00  0.00    +0.004 C 
ATOM      4  C   UNL     1      33.558  -7.595 -24.069  0.00  0.00    -0.050 C 
ATOM      5  C   UNL     1      31.821  -7.924 -22.212  0.00  0.00    +0.002 C 
ATOM      6  C   UNL     1      32.541  -9.223 -21.844  0.00  0.00    -0.001 C 
ATOM      7  C   UNL     1      34.540  -6.591 -24.786  0.00  0.00    +0.007 C 
ATOM      8  C   UNL     1      33.282  -9.796 -23.057  0.00  0.00    -0.076 C 
ATOM      9  C   UNL     1      32.141  -5.617 -23.253  0.00  0.00    -0.024 C 
ATOM     10  C   UNL     1      32.733  -4.918 -24.312  0.00  0.00    +0.007 C 
ATOM     11  C   UNL     1      33.851  -5.302 -25.079  0.00  0.00    -0.008 C 
ATOM     12  C   UNL     1      32.265  -3.700 -24.767  0.00  0.00    +0.051 C 
ATOM     13  C   UNL     1      35.001  -9.485 -24.691  0.00  0.00    -0.101 C 
ATOM     14  C   UNL     1      31.046  -4.994 -22.641  0.00  0.00    -0.004 C 
ATOM     15  C   UNL     1      34.062  -4.305 -26.003  0.00  0.00    +0.061 C 
ATOM     16  C   UNL     1      31.162  -3.081 -24.179  0.00  0.00    +0.015 C 
ATOM     17  C   UNL     1      30.565  -3.757 -23.102  0.00  0.00    +0.001 C 
ATOM     18  C   UNL     1      32.981  -2.129 -26.589  0.00  0.00    +0.117 C 
ATOM     19  H   UNL     1      34.906  -8.537 -22.901  0.00  0.00    -0.080 HD
ENDROOT
BRANCH   6  20
ATOM     20  C   UNL     1      31.551 -10.245 -21.284  0.00  0.00    +0.091 C 
BRANCH  20  22
ATOM     21  O   UNL     1      32.511 -12.823 -20.353  0.00  0.00    -0.226 OA
ATOM     22  N   UNL     1      31.614 -11.473 -22.015  0.00  0.00    -0.271 N 
ATOM     23  C   UNL     1      32.089 -12.667 -21.494  0.00  0.00    +0.402 C 
ATOM     24  H   UNL     1      31.299 -11.470 -22.948  0.00  0.00    +0.153 HD
BRANCH  23  25
ATOM     25  O   UNL     1      32.019 -13.653 -22.437  0.00  0.00    -0.430 OA
BRANCH  25  26
ATOM     26  C   UNL     1      32.876 -13.491 -23.574  0.00  0.00    +0.237 C 
BRANCH  26  27
ATOM     27  C   UNL     1      33.656 -14.756 -23.783  0.00  0.00    +0.021 C 
ATOM     28  C   UNL     1      34.518 -15.206 -22.788  0.00  0.00    -0.001 C 
ATOM     29  C   UNL     1      33.510 -15.467 -24.968  0.00  0.00    -0.001 C 
ATOM     30  C   UNL     1      35.243 -16.381 -22.981  0.00  0.00    -0.000 C 
ATOM     31  C   UNL     1      34.235 -16.643 -25.162  0.00  0.00    -0.000 C 
ATOM     32  C   UNL     1      35.102 -17.100 -24.169  0.00  0.00    -0.000 C 
ENDBRANCH  26  27
ENDBRANCH  25  26
ENDBRANCH  23  25
ENDBRANCH  20  22
ENDBRANCH   6  20
TORSDOF 5
ENDMDL
