MODEL 1
REMARK VINA RESULT:     -11.2      0.000      0.000
REMARK  Name = 5288708
REMARK  4 active torsions:
REMARK  status: ('A' for Active; 'I' for Inactive)
REMARK    1  A    between atoms: N_1  and  C_9
REMARK    2  A    between atoms: N_1  and  C_16
REMARK    3  A    between atoms: C_15  and  S_21
REMARK    4  A    between atoms: S_21  and  N_24
REMARK                            x       y       z     vdW  Elec       q    Type
REMARK                         _______ _______ _______ _____ _____    ______ ____
ROOT
ATOM      1  N   UNL     1      36.194 -18.793 -21.852  0.00  0.00    -0.311 N 
ATOM      2  H   UNL     1      37.050 -19.020 -22.282  0.00  0.00    +0.152 HD
ENDROOT
BRANCH   1   9
ATOM      3  O   UNL     1      34.937 -19.176 -24.437  0.00  0.00    -0.270 OA
ATOM      4  N   UNL     1      33.989 -17.146 -25.185  0.00  0.00    -0.280 N 
ATOM      5  C   UNL     1      34.542 -15.769 -23.428  0.00  0.00    +0.019 C 
ATOM      6  C   UNL     1      35.049 -17.109 -23.155  0.00  0.00    +0.069 C 
ATOM      7  C   UNL     1      33.907 -15.847 -24.670  0.00  0.00    +0.051 C 
ATOM      8  C   UNL     1      34.680 -17.993 -24.312  0.00  0.00    +0.251 C 
ATOM      9  C   UNL     1      35.728 -17.541 -22.092  0.00  0.00    +0.066 C 
ATOM     10  C   UNL     1      34.585 -14.575 -22.732  0.00  0.00    +0.001 C 
ATOM     11  C   UNL     1      33.299 -14.756 -25.261  0.00  0.00    +0.015 C 
ATOM     12  C   UNL     1      33.975 -13.457 -23.311  0.00  0.00    +0.000 C 
ATOM     13  C   UNL     1      33.339 -13.547 -24.564  0.00  0.00    +0.001 C 
ATOM     14  H   UNL     1      33.610 -17.427 -26.049  0.00  0.00    +0.155 HD
ENDBRANCH   1   9
BRANCH   1  16
ATOM     15  C   UNL     1      34.470 -21.825 -19.511  0.00  0.00    +0.122 C 
ATOM     16  C   UNL     1      35.618 -19.807 -21.069  0.00  0.00    +0.048 C 
ATOM     17  C   UNL     1      33.659 -20.996 -20.287  0.00  0.00    +0.021 C 
ATOM     18  C   UNL     1      35.854 -21.648 -19.514  0.00  0.00    +0.021 C 
ATOM     19  C   UNL     1      34.232 -19.989 -21.064  0.00  0.00    +0.016 C 
ATOM     20  C   UNL     1      36.427 -20.641 -20.291  0.00  0.00    +0.016 C 
BRANCH  15  21
ATOM     21  S   UNL     1      33.754 -23.085 -18.538  0.00  0.00    +0.060 S 
ATOM     22  O   UNL     1      32.425 -22.656 -18.119  0.00  0.00    -0.153 OA
ATOM     23  O   UNL     1      33.904 -24.343 -19.258  0.00  0.00    -0.153 OA
BRANCH  21  24
ATOM     24  N   UNL     1      34.775 -23.116 -17.167  0.00  0.00    -0.178 NA
ATOM     25  C   UNL     1      34.227 -23.493 -15.856  0.00  0.00    +0.110 C 
ATOM     26  H   UNL     1      35.161 -22.178 -17.065  0.00  0.00    +0.149 HD
ENDBRANCH  21  24
ENDBRANCH  15  21
ENDBRANCH   1  16
TORSDOF 4
ENDMDL
MODEL 2
REMARK VINA RESULT:     -11.0      1.421      2.110
REMARK  Name = 5288708
REMARK  4 active torsions:
REMARK  status: ('A' for Active; 'I' for Inactive)
REMARK    1  A    between atoms: N_1  and  C_9
REMARK    2  A    between atoms: N_1  and  C_16
REMARK    3  A    between atoms: C_15  and  S_21
REMARK    4  A    between atoms: S_21  and  N_24
REMARK                            x       y       z     vdW  Elec       q    Type
REMARK                         _______ _______ _______ _____ _____    ______ ____
ROOT
ATOM      1  N   UNL     1      36.076 -18.768 -21.897  0.00  0.00    -0.311 N 
ATOM      2  H   UNL     1      36.987 -18.488 -21.653  0.00  0.00    +0.152 HD
ENDROOT
BRANCH   1   9
ATOM      3  O   UNL     1      35.313 -16.268 -20.641  0.00  0.00    -0.270 OA
ATOM      4  N   UNL     1      34.293 -14.845 -22.227  0.00  0.00    -0.280 N 
ATOM      5  C   UNL     1      34.392 -16.182 -24.095  0.00  0.00    +0.019 C 
ATOM      6  C   UNL     1      34.989 -16.895 -22.972  0.00  0.00    +0.069 C 
ATOM      7  C   UNL     1      33.987 -14.944 -23.588  0.00  0.00    +0.051 C 
ATOM      8  C   UNL     1      34.915 -16.008 -21.761  0.00  0.00    +0.251 C 
ATOM      9  C   UNL     1      35.523 -18.117 -22.951  0.00  0.00    +0.066 C 
ATOM     10  C   UNL     1      34.189 -16.500 -25.425  0.00  0.00    +0.001 C 
ATOM     11  C   UNL     1      33.371 -13.988 -24.374  0.00  0.00    +0.015 C 
ATOM     12  C   UNL     1      33.568 -15.547 -26.239  0.00  0.00    +0.000 C 
ATOM     13  C   UNL     1      33.162 -14.303 -25.718  0.00  0.00    +0.001 C 
ATOM     14  H   UNL     1      34.095 -14.058 -21.668  0.00  0.00    +0.155 HD
ENDBRANCH   1   9
BRANCH   1  16
ATOM     15  C   UNL     1      34.412 -21.816 -19.533  0.00  0.00    +0.122 C 
ATOM     16  C   UNL     1      35.519 -19.787 -21.106  0.00  0.00    +0.048 C 
ATOM     17  C   UNL     1      35.794 -21.630 -19.560  0.00  0.00    +0.021 C 
ATOM     18  C   UNL     1      33.582 -20.988 -20.291  0.00  0.00    +0.021 C 
ATOM     19  C   UNL     1      36.346 -20.617 -20.345  0.00  0.00    +0.016 C 
ATOM     20  C   UNL     1      34.134 -19.977 -21.076  0.00  0.00    +0.016 C 
BRANCH  15  21
ATOM     21  S   UNL     1      33.719 -23.083 -18.552  0.00  0.00    +0.060 S 
ATOM     22  O   UNL     1      32.404 -22.654 -18.092  0.00  0.00    -0.153 OA
ATOM     23  O   UNL     1      33.846 -24.334 -19.288  0.00  0.00    -0.153 OA
BRANCH  21  24
ATOM     24  N   UNL     1      34.778 -23.130 -17.210  0.00  0.00    -0.178 NA
ATOM     25  C   UNL     1      34.249 -23.421 -15.871  0.00  0.00    +0.110 C 
ATOM     26  H   UNL     1      35.227 -22.216 -17.157  0.00  0.00    +0.149 HD
ENDBRANCH  21  24
ENDBRANCH  15  21
ENDBRANCH   1  16
TORSDOF 4
ENDMDL
MODEL 3
REMARK VINA RESULT:     -10.4      2.673      9.173
REMARK  Name = 5288708
REMARK  4 active torsions:
REMARK  status: ('A' for Active; 'I' for Inactive)
REMARK    1  A    between atoms: N_1  and  C_9
REMARK    2  A    between atoms: N_1  and  C_16
REMARK    3  A    between atoms: C_15  and  S_21
REMARK    4  A    between atoms: S_21  and  N_24
REMARK                            x       y       z     vdW  Elec       q    Type
REMARK                         _______ _______ _______ _____ _____    ______ ____
ROOT
ATOM      1  N   UNL     1      34.192 -23.160 -18.948  0.00  0.00    -0.311 N 
ATOM      2  H   UNL     1      34.700 -23.977 -19.156  0.00  0.00    +0.152 HD
ENDROOT
BRANCH   1   9
ATOM      3  O   UNL     1      35.757 -23.271 -16.510  0.00  0.00    -0.270 OA
ATOM      4  N   UNL     1      34.329 -23.512 -14.642  0.00  0.00    -0.280 N 
ATOM      5  C   UNL     1      32.286 -23.548 -15.696  0.00  0.00    +0.019 C 
ATOM      6  C   UNL     1      33.333 -23.400 -16.701  0.00  0.00    +0.069 C 
ATOM      7  C   UNL     1      32.945 -23.611 -14.465  0.00  0.00    +0.051 C 
ATOM      8  C   UNL     1      34.659 -23.380 -15.996  0.00  0.00    +0.251 C 
ATOM      9  C   UNL     1      33.207 -23.298 -18.025  0.00  0.00    +0.066 C 
ATOM     10  C   UNL     1      30.907 -23.627 -15.763  0.00  0.00    +0.001 C 
ATOM     11  C   UNL     1      32.268 -23.753 -13.269  0.00  0.00    +0.015 C 
ATOM     12  C   UNL     1      30.201 -23.770 -14.564  0.00  0.00    +0.000 C 
ATOM     13  C   UNL     1      30.875 -23.833 -13.329  0.00  0.00    +0.001 C 
ATOM     14  H   UNL     1      34.986 -23.534 -13.910  0.00  0.00    +0.155 HD
ENDBRANCH   1   9
BRANCH   1  16
ATOM     15  C   UNL     1      35.354 -19.709 -21.043  0.00  0.00    +0.122 C 
ATOM     16  C   UNL     1      34.581 -22.006 -19.648  0.00  0.00    +0.048 C 
ATOM     17  C   UNL     1      34.004 -20.048 -20.950  0.00  0.00    +0.021 C 
ATOM     18  C   UNL     1      36.319 -20.517 -20.438  0.00  0.00    +0.021 C 
ATOM     19  C   UNL     1      33.618 -21.194 -20.254  0.00  0.00    +0.016 C 
ATOM     20  C   UNL     1      35.933 -21.663 -19.743  0.00  0.00    +0.016 C 
BRANCH  15  21
ATOM     21  S   UNL     1      35.838 -18.276 -21.914  0.00  0.00    +0.060 S 
ATOM     22  O   UNL     1      35.388 -17.103 -21.175  0.00  0.00    -0.153 OA
ATOM     23  O   UNL     1      37.251 -18.413 -22.245  0.00  0.00    -0.153 OA
BRANCH  21  24
ATOM     24  N   UNL     1      34.927 -18.396 -23.356  0.00  0.00    -0.178 NA
ATOM     25  C   UNL     1      34.866 -17.255 -24.280  0.00  0.00    +0.110 C 
ATOM     26  H   UNL     1      33.967 -18.604 -23.082  0.00  0.00    +0.149 HD
ENDBRANCH  21  24
ENDBRANCH  15  21
ENDBRANCH   1  16
TORSDOF 4
ENDMDL
MODEL 4
REMARK VINA RESULT:     -10.4      4.022      6.869
REMARK  Name = 5288708
REMARK  4 active torsions:
REMARK  status: ('A' for Active; 'I' for Inactive)
REMARK    1  A    between atoms: N_1  and  C_9
REMARK    2  A    between atoms: N_1  and  C_16
REMARK    3  A    between atoms: C_15  and  S_21
REMARK    4  A    between atoms: S_21  and  N_24
REMARK                            x       y       z     vdW  Elec       q    Type
REMARK                         _______ _______ _______ _____ _____    ______ ____
ROOT
ATOM      1  N   UNL     1      34.714 -23.269 -17.023  0.00  0.00    -0.311 N 
ATOM      2  H   UNL     1      33.922 -23.791 -17.282  0.00  0.00    +0.152 HD
ENDROOT
BRANCH   1   9
ATOM      3  O   UNL     1      32.296 -22.518 -18.436  0.00  0.00    -0.270 OA
ATOM      4  N   UNL     1      32.822 -21.073 -20.230  0.00  0.00    -0.280 N 
ATOM      5  C   UNL     1      35.106 -20.946 -19.992  0.00  0.00    +0.019 C 
ATOM      6  C   UNL     1      34.569 -21.815 -18.950  0.00  0.00    +0.069 C 
ATOM      7  C   UNL     1      34.003 -20.523 -20.739  0.00  0.00    +0.051 C 
ATOM      8  C   UNL     1      33.079 -21.887 -19.121  0.00  0.00    +0.251 C 
ATOM      9  C   UNL     1      35.228 -22.463 -17.988  0.00  0.00    +0.066 C 
ATOM     10  C   UNL     1      36.382 -20.526 -20.317  0.00  0.00    +0.001 C 
ATOM     11  C   UNL     1      34.125 -19.677 -21.825  0.00  0.00    +0.015 C 
ATOM     12  C   UNL     1      36.529 -19.668 -21.413  0.00  0.00    +0.000 C 
ATOM     13  C   UNL     1      35.411 -19.248 -22.160  0.00  0.00    +0.001 C 
ATOM     14  H   UNL     1      31.926 -20.909 -20.603  0.00  0.00    +0.155 HD
ENDBRANCH   1   9
BRANCH   1  16
ATOM     15  C   UNL     1      36.068 -23.833 -13.087  0.00  0.00    +0.122 C 
ATOM     16  C   UNL     1      35.167 -23.457 -15.707  0.00  0.00    +0.048 C 
ATOM     17  C   UNL     1      36.925 -23.302 -14.051  0.00  0.00    +0.021 C 
ATOM     18  C   UNL     1      34.760 -24.175 -13.431  0.00  0.00    +0.021 C 
ATOM     19  C   UNL     1      36.476 -23.114 -15.358  0.00  0.00    +0.016 C 
ATOM     20  C   UNL     1      34.310 -23.989 -14.738  0.00  0.00    +0.016 C 
BRANCH  15  21
ATOM     21  S   UNL     1      36.630 -24.068 -11.451  0.00  0.00    +0.060 S 
ATOM     22  O   UNL     1      37.322 -22.862 -11.015  0.00  0.00    -0.153 OA
ATOM     23  O   UNL     1      35.512 -24.574 -10.666  0.00  0.00    -0.153 OA
BRANCH  21  24
ATOM     24  N   UNL     1      37.779 -25.321 -11.633  0.00  0.00    -0.178 NA
ATOM     25  C   UNL     1      37.445 -26.509 -12.431  0.00  0.00    +0.110 C 
ATOM     26  H   UNL     1      38.007 -25.650 -10.696  0.00  0.00    +0.149 HD
ENDBRANCH  21  24
ENDBRANCH  15  21
ENDBRANCH   1  16
TORSDOF 4
ENDMDL
MODEL 5
REMARK VINA RESULT:     -10.2      4.344      7.277
REMARK  Name = 5288708
REMARK  4 active torsions:
REMARK  status: ('A' for Active; 'I' for Inactive)
REMARK    1  A    between atoms: N_1  and  C_9
REMARK    2  A    between atoms: N_1  and  C_16
REMARK    3  A    between atoms: C_15  and  S_21
REMARK    4  A    between atoms: S_21  and  N_24
REMARK                            x       y       z     vdW  Elec       q    Type
REMARK                         _______ _______ _______ _____ _____    ______ ____
ROOT
ATOM      1  N   UNL     1      34.331 -23.714 -16.706  0.00  0.00    -0.311 N 
ATOM      2  H   UNL     1      33.426 -24.032 -16.927  0.00  0.00    +0.152 HD
ENDROOT
BRANCH   1   9
ATOM      3  O   UNL     1      32.006 -22.679 -18.096  0.00  0.00    -0.270 OA
ATOM      4  N   UNL     1      32.682 -21.246 -19.849  0.00  0.00    -0.280 N 
ATOM      5  C   UNL     1      34.966 -21.361 -19.608  0.00  0.00    +0.019 C 
ATOM      6  C   UNL     1      34.341 -22.199 -18.591  0.00  0.00    +0.069 C 
ATOM      7  C   UNL     1      33.914 -20.806 -20.343  0.00  0.00    +0.051 C 
ATOM      8  C   UNL     1      32.851 -22.113 -18.764  0.00  0.00    +0.251 C 
ATOM      9  C   UNL     1      34.926 -22.938 -17.648  0.00  0.00    +0.066 C 
ATOM     10  C   UNL     1      36.279 -21.065 -19.922  0.00  0.00    +0.001 C 
ATOM     11  C   UNL     1      34.126 -19.947 -21.405  0.00  0.00    +0.015 C 
ATOM     12  C   UNL     1      36.517 -20.196 -20.993  0.00  0.00    +0.000 C 
ATOM     13  C   UNL     1      35.450 -19.643 -21.727  0.00  0.00    +0.001 C 
ATOM     14  H   UNL     1      31.808 -20.980 -20.217  0.00  0.00    +0.155 HD
ENDBRANCH   1   9
BRANCH   1  16
ATOM     15  C   UNL     1      35.839 -24.937 -12.982  0.00  0.00    +0.122 C 
ATOM     16  C   UNL     1      34.835 -24.123 -15.461  0.00  0.00    +0.048 C 
ATOM     17  C   UNL     1      36.603 -25.113 -14.136  0.00  0.00    +0.021 C 
ATOM     18  C   UNL     1      34.574 -24.354 -13.065  0.00  0.00    +0.021 C 
ATOM     19  C   UNL     1      36.102 -24.706 -15.373  0.00  0.00    +0.016 C 
ATOM     20  C   UNL     1      34.073 -23.948 -14.302  0.00  0.00    +0.016 C 
BRANCH  15  21
ATOM     21  S   UNL     1      36.465 -25.446 -11.434  0.00  0.00    +0.060 S 
ATOM     22  O   UNL     1      35.381 -25.429 -10.461  0.00  0.00    -0.153 OA
ATOM     23  O   UNL     1      37.218 -26.677 -11.642  0.00  0.00    -0.153 OA
BRANCH  21  24
ATOM     24  N   UNL     1      37.564 -24.193 -11.051  0.00  0.00    -0.178 NA
ATOM     25  C   UNL     1      37.481 -22.907 -11.757  0.00  0.00    +0.110 C 
ATOM     26  H   UNL     1      38.500 -24.561 -11.217  0.00  0.00    +0.149 HD
ENDBRANCH  21  24
ENDBRANCH  15  21
ENDBRANCH   1  16
TORSDOF 4
ENDMDL
MODEL 6
REMARK VINA RESULT:      -9.7      4.066      6.499
REMARK  Name = 5288708
REMARK  4 active torsions:
REMARK  status: ('A' for Active; 'I' for Inactive)
REMARK    1  A    between atoms: N_1  and  C_9
REMARK    2  A    between atoms: N_1  and  C_16
REMARK    3  A    between atoms: C_15  and  S_21
REMARK    4  A    between atoms: S_21  and  N_24
REMARK                            x       y       z     vdW  Elec       q    Type
REMARK                         _______ _______ _______ _____ _____    ______ ____
ROOT
ATOM      1  N   UNL     1      33.344 -13.594 -24.228  0.00  0.00    -0.311 N 
ATOM      2  H   UNL     1      32.515 -13.780 -24.725  0.00  0.00    +0.152 HD
ENDROOT
BRANCH   1   9
ATOM      3  O   UNL     1      31.559 -12.607 -22.167  0.00  0.00    -0.270 OA
ATOM      4  N   UNL     1      31.943 -10.305 -21.798  0.00  0.00    -0.280 N 
ATOM      5  C   UNL     1      33.625  -9.926 -23.321  0.00  0.00    +0.019 C 
ATOM      6  C   UNL     1      33.233 -11.329 -23.389  0.00  0.00    +0.069 C 
ATOM      7  C   UNL     1      32.812  -9.351 -22.340  0.00  0.00    +0.051 C 
ATOM      8  C   UNL     1      32.135 -11.558 -22.391  0.00  0.00    +0.251 C 
ATOM      9  C   UNL     1      33.719 -12.291 -24.176  0.00  0.00    +0.066 C 
ATOM     10  C   UNL     1      34.563  -9.166 -23.994  0.00  0.00    +0.001 C 
ATOM     11  C   UNL     1      32.899  -8.016 -21.995  0.00  0.00    +0.015 C 
ATOM     12  C   UNL     1      34.669  -7.811 -23.661  0.00  0.00    +0.000 C 
ATOM     13  C   UNL     1      33.844  -7.242 -22.671  0.00  0.00    +0.001 C 
ATOM     14  H   UNL     1      31.283 -10.119 -21.093  0.00  0.00    +0.155 HD
ENDBRANCH   1   9
BRANCH   1  16
ATOM     15  C   UNL     1      35.258 -16.939 -22.557  0.00  0.00    +0.122 C 
ATOM     16  C   UNL     1      33.983 -14.713 -23.670  0.00  0.00    +0.048 C 
ATOM     17  C   UNL     1      35.029 -15.805 -21.779  0.00  0.00    +0.021 C 
ATOM     18  C   UNL     1      34.850 -16.963 -23.891  0.00  0.00    +0.021 C 
ATOM     19  C   UNL     1      34.392 -14.694 -22.333  0.00  0.00    +0.016 C 
ATOM     20  C   UNL     1      34.215 -15.852 -24.447  0.00  0.00    +0.016 C 
BRANCH  15  21
ATOM     21  S   UNL     1      36.054 -18.329 -21.863  0.00  0.00    +0.060 S 
ATOM     22  O   UNL     1      37.273 -18.596 -22.617  0.00  0.00    -0.153 OA
ATOM     23  O   UNL     1      36.136 -18.121 -20.423  0.00  0.00    -0.153 OA
BRANCH  21  24
ATOM     24  N   UNL     1      34.935 -19.585 -22.170  0.00  0.00    -0.178 NA
ATOM     25  C   UNL     1      34.148 -20.150 -21.065  0.00  0.00    +0.110 C 
ATOM     26  H   UNL     1      35.462 -20.356 -22.580  0.00  0.00    +0.149 HD
ENDBRANCH  21  24
ENDBRANCH  15  21
ENDBRANCH   1  16
TORSDOF 4
ENDMDL
MODEL 7
REMARK VINA RESULT:      -9.6      2.578      9.423
REMARK  Name = 5288708
REMARK  4 active torsions:
REMARK  status: ('A' for Active; 'I' for Inactive)
REMARK    1  A    between atoms: N_1  and  C_9
REMARK    2  A    between atoms: N_1  and  C_16
REMARK    3  A    between atoms: C_15  and  S_21
REMARK    4  A    between atoms: S_21  and  N_24
REMARK                            x       y       z     vdW  Elec       q    Type
REMARK                         _______ _______ _______ _____ _____    ______ ____
ROOT
ATOM      1  N   UNL     1      33.604 -22.751 -18.984  0.00  0.00    -0.311 N 
ATOM      2  H   UNL     1      32.820 -23.235 -19.330  0.00  0.00    +0.152 HD
ENDROOT
BRANCH   1   9
ATOM      3  O   UNL     1      31.196 -22.719 -17.368  0.00  0.00    -0.270 OA
ATOM      4  N   UNL     1      31.682 -23.456 -15.176  0.00  0.00    -0.280 N 
ATOM      5  C   UNL     1      33.936 -23.865 -15.376  0.00  0.00    +0.019 C 
ATOM      6  C   UNL     1      33.426 -23.388 -16.658  0.00  0.00    +0.069 C 
ATOM      7  C   UNL     1      32.836 -23.887 -14.514  0.00  0.00    +0.051 C 
ATOM      8  C   UNL     1      31.955 -23.126 -16.508  0.00  0.00    +0.251 C 
ATOM      9  C   UNL     1      34.092 -23.195 -17.797  0.00  0.00    +0.066 C 
ATOM     10  C   UNL     1      35.187 -24.251 -14.934  0.00  0.00    +0.001 C 
ATOM     11  C   UNL     1      32.937 -24.289 -13.196  0.00  0.00    +0.015 C 
ATOM     12  C   UNL     1      35.313 -24.663 -13.603  0.00  0.00    +0.000 C 
ATOM     13  C   UNL     1      34.198 -24.681 -12.742  0.00  0.00    +0.001 C 
ATOM     14  H   UNL     1      30.792 -23.392 -14.759  0.00  0.00    +0.155 HD
ENDBRANCH   1   9
BRANCH   1  16
ATOM     15  C   UNL     1      34.990 -19.581 -21.365  0.00  0.00    +0.122 C 
ATOM     16  C   UNL     1      34.067 -21.691 -19.780  0.00  0.00    +0.048 C 
ATOM     17  C   UNL     1      35.898 -20.389 -20.681  0.00  0.00    +0.021 C 
ATOM     18  C   UNL     1      33.620 -19.828 -21.260  0.00  0.00    +0.021 C 
ATOM     19  C   UNL     1      35.438 -21.442 -19.890  0.00  0.00    +0.016 C 
ATOM     20  C   UNL     1      33.160 -20.880 -20.468  0.00  0.00    +0.016 C 
BRANCH  15  21
ATOM     21  S   UNL     1      35.565 -18.263 -22.355  0.00  0.00    +0.060 S 
ATOM     22  O   UNL     1      35.210 -17.004 -21.712  0.00  0.00    -0.153 OA
ATOM     23  O   UNL     1      36.960 -18.529 -22.682  0.00  0.00    -0.153 OA
BRANCH  21  24
ATOM     24  N   UNL     1      34.629 -18.434 -23.776  0.00  0.00    -0.178 NA
ATOM     25  C   UNL     1      34.617 -17.358 -24.777  0.00  0.00    +0.110 C 
ATOM     26  H   UNL     1      33.664 -18.571 -23.479  0.00  0.00    +0.149 HD
ENDBRANCH  21  24
ENDBRANCH  15  21
ENDBRANCH   1  16
TORSDOF 4
ENDMDL
MODEL 8
REMARK VINA RESULT:      -9.6      5.979     10.108
REMARK  Name = 5288708
REMARK  4 active torsions:
REMARK  status: ('A' for Active; 'I' for Inactive)
REMARK    1  A    between atoms: N_1  and  C_9
REMARK    2  A    between atoms: N_1  and  C_16
REMARK    3  A    between atoms: C_15  and  S_21
REMARK    4  A    between atoms: S_21  and  N_24
REMARK                            x       y       z     vdW  Elec       q    Type
REMARK                         _______ _______ _______ _____ _____    ______ ____
ROOT
ATOM      1  N   UNL     1      33.710 -13.415 -24.370  0.00  0.00    -0.311 N 
ATOM      2  H   UNL     1      33.306 -13.669 -25.231  0.00  0.00    +0.152 HD
ENDROOT
BRANCH   1   9
ATOM      3  O   UNL     1      33.300 -15.639 -26.185  0.00  0.00    -0.270 OA
ATOM      4  N   UNL     1      34.087 -17.639 -25.203  0.00  0.00    -0.280 N 
ATOM      5  C   UNL     1      34.834 -16.834 -23.184  0.00  0.00    +0.019 C 
ATOM      6  C   UNL     1      34.296 -15.725 -23.965  0.00  0.00    +0.069 C 
ATOM      7  C   UNL     1      34.683 -17.971 -23.982  0.00  0.00    +0.051 C 
ATOM      8  C   UNL     1      33.812 -16.270 -25.278  0.00  0.00    +0.251 C 
ATOM      9  C   UNL     1      34.214 -14.436 -23.632  0.00  0.00    +0.066 C 
ATOM     10  C   UNL     1      35.403 -16.924 -21.927  0.00  0.00    +0.001 C 
ATOM     11  C   UNL     1      35.086 -19.226 -23.567  0.00  0.00    +0.015 C 
ATOM     12  C   UNL     1      35.820 -18.185 -21.487  0.00  0.00    +0.000 C 
ATOM     13  C   UNL     1      35.662 -19.325 -22.299  0.00  0.00    +0.001 C 
ATOM     14  H   UNL     1      33.886 -18.286 -25.918  0.00  0.00    +0.155 HD
ENDBRANCH   1   9
BRANCH   1  16
ATOM     15  C   UNL     1      33.640  -9.313 -23.466  0.00  0.00    +0.122 C 
ATOM     16  C   UNL     1      33.687 -12.043 -24.068  0.00  0.00    +0.048 C 
ATOM     17  C   UNL     1      32.731 -10.178 -22.856  0.00  0.00    +0.021 C 
ATOM     18  C   UNL     1      34.573  -9.811 -24.376  0.00  0.00    +0.021 C 
ATOM     19  C   UNL     1      32.755 -11.541 -23.156  0.00  0.00    +0.016 C 
ATOM     20  C   UNL     1      34.596 -11.173 -24.677  0.00  0.00    +0.016 C 
BRANCH  15  21
ATOM     21  S   UNL     1      33.611  -7.609 -23.091  0.00  0.00    +0.060 S 
ATOM     22  O   UNL     1      34.949  -7.063 -23.282  0.00  0.00    -0.153 OA
ATOM     23  O   UNL     1      32.489  -7.016 -23.807  0.00  0.00    -0.153 OA
BRANCH  21  24
ATOM     24  N   UNL     1      33.252  -7.606 -21.419  0.00  0.00    -0.178 NA
ATOM     25  C   UNL     1      32.146  -6.783 -20.910  0.00  0.00    +0.110 C 
ATOM     26  H   UNL     1      34.096  -7.295 -20.937  0.00  0.00    +0.149 HD
ENDBRANCH  21  24
ENDBRANCH  15  21
ENDBRANCH   1  16
TORSDOF 4
ENDMDL
MODEL 9
REMARK VINA RESULT:      -9.6      3.730      8.670
REMARK  Name = 5288708
REMARK  4 active torsions:
REMARK  status: ('A' for Active; 'I' for Inactive)
REMARK    1  A    between atoms: N_1  and  C_9
REMARK    2  A    between atoms: N_1  and  C_16
REMARK    3  A    between atoms: C_15  and  S_21
REMARK    4  A    between atoms: S_21  and  N_24
REMARK                            x       y       z     vdW  Elec       q    Type
REMARK                         _______ _______ _______ _____ _____    ______ ____
ROOT
ATOM      1  N   UNL     1      35.445 -18.246 -22.970  0.00  0.00    -0.311 N 
ATOM      2  H   UNL     1      36.303 -18.500 -23.380  0.00  0.00    +0.152 HD
ENDROOT
BRANCH   1   9
ATOM      3  O   UNL     1      37.741 -18.952 -21.345  0.00  0.00    -0.270 OA
ATOM      4  N   UNL     1      37.131 -20.581 -19.746  0.00  0.00    -0.280 N 
ATOM      5  C   UNL     1      34.906 -20.846 -20.266  0.00  0.00    +0.019 C 
ATOM      6  C   UNL     1      35.486 -19.852 -21.162  0.00  0.00    +0.069 C 
ATOM      7  C   UNL     1      35.947 -21.255 -19.427  0.00  0.00    +0.051 C 
ATOM      8  C   UNL     1      36.937 -19.693 -20.810  0.00  0.00    +0.251 C 
ATOM      9  C   UNL     1      34.892 -19.170 -22.143  0.00  0.00    +0.066 C 
ATOM     10  C   UNL     1      33.640 -21.383 -20.132  0.00  0.00    +0.001 C 
ATOM     11  C   UNL     1      35.771 -22.202 -18.436  0.00  0.00    +0.015 C 
ATOM     12  C   UNL     1      33.438 -22.343 -19.134  0.00  0.00    +0.000 C 
ATOM     13  C   UNL     1      34.494 -22.749 -18.295  0.00  0.00    +0.001 C 
ATOM     14  H   UNL     1      37.989 -20.715 -19.283  0.00  0.00    +0.155 HD
ENDBRANCH   1   9
BRANCH   1  16
ATOM     15  C   UNL     1      33.976 -14.452 -24.012  0.00  0.00    +0.122 C 
ATOM     16  C   UNL     1      34.954 -16.978 -23.319  0.00  0.00    +0.048 C 
ATOM     17  C   UNL     1      34.547 -14.658 -22.757  0.00  0.00    +0.021 C 
ATOM     18  C   UNL     1      33.894 -15.506 -24.923  0.00  0.00    +0.021 C 
ATOM     19  C   UNL     1      35.035 -15.918 -22.410  0.00  0.00    +0.016 C 
ATOM     20  C   UNL     1      34.381 -16.767 -24.576  0.00  0.00    +0.016 C 
BRANCH  15  21
ATOM     21  S   UNL     1      33.365 -12.875 -24.446  0.00  0.00    +0.060 S 
ATOM     22  O   UNL     1      33.078 -12.860 -25.875  0.00  0.00    -0.153 OA
ATOM     23  O   UNL     1      32.308 -12.534 -23.502  0.00  0.00    -0.153 OA
BRANCH  21  24
ATOM     24  N   UNL     1      34.711 -11.864 -24.148  0.00  0.00    -0.178 NA
ATOM     25  C   UNL     1      34.982 -10.726 -25.038  0.00  0.00    +0.110 C 
ATOM     26  H   UNL     1      35.538 -12.459 -24.170  0.00  0.00    +0.149 HD
ENDBRANCH  21  24
ENDBRANCH  15  21
ENDBRANCH   1  16
TORSDOF 4
ENDMDL
