MODEL 1
REMARK VINA RESULT:     -11.7      0.000      0.000
REMARK  Name = 24755471
REMARK  13 active torsions:
REMARK  status: ('A' for Active; 'I' for Inactive)
REMARK    1  A    between atoms: C_1  and  S_11
REMARK    2  A    between atoms: C_9  and  O_27
REMARK    3  A    between atoms: S_11  and  N_14
REMARK    4  A    between atoms: N_14  and  C_16
REMARK    5  A    between atoms: C_16  and  C_18
REMARK    6  A    between atoms: C_16  and  C_21
REMARK    7  A    between atoms: C_18  and  O_19
REMARK    8  A    between atoms: C_21  and  C_22
REMARK    9  A    between atoms: C_22  and  C_24
REMARK   10  A    between atoms: C_24  and  O_25
REMARK   11  A    between atoms: O_27  and  C_28
REMARK   12  A    between atoms: C_28  and  C_29
REMARK   13  A    between atoms: C_34  and  C_36
REMARK                            x       y       z     vdW  Elec       q    Type
REMARK                         _______ _______ _______ _____ _____    ______ ____
ROOT
ATOM      1  C   UNL     1      33.633 -23.793 -15.333  0.00  0.00    +0.122 C 
ATOM      2  C   UNL     1      35.049 -22.763 -17.023  0.00  0.00    +0.002 C 
ATOM      3  C   UNL     1      34.885 -23.342 -15.754  0.00  0.00    +0.020 C 
ATOM      4  C   UNL     1      33.928 -22.640 -17.878  0.00  0.00    +0.003 C 
ATOM      5  C   UNL     1      32.531 -23.670 -16.173  0.00  0.00    +0.020 C 
ATOM      6  C   UNL     1      32.675 -23.098 -17.437  0.00  0.00    +0.001 C 
ATOM      7  C   UNL     1      34.091 -22.061 -19.146  0.00  0.00    +0.037 C 
ATOM      8  C   UNL     1      36.302 -22.304 -17.463  0.00  0.00    +0.003 C 
ATOM      9  C   UNL     1      35.343 -21.610 -19.567  0.00  0.00    +0.139 C 
ATOM     10  C   UNL     1      36.446 -21.731 -18.727  0.00  0.00    +0.037 C 
ENDROOT
BRANCH   1  11
ATOM     11  S   UNL     1      33.449 -24.518 -13.731  0.00  0.00    +0.061 S 
ATOM     12  O   UNL     1      33.124 -23.459 -12.796  0.00  0.00    -0.153 OA
ATOM     13  O   UNL     1      32.563 -25.656 -13.883  0.00  0.00    -0.153 OA
BRANCH  11  14
ATOM     14  N   UNL     1      35.023 -25.083 -13.421  0.00  0.00    -0.170 NA
ATOM     15  H   UNL     1      35.445 -25.288 -14.326  0.00  0.00    +0.149 HD
BRANCH  14  16
ATOM     16  C   UNL     1      35.981 -24.229 -12.685  0.00  0.00    +0.174 C 
BRANCH  16  18
ATOM     17  O   UNL     1      35.223 -25.496 -10.751  0.00  0.00    -0.249 OA
ATOM     18  C   UNL     1      35.979 -24.664 -11.238  0.00  0.00    +0.330 C 
BRANCH  18  19
ATOM     19  O   UNL     1      36.942 -24.037 -10.514  0.00  0.00    -0.479 OA
ATOM     20  H   UNL     1      36.710 -23.346  -9.926  0.00  0.00    +0.295 HD
ENDBRANCH  18  19
ENDBRANCH  16  18
BRANCH  16  21
ATOM     21  C   UNL     1      37.357 -24.264 -13.360  0.00  0.00    +0.040 C 
BRANCH  21  22
ATOM     22  C   UNL     1      38.122 -25.588 -13.278  0.00  0.00    +0.111 C 
BRANCH  22  24
ATOM     23  O   UNL     1      39.023 -27.206 -14.829  0.00  0.00    -0.250 OA
ATOM     24  C   UNL     1      38.204 -26.329 -14.589  0.00  0.00    +0.314 C 
BRANCH  24  25
ATOM     25  O   UNL     1      37.279 -25.907 -15.488  0.00  0.00    -0.480 OA
ATOM     26  H   UNL     1      37.554 -25.510 -16.291  0.00  0.00    +0.295 HD
ENDBRANCH  24  25
ENDBRANCH  22  24
ENDBRANCH  21  22
ENDBRANCH  16  21
ENDBRANCH  14  16
ENDBRANCH  11  14
ENDBRANCH   1  11
BRANCH   9  27
ATOM     27  O   UNL     1      35.485 -21.053 -20.801  0.00  0.00    -0.471 OA
BRANCH  27  28
ATOM     28  C   UNL     1      36.087 -19.761 -20.864  0.00  0.00    +0.232 C 
BRANCH  28  29
ATOM     29  C   UNL     1      35.549 -19.028 -22.058  0.00  0.00    +0.021 C 
ATOM     30  C   UNL     1      35.692 -17.643 -22.148  0.00  0.00    -0.000 C 
ATOM     31  C   UNL     1      34.905 -19.730 -23.076  0.00  0.00    -0.000 C 
ATOM     32  C   UNL     1      35.192 -16.962 -23.256  0.00  0.00    +0.010 C 
ATOM     33  C   UNL     1      34.404 -19.049 -24.185  0.00  0.00    +0.010 C 
ATOM     34  C   UNL     1      34.547 -17.664 -24.275  0.00  0.00    +0.068 C 
BRANCH  34  36
ATOM     35  N   UNL     1      33.619 -16.397 -26.334  0.00  0.00    -0.191 NA
ATOM     36  C   UNL     1      34.035 -16.965 -25.412  0.00  0.00    +0.100 C 
ENDBRANCH  34  36
ENDBRANCH  28  29
ENDBRANCH  27  28
ENDBRANCH   9  27
TORSDOF 13
ENDMDL
MODEL 2
REMARK VINA RESULT:     -11.7      1.391      2.325
REMARK  Name = 24755471
REMARK  13 active torsions:
REMARK  status: ('A' for Active; 'I' for Inactive)
REMARK    1  A    between atoms: C_1  and  S_11
REMARK    2  A    between atoms: C_9  and  O_27
REMARK    3  A    between atoms: S_11  and  N_14
REMARK    4  A    between atoms: N_14  and  C_16
REMARK    5  A    between atoms: C_16  and  C_18
REMARK    6  A    between atoms: C_16  and  C_21
REMARK    7  A    between atoms: C_18  and  O_19
REMARK    8  A    between atoms: C_21  and  C_22
REMARK    9  A    between atoms: C_22  and  C_24
REMARK   10  A    between atoms: C_24  and  O_25
REMARK   11  A    between atoms: O_27  and  C_28
REMARK   12  A    between atoms: C_28  and  C_29
REMARK   13  A    between atoms: C_34  and  C_36
REMARK                            x       y       z     vdW  Elec       q    Type
REMARK                         _______ _______ _______ _____ _____    ______ ____
ROOT
ATOM      1  C   UNL     1      35.944 -23.444 -15.640  0.00  0.00    +0.122 C 
ATOM      2  C   UNL     1      34.823 -22.660 -17.652  0.00  0.00    +0.002 C 
ATOM      3  C   UNL     1      34.795 -23.342 -16.425  0.00  0.00    +0.020 C 
ATOM      4  C   UNL     1      36.034 -22.073 -18.090  0.00  0.00    +0.003 C 
ATOM      5  C   UNL     1      37.135 -22.867 -16.071  0.00  0.00    +0.020 C 
ATOM      6  C   UNL     1      37.181 -22.186 -17.288  0.00  0.00    +0.001 C 
ATOM      7  C   UNL     1      36.062 -21.391 -19.317  0.00  0.00    +0.037 C 
ATOM      8  C   UNL     1      33.675 -22.548 -18.455  0.00  0.00    +0.003 C 
ATOM      9  C   UNL     1      34.913 -21.290 -20.102  0.00  0.00    +0.139 C 
ATOM     10  C   UNL     1      33.722 -21.867 -19.672  0.00  0.00    +0.037 C 
ENDROOT
BRANCH   1  11
ATOM     11  S   UNL     1      35.887 -24.307 -14.098  0.00  0.00    +0.061 S 
ATOM     12  O   UNL     1      34.674 -23.910 -13.409  0.00  0.00    -0.153 OA
ATOM     13  O   UNL     1      36.138 -25.705 -14.387  0.00  0.00    -0.153 OA
BRANCH  11  14
ATOM     14  N   UNL     1      37.234 -23.662 -13.286  0.00  0.00    -0.170 NA
ATOM     15  H   UNL     1      36.906 -22.843 -12.776  0.00  0.00    +0.149 HD
BRANCH  14  16
ATOM     16  C   UNL     1      37.984 -24.496 -12.322  0.00  0.00    +0.174 C 
BRANCH  16  18
ATOM     17  O   UNL     1      36.609 -24.376 -10.319  0.00  0.00    -0.249 OA
ATOM     18  C   UNL     1      37.008 -25.009 -11.289  0.00  0.00    +0.330 C 
BRANCH  18  19
ATOM     19  O   UNL     1      36.589 -26.271 -11.563  0.00  0.00    -0.479 OA
ATOM     20  H   UNL     1      35.720 -26.536 -11.335  0.00  0.00    +0.295 HD
ENDBRANCH  18  19
ENDBRANCH  16  18
BRANCH  16  21
ATOM     21  C   UNL     1      38.768 -25.590 -13.057  0.00  0.00    +0.040 C 
BRANCH  21  22
ATOM     22  C   UNL     1      39.690 -25.124 -14.188  0.00  0.00    +0.111 C 
BRANCH  22  24
ATOM     23  O   UNL     1      41.232 -26.977 -14.039  0.00  0.00    -0.250 OA
ATOM     24  C   UNL     1      40.580 -26.210 -14.736  0.00  0.00    +0.314 C 
BRANCH  24  25
ATOM     25  O   UNL     1      40.597 -26.240 -16.093  0.00  0.00    -0.480 OA
ATOM     26  H   UNL     1      41.368 -25.979 -16.557  0.00  0.00    +0.295 HD
ENDBRANCH  24  25
ENDBRANCH  22  24
ENDBRANCH  21  22
ENDBRANCH  16  21
ENDBRANCH  14  16
ENDBRANCH  11  14
ENDBRANCH   1  11
BRANCH   9  27
ATOM     27  O   UNL     1      34.956 -20.624 -21.288  0.00  0.00    -0.471 OA
BRANCH  27  28
ATOM     28  C   UNL     1      35.682 -19.396 -21.318  0.00  0.00    +0.232 C 
BRANCH  28  29
ATOM     29  C   UNL     1      35.233 -18.589 -22.500  0.00  0.00    +0.021 C 
ATOM     30  C   UNL     1      34.630 -19.222 -23.587  0.00  0.00    -0.000 C 
ATOM     31  C   UNL     1      35.419 -17.207 -22.513  0.00  0.00    -0.000 C 
ATOM     32  C   UNL     1      34.212 -18.472 -24.686  0.00  0.00    +0.010 C 
ATOM     33  C   UNL     1      35.002 -16.457 -23.612  0.00  0.00    +0.010 C 
ATOM     34  C   UNL     1      34.399 -17.090 -24.699  0.00  0.00    +0.068 C 
BRANCH  34  36
ATOM     35  N   UNL     1      33.622 -15.698 -26.741  0.00  0.00    -0.191 NA
ATOM     36  C   UNL     1      33.971 -16.321 -25.826  0.00  0.00    +0.100 C 
ENDBRANCH  34  36
ENDBRANCH  28  29
ENDBRANCH  27  28
ENDBRANCH   9  27
TORSDOF 13
ENDMDL
MODEL 3
REMARK VINA RESULT:     -11.6      1.720      3.418
REMARK  Name = 24755471
REMARK  13 active torsions:
REMARK  status: ('A' for Active; 'I' for Inactive)
REMARK    1  A    between atoms: C_1  and  S_11
REMARK    2  A    between atoms: C_9  and  O_27
REMARK    3  A    between atoms: S_11  and  N_14
REMARK    4  A    between atoms: N_14  and  C_16
REMARK    5  A    between atoms: C_16  and  C_18
REMARK    6  A    between atoms: C_16  and  C_21
REMARK    7  A    between atoms: C_18  and  O_19
REMARK    8  A    between atoms: C_21  and  C_22
REMARK    9  A    between atoms: C_22  and  C_24
REMARK   10  A    between atoms: C_24  and  O_25
REMARK   11  A    between atoms: O_27  and  C_28
REMARK   12  A    between atoms: C_28  and  C_29
REMARK   13  A    between atoms: C_34  and  C_36
REMARK                            x       y       z     vdW  Elec       q    Type
REMARK                         _______ _______ _______ _____ _____    ______ ____
ROOT
ATOM      1  C   UNL     1      35.555 -23.348 -16.477  0.00  0.00    +0.122 C 
ATOM      2  C   UNL     1      34.477 -22.287 -18.383  0.00  0.00    +0.002 C 
ATOM      3  C   UNL     1      34.416 -23.109 -17.246  0.00  0.00    +0.020 C 
ATOM      4  C   UNL     1      35.712 -21.698 -18.745  0.00  0.00    +0.003 C 
ATOM      5  C   UNL     1      36.770 -22.769 -16.834  0.00  0.00    +0.020 C 
ATOM      6  C   UNL     1      36.850 -21.950 -17.960  0.00  0.00    +0.001 C 
ATOM      7  C   UNL     1      35.774 -20.876 -19.882  0.00  0.00    +0.037 C 
ATOM      8  C   UNL     1      33.340 -22.036 -19.169  0.00  0.00    +0.003 C 
ATOM      9  C   UNL     1      34.634 -20.638 -20.651  0.00  0.00    +0.139 C 
ATOM     10  C   UNL     1      33.420 -21.217 -20.295  0.00  0.00    +0.037 C 
ENDROOT
BRANCH   1  11
ATOM     11  S   UNL     1      35.456 -24.386 -15.049  0.00  0.00    +0.061 S 
ATOM     12  O   UNL     1      34.358 -23.912 -14.229  0.00  0.00    -0.153 OA
ATOM     13  O   UNL     1      35.476 -25.756 -15.522  0.00  0.00    -0.153 OA
BRANCH  11  14
ATOM     14  N   UNL     1      36.929 -24.050 -14.270  0.00  0.00    -0.170 NA
ATOM     15  H   UNL     1      36.730 -23.353 -13.553  0.00  0.00    +0.149 HD
BRANCH  14  16
ATOM     16  C   UNL     1      37.680 -25.140 -13.610  0.00  0.00    +0.174 C 
BRANCH  16  18
ATOM     17  O   UNL     1      39.138 -26.767 -14.680  0.00  0.00    -0.249 OA
ATOM     18  C   UNL     1      38.755 -25.609 -14.562  0.00  0.00    +0.330 C 
BRANCH  18  19
ATOM     19  O   UNL     1      39.256 -24.593 -15.310  0.00  0.00    -0.479 OA
ATOM     20  H   UNL     1      40.162 -24.587 -15.547  0.00  0.00    +0.295 HD
ENDBRANCH  18  19
ENDBRANCH  16  18
BRANCH  16  21
ATOM     21  C   UNL     1      38.196 -24.683 -12.241  0.00  0.00    +0.040 C 
BRANCH  21  22
ATOM     22  C   UNL     1      37.426 -23.542 -11.570  0.00  0.00    +0.111 C 
BRANCH  22  24
ATOM     23  O   UNL     1      36.192 -24.483  -9.719  0.00  0.00    -0.250 OA
ATOM     24  C   UNL     1      36.185 -23.989 -10.839  0.00  0.00    +0.314 C 
BRANCH  24  25
ATOM     25  O   UNL     1      35.053 -23.803 -11.564  0.00  0.00    -0.480 OA
ATOM     26  H   UNL     1      34.678 -24.520 -12.037  0.00  0.00    +0.295 HD
ENDBRANCH  24  25
ENDBRANCH  22  24
ENDBRANCH  21  22
ENDBRANCH  16  21
ENDBRANCH  14  16
ENDBRANCH  11  14
ENDBRANCH   1  11
BRANCH   9  27
ATOM     27  O   UNL     1      34.710 -19.837 -21.749  0.00  0.00    -0.471 OA
BRANCH  27  28
ATOM     28  C   UNL     1      35.844 -18.977 -21.849  0.00  0.00    +0.232 C 
BRANCH  28  29
ATOM     29  C   UNL     1      35.383 -17.599 -22.219  0.00  0.00    +0.021 C 
ATOM     30  C   UNL     1      35.137 -17.281 -23.554  0.00  0.00    -0.000 C 
ATOM     31  C   UNL     1      35.202 -16.634 -21.228  0.00  0.00    -0.000 C 
ATOM     32  C   UNL     1      34.709 -16.000 -23.899  0.00  0.00    +0.010 C 
ATOM     33  C   UNL     1      34.774 -15.352 -21.572  0.00  0.00    +0.010 C 
ATOM     34  C   UNL     1      34.527 -15.035 -22.908  0.00  0.00    +0.068 C 
BRANCH  34  36
ATOM     35  N   UNL     1      33.731 -12.655 -23.548  0.00  0.00    -0.191 NA
ATOM     36  C   UNL     1      34.088 -13.721 -23.261  0.00  0.00    +0.100 C 
ENDBRANCH  34  36
ENDBRANCH  28  29
ENDBRANCH  27  28
ENDBRANCH   9  27
TORSDOF 13
ENDMDL
MODEL 4
REMARK VINA RESULT:     -11.6      1.341      2.827
REMARK  Name = 24755471
REMARK  13 active torsions:
REMARK  status: ('A' for Active; 'I' for Inactive)
REMARK    1  A    between atoms: C_1  and  S_11
REMARK    2  A    between atoms: C_9  and  O_27
REMARK    3  A    between atoms: S_11  and  N_14
REMARK    4  A    between atoms: N_14  and  C_16
REMARK    5  A    between atoms: C_16  and  C_18
REMARK    6  A    between atoms: C_16  and  C_21
REMARK    7  A    between atoms: C_18  and  O_19
REMARK    8  A    between atoms: C_21  and  C_22
REMARK    9  A    between atoms: C_22  and  C_24
REMARK   10  A    between atoms: C_24  and  O_25
REMARK   11  A    between atoms: O_27  and  C_28
REMARK   12  A    between atoms: C_28  and  C_29
REMARK   13  A    between atoms: C_34  and  C_36
REMARK                            x       y       z     vdW  Elec       q    Type
REMARK                         _______ _______ _______ _____ _____    ______ ____
ROOT
ATOM      1  C   UNL     1      34.599 -23.706 -16.553  0.00  0.00    +0.122 C 
ATOM      2  C   UNL     1      35.263 -22.276 -18.406  0.00  0.00    +0.002 C 
ATOM      3  C   UNL     1      35.594 -23.066 -17.294  0.00  0.00    +0.020 C 
ATOM      4  C   UNL     1      33.904 -22.132 -18.773  0.00  0.00    +0.003 C 
ATOM      5  C   UNL     1      33.263 -23.564 -16.914  0.00  0.00    +0.020 C 
ATOM      6  C   UNL     1      32.915 -22.782 -18.016  0.00  0.00    +0.001 C 
ATOM      7  C   UNL     1      33.573 -21.341 -19.885  0.00  0.00    +0.037 C 
ATOM      8  C   UNL     1      36.252 -21.624 -19.163  0.00  0.00    +0.003 C 
ATOM      9  C   UNL     1      34.568 -20.702 -20.626  0.00  0.00    +0.139 C 
ATOM     10  C   UNL     1      35.904 -20.843 -20.265  0.00  0.00    +0.037 C 
ENDROOT
BRANCH   1  11
ATOM     11  S   UNL     1      35.038 -24.696 -15.156  0.00  0.00    +0.061 S 
ATOM     12  O   UNL     1      34.073 -24.438 -14.105  0.00  0.00    -0.153 OA
ATOM     13  O   UNL     1      35.242 -26.047 -15.644  0.00  0.00    -0.153 OA
BRANCH  11  14
ATOM     14  N   UNL     1      36.542 -24.036 -14.717  0.00  0.00    -0.170 NA
ATOM     15  H   UNL     1      36.347 -23.165 -14.224  0.00  0.00    +0.149 HD
BRANCH  14  16
ATOM     16  C   UNL     1      37.469 -24.813 -13.866  0.00  0.00    +0.174 C 
BRANCH  16  18
ATOM     17  O   UNL     1      39.724 -24.619 -14.757  0.00  0.00    -0.249 OA
ATOM     18  C   UNL     1      38.654 -25.214 -14.711  0.00  0.00    +0.330 C 
BRANCH  18  19
ATOM     19  O   UNL     1      38.416 -26.346 -15.422  0.00  0.00    -0.479 OA
ATOM     20  H   UNL     1      38.457 -26.330 -16.357  0.00  0.00    +0.295 HD
ENDBRANCH  18  19
ENDBRANCH  16  18
BRANCH  16  21
ATOM     21  C   UNL     1      37.825 -24.021 -12.602  0.00  0.00    +0.040 C 
BRANCH  21  22
ATOM     22  C   UNL     1      36.652 -23.427 -11.818  0.00  0.00    +0.111 C 
BRANCH  22  24
ATOM     23  O   UNL     1      36.272 -24.508  -9.691  0.00  0.00    -0.250 OA
ATOM     24  C   UNL     1      35.989 -24.402 -10.878  0.00  0.00    +0.314 C 
BRANCH  24  25
ATOM     25  O   UNL     1      35.052 -25.169 -11.491  0.00  0.00    -0.480 OA
ATOM     26  H   UNL     1      35.227 -26.074 -11.662  0.00  0.00    +0.295 HD
ENDBRANCH  24  25
ENDBRANCH  22  24
ENDBRANCH  21  22
ENDBRANCH  16  21
ENDBRANCH  14  16
ENDBRANCH  11  14
ENDBRANCH   1  11
BRANCH   9  27
ATOM     27  O   UNL     1      34.231 -19.941 -21.703  0.00  0.00    -0.471 OA
BRANCH  27  28
ATOM     28  C   UNL     1      35.279 -19.590 -22.604  0.00  0.00    +0.232 C 
BRANCH  28  29
ATOM     29  C   UNL     1      34.831 -18.437 -23.454  0.00  0.00    +0.021 C 
ATOM     30  C   UNL     1      35.116 -17.130 -23.061  0.00  0.00    -0.000 C 
ATOM     31  C   UNL     1      34.127 -18.673 -24.635  0.00  0.00    -0.000 C 
ATOM     32  C   UNL     1      34.699 -16.059 -23.850  0.00  0.00    +0.010 C 
ATOM     33  C   UNL     1      33.710 -17.602 -25.424  0.00  0.00    +0.010 C 
ATOM     34  C   UNL     1      33.995 -16.295 -25.031  0.00  0.00    +0.068 C 
BRANCH  34  36
ATOM     35  N   UNL     1      33.221 -14.304 -26.496  0.00  0.00    -0.191 NA
ATOM     36  C   UNL     1      33.568 -15.196 -25.840  0.00  0.00    +0.100 C 
ENDBRANCH  34  36
ENDBRANCH  28  29
ENDBRANCH  27  28
ENDBRANCH   9  27
TORSDOF 13
ENDMDL
MODEL 5
REMARK VINA RESULT:     -10.8      1.918      3.602
REMARK  Name = 24755471
REMARK  13 active torsions:
REMARK  status: ('A' for Active; 'I' for Inactive)
REMARK    1  A    between atoms: C_1  and  S_11
REMARK    2  A    between atoms: C_9  and  O_27
REMARK    3  A    between atoms: S_11  and  N_14
REMARK    4  A    between atoms: N_14  and  C_16
REMARK    5  A    between atoms: C_16  and  C_18
REMARK    6  A    between atoms: C_16  and  C_21
REMARK    7  A    between atoms: C_18  and  O_19
REMARK    8  A    between atoms: C_21  and  C_22
REMARK    9  A    between atoms: C_22  and  C_24
REMARK   10  A    between atoms: C_24  and  O_25
REMARK   11  A    between atoms: O_27  and  C_28
REMARK   12  A    between atoms: C_28  and  C_29
REMARK   13  A    between atoms: C_34  and  C_36
REMARK                            x       y       z     vdW  Elec       q    Type
REMARK                         _______ _______ _______ _____ _____    ______ ____
ROOT
ATOM      1  C   UNL     1      35.373 -23.125 -16.967  0.00  0.00    +0.122 C 
ATOM      2  C   UNL     1      35.690 -21.706 -18.918  0.00  0.00    +0.002 C 
ATOM      3  C   UNL     1      36.207 -22.372 -17.795  0.00  0.00    +0.020 C 
ATOM      4  C   UNL     1      34.308 -21.806 -19.207  0.00  0.00    +0.003 C 
ATOM      5  C   UNL     1      34.014 -23.222 -17.250  0.00  0.00    +0.020 C 
ATOM      6  C   UNL     1      33.483 -22.567 -18.362  0.00  0.00    +0.001 C 
ATOM      7  C   UNL     1      33.791 -21.140 -20.330  0.00  0.00    +0.037 C 
ATOM      8  C   UNL     1      36.515 -20.944 -19.763  0.00  0.00    +0.003 C 
ATOM      9  C   UNL     1      34.625 -20.387 -21.157  0.00  0.00    +0.139 C 
ATOM     10  C   UNL     1      35.984 -20.289 -20.874  0.00  0.00    +0.037 C 
ENDROOT
BRANCH   1  11
ATOM     11  S   UNL     1      36.044 -23.955 -15.558  0.00  0.00    +0.061 S 
ATOM     12  O   UNL     1      35.812 -25.377 -15.725  0.00  0.00    -0.153 OA
ATOM     13  O   UNL     1      37.392 -23.452 -15.374  0.00  0.00    -0.153 OA
BRANCH  11  14
ATOM     14  N   UNL     1      35.060 -23.366 -14.303  0.00  0.00    -0.170 NA
ATOM     15  H   UNL     1      34.294 -22.857 -14.745  0.00  0.00    +0.149 HD
BRANCH  14  16
ATOM     16  C   UNL     1      34.449 -24.308 -13.340  0.00  0.00    +0.174 C 
BRANCH  16  18
ATOM     17  O   UNL     1      36.088 -23.419 -11.778  0.00  0.00    -0.249 OA
ATOM     18  C   UNL     1      35.277 -24.286 -12.077  0.00  0.00    +0.330 C 
BRANCH  18  19
ATOM     19  O   UNL     1      35.009 -25.346 -11.272  0.00  0.00    -0.479 OA
ATOM     20  H   UNL     1      35.689 -25.722 -10.750  0.00  0.00    +0.295 HD
ENDBRANCH  18  19
ENDBRANCH  16  18
BRANCH  16  21
ATOM     21  C   UNL     1      32.966 -23.979 -13.137  0.00  0.00    +0.040 C 
BRANCH  21  22
ATOM     22  C   UNL     1      32.030 -24.301 -14.306  0.00  0.00    +0.111 C 
BRANCH  22  24
ATOM     23  O   UNL     1      30.406 -26.028 -14.766  0.00  0.00    -0.250 OA
ATOM     24  C   UNL     1      30.931 -25.272 -13.959  0.00  0.00    +0.314 C 
BRANCH  24  25
ATOM     25  O   UNL     1      30.568 -25.210 -12.652  0.00  0.00    -0.480 OA
ATOM     26  H   UNL     1      30.040 -24.499 -12.347  0.00  0.00    +0.295 HD
ENDBRANCH  24  25
ENDBRANCH  22  24
ENDBRANCH  21  22
ENDBRANCH  16  21
ENDBRANCH  14  16
ENDBRANCH  11  14
ENDBRANCH   1  11
BRANCH   9  27
ATOM     27  O   UNL     1      34.108 -19.750 -22.243  0.00  0.00    -0.471 OA
BRANCH  27  28
ATOM     28  C   UNL     1      35.006 -19.458 -23.313  0.00  0.00    +0.232 C 
BRANCH  28  29
ATOM     29  C   UNL     1      34.584 -18.178 -23.972  0.00  0.00    +0.021 C 
ATOM     30  C   UNL     1      34.919 -16.953 -23.396  0.00  0.00    -0.000 C 
ATOM     31  C   UNL     1      33.855 -18.214 -25.161  0.00  0.00    -0.000 C 
ATOM     32  C   UNL     1      34.525 -15.764 -24.009  0.00  0.00    +0.010 C 
ATOM     33  C   UNL     1      33.461 -17.025 -25.774  0.00  0.00    +0.010 C 
ATOM     34  C   UNL     1      33.796 -15.799 -25.197  0.00  0.00    +0.068 C 
BRANCH  34  36
ATOM     35  N   UNL     1      33.067 -13.590 -26.335  0.00  0.00    -0.191 NA
ATOM     36  C   UNL     1      33.394 -14.580 -25.825  0.00  0.00    +0.100 C 
ENDBRANCH  34  36
ENDBRANCH  28  29
ENDBRANCH  27  28
ENDBRANCH   9  27
TORSDOF 13
ENDMDL
MODEL 6
REMARK VINA RESULT:     -10.8      2.809      4.761
REMARK  Name = 24755471
REMARK  13 active torsions:
REMARK  status: ('A' for Active; 'I' for Inactive)
REMARK    1  A    between atoms: C_1  and  S_11
REMARK    2  A    between atoms: C_9  and  O_27
REMARK    3  A    between atoms: S_11  and  N_14
REMARK    4  A    between atoms: N_14  and  C_16
REMARK    5  A    between atoms: C_16  and  C_18
REMARK    6  A    between atoms: C_16  and  C_21
REMARK    7  A    between atoms: C_18  and  O_19
REMARK    8  A    between atoms: C_21  and  C_22
REMARK    9  A    between atoms: C_22  and  C_24
REMARK   10  A    between atoms: C_24  and  O_25
REMARK   11  A    between atoms: O_27  and  C_28
REMARK   12  A    between atoms: C_28  and  C_29
REMARK   13  A    between atoms: C_34  and  C_36
REMARK                            x       y       z     vdW  Elec       q    Type
REMARK                         _______ _______ _______ _____ _____    ______ ____
ROOT
ATOM      1  C   UNL     1      34.569 -22.840 -17.386  0.00  0.00    +0.122 C 
ATOM      2  C   UNL     1      35.397 -21.519 -19.255  0.00  0.00    +0.002 C 
ATOM      3  C   UNL     1      35.627 -22.244 -18.075  0.00  0.00    +0.020 C 
ATOM      4  C   UNL     1      34.075 -21.396 -19.745  0.00  0.00    +0.003 C 
ATOM      5  C   UNL     1      33.270 -22.719 -17.868  0.00  0.00    +0.020 C 
ATOM      6  C   UNL     1      33.022 -22.002 -19.039  0.00  0.00    +0.001 C 
ATOM      7  C   UNL     1      33.844 -20.671 -20.925  0.00  0.00    +0.037 C 
ATOM      8  C   UNL     1      36.450 -20.912 -19.960  0.00  0.00    +0.003 C 
ATOM      9  C   UNL     1      34.902 -20.075 -21.612  0.00  0.00    +0.139 C 
ATOM     10  C   UNL     1      36.202 -20.195 -21.131  0.00  0.00    +0.037 C 
ENDROOT
BRANCH   1  11
ATOM     11  S   UNL     1      34.882 -23.749 -15.903  0.00  0.00    +0.061 S 
ATOM     12  O   UNL     1      34.823 -25.162 -16.224  0.00  0.00    -0.153 OA
ATOM     13  O   UNL     1      36.077 -23.185 -15.306  0.00  0.00    -0.153 OA
BRANCH  11  14
ATOM     14  N   UNL     1      33.539 -23.331 -14.948  0.00  0.00    -0.170 NA
ATOM     15  H   UNL     1      33.195 -22.438 -15.300  0.00  0.00    +0.149 HD
BRANCH  14  16
ATOM     16  C   UNL     1      32.374 -24.240 -14.874  0.00  0.00    +0.174 C 
BRANCH  16  18
ATOM     17  O   UNL     1      31.340 -25.334 -12.964  0.00  0.00    -0.249 OA
ATOM     18  C   UNL     1      32.327 -24.829 -13.484  0.00  0.00    +0.330 C 
BRANCH  18  19
ATOM     19  O   UNL     1      33.530 -24.759 -12.858  0.00  0.00    -0.479 OA
ATOM     20  H   UNL     1      34.303 -24.560 -13.349  0.00  0.00    +0.295 HD
ENDBRANCH  18  19
ENDBRANCH  16  18
BRANCH  16  21
ATOM     21  C   UNL     1      31.096 -23.508 -15.301  0.00  0.00    +0.040 C 
BRANCH  21  22
ATOM     22  C   UNL     1      30.025 -24.355 -15.993  0.00  0.00    +0.111 C 
BRANCH  22  24
ATOM     23  O   UNL     1      29.086 -22.336 -16.930  0.00  0.00    -0.250 OA
ATOM     24  C   UNL     1      29.011 -23.547 -16.763  0.00  0.00    +0.314 C 
BRANCH  24  25
ATOM     25  O   UNL     1      27.989 -24.302 -17.241  0.00  0.00    -0.480 OA
ATOM     26  H   UNL     1      27.928 -24.478 -18.159  0.00  0.00    +0.295 HD
ENDBRANCH  24  25
ENDBRANCH  22  24
ENDBRANCH  21  22
ENDBRANCH  16  21
ENDBRANCH  14  16
ENDBRANCH  11  14
ENDBRANCH   1  11
BRANCH   9  27
ATOM     27  O   UNL     1      34.662 -19.376 -22.755  0.00  0.00    -0.471 OA
BRANCH  27  28
ATOM     28  C   UNL     1      35.679 -18.476 -23.192  0.00  0.00    +0.232 C 
BRANCH  28  29
ATOM     29  C   UNL     1      35.127 -17.081 -23.202  0.00  0.00    +0.021 C 
ATOM     30  C   UNL     1      34.544 -16.570 -24.361  0.00  0.00    -0.000 C 
ATOM     31  C   UNL     1      35.198 -16.294 -22.052  0.00  0.00    -0.000 C 
ATOM     32  C   UNL     1      34.032 -15.273 -24.371  0.00  0.00    +0.010 C 
ATOM     33  C   UNL     1      34.686 -14.997 -22.061  0.00  0.00    +0.010 C 
ATOM     34  C   UNL     1      34.103 -14.487 -23.221  0.00  0.00    +0.068 C 
BRANCH  34  36
ATOM     35  N   UNL     1      33.149 -12.078 -23.240  0.00  0.00    -0.191 NA
ATOM     36  C   UNL     1      33.577 -13.157 -23.231  0.00  0.00    +0.100 C 
ENDBRANCH  34  36
ENDBRANCH  28  29
ENDBRANCH  27  28
ENDBRANCH   9  27
TORSDOF 13
ENDMDL
MODEL 7
REMARK VINA RESULT:     -10.6      2.325      4.068
REMARK  Name = 24755471
REMARK  13 active torsions:
REMARK  status: ('A' for Active; 'I' for Inactive)
REMARK    1  A    between atoms: C_1  and  S_11
REMARK    2  A    between atoms: C_9  and  O_27
REMARK    3  A    between atoms: S_11  and  N_14
REMARK    4  A    between atoms: N_14  and  C_16
REMARK    5  A    between atoms: C_16  and  C_18
REMARK    6  A    between atoms: C_16  and  C_21
REMARK    7  A    between atoms: C_18  and  O_19
REMARK    8  A    between atoms: C_21  and  C_22
REMARK    9  A    between atoms: C_22  and  C_24
REMARK   10  A    between atoms: C_24  and  O_25
REMARK   11  A    between atoms: O_27  and  C_28
REMARK   12  A    between atoms: C_28  and  C_29
REMARK   13  A    between atoms: C_34  and  C_36
REMARK                            x       y       z     vdW  Elec       q    Type
REMARK                         _______ _______ _______ _____ _____    ______ ____
ROOT
ATOM      1  C   UNL     1      34.737 -22.468 -18.291  0.00  0.00    +0.122 C 
ATOM      2  C   UNL     1      34.317 -20.990 -20.178  0.00  0.00    +0.002 C 
ATOM      3  C   UNL     1      33.851 -21.875 -19.192  0.00  0.00    +0.020 C 
ATOM      4  C   UNL     1      35.700 -20.701 -20.252  0.00  0.00    +0.003 C 
ATOM      5  C   UNL     1      36.097 -22.184 -18.364  0.00  0.00    +0.020 C 
ATOM      6  C   UNL     1      36.578 -21.307 -19.337  0.00  0.00    +0.001 C 
ATOM      7  C   UNL     1      36.166 -19.816 -21.238  0.00  0.00    +0.037 C 
ATOM      8  C   UNL     1      33.439 -20.384 -21.093  0.00  0.00    +0.003 C 
ATOM      9  C   UNL     1      35.280 -19.224 -22.138  0.00  0.00    +0.139 C 
ATOM     10  C   UNL     1      33.919 -19.507 -22.066  0.00  0.00    +0.037 C 
ENDROOT
BRANCH   1  11
ATOM     11  S   UNL     1      34.130 -23.579 -17.058  0.00  0.00    +0.061 S 
ATOM     12  O   UNL     1      33.150 -22.868 -16.260  0.00  0.00    -0.153 OA
ATOM     13  O   UNL     1      33.765 -24.806 -17.738  0.00  0.00    -0.153 OA
BRANCH  11  14
ATOM     14  N   UNL     1      35.523 -23.859 -16.124  0.00  0.00    -0.170 NA
ATOM     15  H   UNL     1      35.860 -22.947 -15.819  0.00  0.00    +0.149 HD
BRANCH  14  16
ATOM     16  C   UNL     1      35.444 -24.713 -14.919  0.00  0.00    +0.174 C 
BRANCH  16  18
ATOM     17  O   UNL     1      36.062 -26.874 -15.848  0.00  0.00    -0.249 OA
ATOM     18  C   UNL     1      36.333 -25.914 -15.137  0.00  0.00    +0.330 C 
BRANCH  18  19
ATOM     19  O   UNL     1      37.507 -25.811 -14.462  0.00  0.00    -0.479 OA
ATOM     20  H   UNL     1      37.764 -24.991 -14.092  0.00  0.00    +0.295 HD
ENDBRANCH  18  19
ENDBRANCH  16  18
BRANCH  16  21
ATOM     21  C   UNL     1      35.770 -23.897 -13.663  0.00  0.00    +0.040 C 
BRANCH  21  22
ATOM     22  C   UNL     1      35.076 -24.332 -12.369  0.00  0.00    +0.111 C 
BRANCH  22  24
ATOM     23  O   UNL     1      37.201 -25.132 -11.546  0.00  0.00    -0.250 OA
ATOM     24  C   UNL     1      35.999 -24.984 -11.370  0.00  0.00    +0.314 C 
BRANCH  24  25
ATOM     25  O   UNL     1      35.351 -25.409 -10.256  0.00  0.00    -0.480 OA
ATOM     26  H   UNL     1      35.778 -25.995  -9.662  0.00  0.00    +0.295 HD
ENDBRANCH  24  25
ENDBRANCH  22  24
ENDBRANCH  21  22
ENDBRANCH  16  21
ENDBRANCH  14  16
ENDBRANCH  11  14
ENDBRANCH   1  11
BRANCH   9  27
ATOM     27  O   UNL     1      35.747 -18.367 -23.087  0.00  0.00    -0.471 OA
BRANCH  27  28
ATOM     28  C   UNL     1      34.849 -18.007 -24.136  0.00  0.00    +0.232 C 
BRANCH  28  29
ATOM     29  C   UNL     1      34.491 -16.557 -23.999  0.00  0.00    +0.021 C 
ATOM     30  C   UNL     1      33.745 -15.926 -24.994  0.00  0.00    -0.000 C 
ATOM     31  C   UNL     1      34.906 -15.838 -22.877  0.00  0.00    -0.000 C 
ATOM     32  C   UNL     1      33.413 -14.578 -24.868  0.00  0.00    +0.010 C 
ATOM     33  C   UNL     1      34.574 -14.490 -22.751  0.00  0.00    +0.010 C 
ATOM     34  C   UNL     1      33.827 -13.860 -23.746  0.00  0.00    +0.068 C 
BRANCH  34  36
ATOM     35  N   UNL     1      33.209 -11.355 -23.512  0.00  0.00    -0.191 NA
ATOM     36  C   UNL     1      33.486 -12.477 -23.616  0.00  0.00    +0.100 C 
ENDBRANCH  34  36
ENDBRANCH  28  29
ENDBRANCH  27  28
ENDBRANCH   9  27
TORSDOF 13
ENDMDL
MODEL 8
REMARK VINA RESULT:     -10.3      2.603      4.675
REMARK  Name = 24755471
REMARK  13 active torsions:
REMARK  status: ('A' for Active; 'I' for Inactive)
REMARK    1  A    between atoms: C_1  and  S_11
REMARK    2  A    between atoms: C_9  and  O_27
REMARK    3  A    between atoms: S_11  and  N_14
REMARK    4  A    between atoms: N_14  and  C_16
REMARK    5  A    between atoms: C_16  and  C_18
REMARK    6  A    between atoms: C_16  and  C_21
REMARK    7  A    between atoms: C_18  and  O_19
REMARK    8  A    between atoms: C_21  and  C_22
REMARK    9  A    between atoms: C_22  and  C_24
REMARK   10  A    between atoms: C_24  and  O_25
REMARK   11  A    between atoms: O_27  and  C_28
REMARK   12  A    between atoms: C_28  and  C_29
REMARK   13  A    between atoms: C_34  and  C_36
REMARK                            x       y       z     vdW  Elec       q    Type
REMARK                         _______ _______ _______ _____ _____    ______ ____
ROOT
ATOM      1  C   UNL     1      34.255 -22.352 -18.643  0.00  0.00    +0.122 C 
ATOM      2  C   UNL     1      34.027 -20.781 -20.488  0.00  0.00    +0.002 C 
ATOM      3  C   UNL     1      33.455 -21.666 -19.558  0.00  0.00    +0.020 C 
ATOM      4  C   UNL     1      35.429 -20.590 -20.489  0.00  0.00    +0.003 C 
ATOM      5  C   UNL     1      35.634 -22.164 -18.646  0.00  0.00    +0.020 C 
ATOM      6  C   UNL     1      36.219 -21.289 -19.561  0.00  0.00    +0.001 C 
ATOM      7  C   UNL     1      36.001 -19.706 -21.418  0.00  0.00    +0.037 C 
ATOM      8  C   UNL     1      33.237 -20.082 -21.416  0.00  0.00    +0.003 C 
ATOM      9  C   UNL     1      35.201 -19.019 -22.333  0.00  0.00    +0.139 C 
ATOM     10  C   UNL     1      33.822 -19.207 -22.332  0.00  0.00    +0.037 C 
ENDROOT
BRANCH   1  11
ATOM     11  S   UNL     1      33.515 -23.461 -17.482  0.00  0.00    +0.061 S 
ATOM     12  O   UNL     1      32.172 -22.989 -17.208  0.00  0.00    -0.153 OA
ATOM     13  O   UNL     1      33.728 -24.804 -17.986  0.00  0.00    -0.153 OA
BRANCH  11  14
ATOM     14  N   UNL     1      34.488 -23.228 -16.108  0.00  0.00    -0.170 NA
ATOM     15  H   UNL     1      33.979 -22.595 -15.491  0.00  0.00    +0.149 HD
BRANCH  14  16
ATOM     16  C   UNL     1      34.898 -24.389 -15.288  0.00  0.00    +0.174 C 
BRANCH  16  18
ATOM     17  O   UNL     1      37.127 -23.455 -15.013  0.00  0.00    -0.249 OA
ATOM     18  C   UNL     1      36.407 -24.420 -15.241  0.00  0.00    +0.330 C 
BRANCH  18  19
ATOM     19  O   UNL     1      36.900 -25.665 -15.464  0.00  0.00    -0.479 OA
ATOM     20  H   UNL     1      36.450 -26.414 -15.129  0.00  0.00    +0.295 HD
ENDBRANCH  18  19
ENDBRANCH  16  18
BRANCH  16  21
ATOM     21  C   UNL     1      34.217 -24.340 -13.914  0.00  0.00    +0.040 C 
BRANCH  21  22
ATOM     22  C   UNL     1      32.785 -24.878 -13.845  0.00  0.00    +0.111 C 
BRANCH  22  24
ATOM     23  O   UNL     1      30.994 -23.845 -12.595  0.00  0.00    -0.250 OA
ATOM     24  C   UNL     1      31.749 -23.820 -13.558  0.00  0.00    +0.314 C 
BRANCH  24  25
ATOM     25  O   UNL     1      31.728 -22.838 -14.495  0.00  0.00    -0.480 OA
ATOM     26  H   UNL     1      31.688 -23.060 -15.404  0.00  0.00    +0.295 HD
ENDBRANCH  24  25
ENDBRANCH  22  24
ENDBRANCH  21  22
ENDBRANCH  16  21
ENDBRANCH  14  16
ENDBRANCH  11  14
ENDBRANCH   1  11
BRANCH   9  27
ATOM     27  O   UNL     1      35.770 -18.164 -23.226  0.00  0.00    -0.471 OA
BRANCH  27  28
ATOM     28  C   UNL     1      34.962 -17.736 -24.321  0.00  0.00    +0.232 C 
BRANCH  28  29
ATOM     29  C   UNL     1      34.523 -16.321 -24.082  0.00  0.00    +0.021 C 
ATOM     30  C   UNL     1      34.895 -15.664 -22.909  0.00  0.00    -0.000 C 
ATOM     31  C   UNL     1      33.743 -15.663 -25.033  0.00  0.00    -0.000 C 
ATOM     32  C   UNL     1      34.487 -14.350 -22.688  0.00  0.00    +0.010 C 
ATOM     33  C   UNL     1      33.335 -14.349 -24.811  0.00  0.00    +0.010 C 
ATOM     34  C   UNL     1      33.706 -13.692 -23.638  0.00  0.00    +0.068 C 
BRANCH  34  36
ATOM     35  N   UNL     1      32.951 -11.249 -23.226  0.00  0.00    -0.191 NA
ATOM     36  C   UNL     1      33.289 -12.343 -23.410  0.00  0.00    +0.100 C 
ENDBRANCH  34  36
ENDBRANCH  28  29
ENDBRANCH  27  28
ENDBRANCH   9  27
TORSDOF 13
ENDMDL
MODEL 9
REMARK VINA RESULT:     -10.1      1.455      2.099
REMARK  Name = 24755471
REMARK  13 active torsions:
REMARK  status: ('A' for Active; 'I' for Inactive)
REMARK    1  A    between atoms: C_1  and  S_11
REMARK    2  A    between atoms: C_9  and  O_27
REMARK    3  A    between atoms: S_11  and  N_14
REMARK    4  A    between atoms: N_14  and  C_16
REMARK    5  A    between atoms: C_16  and  C_18
REMARK    6  A    between atoms: C_16  and  C_21
REMARK    7  A    between atoms: C_18  and  O_19
REMARK    8  A    between atoms: C_21  and  C_22
REMARK    9  A    between atoms: C_22  and  C_24
REMARK   10  A    between atoms: C_24  and  O_25
REMARK   11  A    between atoms: O_27  and  C_28
REMARK   12  A    between atoms: C_28  and  C_29
REMARK   13  A    between atoms: C_34  and  C_36
REMARK                            x       y       z     vdW  Elec       q    Type
REMARK                         _______ _______ _______ _____ _____    ______ ____
ROOT
ATOM      1  C   UNL     1      34.590 -23.697 -15.830  0.00  0.00    +0.122 C 
ATOM      2  C   UNL     1      35.513 -22.461 -17.712  0.00  0.00    +0.002 C 
ATOM      3  C   UNL     1      35.680 -23.121 -16.484  0.00  0.00    +0.020 C 
ATOM      4  C   UNL     1      34.222 -22.384 -18.287  0.00  0.00    +0.003 C 
ATOM      5  C   UNL     1      33.320 -23.620 -16.395  0.00  0.00    +0.020 C 
ATOM      6  C   UNL     1      33.135 -22.969 -17.615  0.00  0.00    +0.001 C 
ATOM      7  C   UNL     1      34.054 -21.724 -19.515  0.00  0.00    +0.037 C 
ATOM      8  C   UNL     1      36.599 -21.875 -18.384  0.00  0.00    +0.003 C 
ATOM      9  C   UNL     1      35.145 -21.148 -20.168  0.00  0.00    +0.139 C 
ATOM     10  C   UNL     1      36.414 -21.223 -19.603  0.00  0.00    +0.037 C 
ENDROOT
BRANCH   1  11
ATOM     11  S   UNL     1      34.822 -24.523 -14.285  0.00  0.00    +0.061 S 
ATOM     12  O   UNL     1      34.293 -23.670 -13.239  0.00  0.00    -0.153 OA
ATOM     13  O   UNL     1      34.322 -25.874 -14.449  0.00  0.00    -0.153 OA
BRANCH  11  14
ATOM     14  N   UNL     1      36.518 -24.574 -14.168  0.00  0.00    -0.170 NA
ATOM     15  H   UNL     1      36.794 -23.801 -13.564  0.00  0.00    +0.149 HD
BRANCH  14  16
ATOM     16  C   UNL     1      37.185 -25.786 -13.645  0.00  0.00    +0.174 C 
BRANCH  16  18
ATOM     17  O   UNL     1      37.287 -26.786 -15.860  0.00  0.00    -0.249 OA
ATOM     18  C   UNL     1      37.026 -26.886 -14.667  0.00  0.00    +0.330 C 
BRANCH  18  19
ATOM     19  O   UNL     1      36.569 -28.038 -14.112  0.00  0.00    -0.479 OA
ATOM     20  H   UNL     1      36.946 -28.357 -13.317  0.00  0.00    +0.295 HD
ENDBRANCH  18  19
ENDBRANCH  16  18
BRANCH  16  21
ATOM     21  C   UNL     1      38.637 -25.475 -13.263  0.00  0.00    +0.040 C 
BRANCH  21  22
ATOM     22  C   UNL     1      39.710 -26.385 -13.868  0.00  0.00    +0.111 C 
BRANCH  22  24
ATOM     23  O   UNL     1      41.219 -24.660 -14.630  0.00  0.00    -0.250 OA
ATOM     24  C   UNL     1      40.606 -25.693 -14.864  0.00  0.00    +0.314 C 
BRANCH  24  25
ATOM     25  O   UNL     1      40.651 -26.330 -16.062  0.00  0.00    -0.480 OA
ATOM     26  H   UNL     1      40.961 -25.877 -16.821  0.00  0.00    +0.295 HD
ENDBRANCH  24  25
ENDBRANCH  22  24
ENDBRANCH  21  22
ENDBRANCH  16  21
ENDBRANCH  14  16
ENDBRANCH  11  14
ENDBRANCH   1  11
BRANCH   9  27
ATOM     27  O   UNL     1      34.966 -20.514 -21.359  0.00  0.00    -0.471 OA
BRANCH  27  28
ATOM     28  C   UNL     1      35.954 -19.558 -21.740  0.00  0.00    +0.232 C 
BRANCH  28  29
ATOM     29  C   UNL     1      35.396 -18.679 -22.820  0.00  0.00    +0.021 C 
ATOM     30  C   UNL     1      35.498 -17.292 -22.712  0.00  0.00    -0.000 C 
ATOM     31  C   UNL     1      34.773 -19.249 -23.931  0.00  0.00    -0.000 C 
ATOM     32  C   UNL     1      34.978 -16.476 -23.716  0.00  0.00    +0.010 C 
ATOM     33  C   UNL     1      34.254 -18.432 -24.934  0.00  0.00    +0.010 C 
ATOM     34  C   UNL     1      34.356 -17.045 -24.827  0.00  0.00    +0.068 C 
BRANCH  34  36
ATOM     35  N   UNL     1      33.392 -15.527 -26.691  0.00  0.00    -0.191 NA
ATOM     36  C   UNL     1      33.824 -16.207 -25.856  0.00  0.00    +0.100 C 
ENDBRANCH  34  36
ENDBRANCH  28  29
ENDBRANCH  27  28
ENDBRANCH   9  27
TORSDOF 13
ENDMDL
