MODEL 1
REMARK VINA RESULT:     -11.1      0.000      0.000
REMARK  Name = 25052630
REMARK  6 active torsions:
REMARK  status: ('A' for Active; 'I' for Inactive)
REMARK    1  A    between atoms: N_2  and  C_11
REMARK    2  A    between atoms: C_4  and  C_20
REMARK    3  A    between atoms: C_20  and  C_21
REMARK    4  A    between atoms: C_21  and  N_22
REMARK    5  A    between atoms: N_22  and  C_25
REMARK    6  A    between atoms: C_25  and  C_26
REMARK                            x       y       z     vdW  Elec       q    Type
REMARK                         _______ _______ _______ _____ _____    ______ ____
ROOT
ATOM      1  S   UNL     1      37.196 -27.361 -14.286  0.00  0.00    -0.018 S 
ATOM      2  N   UNL     1      36.529 -24.714 -14.909  0.00  0.00    -0.270 N 
ATOM      3  N   UNL     1      38.713 -25.232 -15.065  0.00  0.00    -0.294 N 
ATOM      4  C   UNL     1      37.250 -23.591 -15.310  0.00  0.00    +0.043 C 
ATOM      5  C   UNL     1      37.453 -25.787 -14.745  0.00  0.00    +0.142 C 
ATOM      6  C   UNL     1      38.550 -23.914 -15.399  0.00  0.00    +0.074 C 
ATOM      7  H   UNL     1      39.571 -25.716 -15.050  0.00  0.00    +0.154 HD
ENDROOT
BRANCH   2  11
ATOM      8  F   UNL     1      30.719 -23.910 -12.547  0.00  0.00    -0.201 F 
ATOM      9  F   UNL     1      29.808 -22.778 -17.046  0.00  0.00    -0.204 F 
ATOM     10  O   UNL     1      33.318 -24.281 -13.089  0.00  0.00    -0.472 OA
ATOM     11  C   UNL     1      35.103 -24.731 -14.710  0.00  0.00    +0.127 C 
ATOM     12  C   UNL     1      34.383 -23.947 -15.804  0.00  0.00    +0.054 C 
ATOM     13  C   UNL     1      34.719 -24.148 -13.355  0.00  0.00    +0.226 C 
ATOM     14  C   UNL     1      32.940 -23.739 -15.441  0.00  0.00    +0.018 C 
ATOM     15  C   UNL     1      32.499 -23.905 -14.121  0.00  0.00    +0.162 C 
ATOM     16  C   UNL     1      32.021 -23.348 -16.424  0.00  0.00    +0.029 C 
ATOM     17  C   UNL     1      31.151 -23.719 -13.801  0.00  0.00    +0.176 C 
ATOM     18  C   UNL     1      30.678 -23.152 -16.099  0.00  0.00    +0.142 C 
ATOM     19  C   UNL     1      30.243 -23.342 -14.790  0.00  0.00    +0.062 C 
ENDBRANCH   2  11
BRANCH   4  20
ATOM     20  C   UNL     1      36.614 -22.278 -15.578  0.00  0.00    +0.019 C 
BRANCH  20  21
ATOM     21  C   UNL     1      37.120 -21.666 -16.885  0.00  0.00    -0.075 C 
BRANCH  21  22
ATOM     22  N   UNL     1      36.619 -22.418 -18.029  0.00  0.00    +0.387 N 
ATOM     23  H   UNL     1      35.642 -22.661 -17.867  0.00  0.00    -0.084 HD
ATOM     24  H   UNL     1      37.183 -23.261 -18.137  0.00  0.00    -0.084 HD
BRANCH  22  25
ATOM     25  C   UNL     1      36.719 -21.632 -19.251  0.00  0.00    -0.054 C 
BRANCH  25  26
ATOM     26  C   UNL     1      35.364 -21.255 -19.787  0.00  0.00    -0.044 C 
ATOM     27  C   UNL     1      34.217 -21.857 -19.270  0.00  0.00    -0.006 C 
ATOM     28  C   UNL     1      35.256 -20.301 -20.799  0.00  0.00    -0.006 C 
ATOM     29  C   UNL     1      32.962 -21.507 -19.767  0.00  0.00    -0.000 C 
ATOM     30  C   UNL     1      34.000 -19.951 -21.296  0.00  0.00    -0.000 C 
ATOM     31  C   UNL     1      32.853 -20.554 -20.779  0.00  0.00    -0.000 C 
ENDBRANCH  25  26
ENDBRANCH  22  25
ENDBRANCH  21  22
ENDBRANCH  20  21
ENDBRANCH   4  20
TORSDOF 6
ENDMDL
MODEL 2
REMARK VINA RESULT:     -10.4      8.828     12.397
REMARK  Name = 25052630
REMARK  6 active torsions:
REMARK  status: ('A' for Active; 'I' for Inactive)
REMARK    1  A    between atoms: N_2  and  C_11
REMARK    2  A    between atoms: C_4  and  C_20
REMARK    3  A    between atoms: C_20  and  C_21
REMARK    4  A    between atoms: C_21  and  N_22
REMARK    5  A    between atoms: N_22  and  C_25
REMARK    6  A    between atoms: C_25  and  C_26
REMARK                            x       y       z     vdW  Elec       q    Type
REMARK                         _______ _______ _______ _____ _____    ______ ____
ROOT
ATOM      1  S   UNL     1      32.733 -13.737 -26.758  0.00  0.00    -0.018 S 
ATOM      2  N   UNL     1      33.857 -14.509 -24.313  0.00  0.00    -0.270 N 
ATOM      3  N   UNL     1      33.729 -16.119 -25.880  0.00  0.00    -0.294 N 
ATOM      4  C   UNL     1      34.380 -15.698 -23.808  0.00  0.00    +0.043 C 
ATOM      5  C   UNL     1      33.431 -14.756 -25.651  0.00  0.00    +0.142 C 
ATOM      6  C   UNL     1      34.297 -16.649 -24.752  0.00  0.00    +0.074 C 
ATOM      7  H   UNL     1      33.557 -16.609 -26.716  0.00  0.00    +0.154 HD
ENDROOT
BRANCH   2  11
ATOM      8  F   UNL     1      33.363  -8.416 -22.698  0.00  0.00    -0.201 F 
ATOM      9  F   UNL     1      30.473 -10.243 -19.431  0.00  0.00    -0.204 F 
ATOM     10  O   UNL     1      33.794 -10.833 -23.774  0.00  0.00    -0.472 OA
ATOM     11  C   UNL     1      33.784 -13.277 -23.571  0.00  0.00    +0.127 C 
ATOM     12  C   UNL     1      32.559 -13.252 -22.661  0.00  0.00    +0.054 C 
ATOM     13  C   UNL     1      33.733 -12.067 -24.497  0.00  0.00    +0.226 C 
ATOM     14  C   UNL     1      32.341 -11.872 -22.108  0.00  0.00    +0.018 C 
ATOM     15  C   UNL     1      32.954 -10.756 -22.694  0.00  0.00    +0.162 C 
ATOM     16  C   UNL     1      31.495 -11.687 -21.007  0.00  0.00    +0.029 C 
ATOM     17  C   UNL     1      32.752  -9.480 -22.161  0.00  0.00    +0.176 C 
ATOM     18  C   UNL     1      31.285 -10.410 -20.484  0.00  0.00    +0.142 C 
ATOM     19  C   UNL     1      31.916  -9.309 -21.058  0.00  0.00    +0.062 C 
ENDBRANCH   2  11
BRANCH   4  20
ATOM     20  C   UNL     1      34.924 -15.820 -22.433  0.00  0.00    +0.019 C 
BRANCH  20  21
ATOM     21  C   UNL     1      35.812 -17.056 -22.288  0.00  0.00    -0.075 C 
BRANCH  21  22
ATOM     22  N   UNL     1      35.264 -17.965 -21.288  0.00  0.00    +0.387 N 
ATOM     23  H   UNL     1      34.447 -17.532 -20.856  0.00  0.00    -0.084 HD
ATOM     24  H   UNL     1      35.981 -18.149 -20.588  0.00  0.00    -0.084 HD
BRANCH  22  25
ATOM     25  C   UNL     1      34.870 -19.228 -21.896  0.00  0.00    -0.054 C 
BRANCH  25  26
ATOM     26  C   UNL     1      34.639 -20.299 -20.864  0.00  0.00    -0.044 C 
ATOM     27  C   UNL     1      33.338 -20.637 -20.488  0.00  0.00    -0.006 C 
ATOM     28  C   UNL     1      35.725 -20.955 -20.285  0.00  0.00    -0.006 C 
ATOM     29  C   UNL     1      33.125 -21.630 -19.533  0.00  0.00    -0.000 C 
ATOM     30  C   UNL     1      35.510 -21.949 -19.329  0.00  0.00    -0.000 C 
ATOM     31  C   UNL     1      34.210 -22.286 -18.953  0.00  0.00    -0.000 C 
ENDBRANCH  25  26
ENDBRANCH  22  25
ENDBRANCH  21  22
ENDBRANCH  20  21
ENDBRANCH   4  20
TORSDOF 6
ENDMDL
MODEL 3
REMARK VINA RESULT:      -9.9     10.182     13.887
REMARK  Name = 25052630
REMARK  6 active torsions:
REMARK  status: ('A' for Active; 'I' for Inactive)
REMARK    1  A    between atoms: N_2  and  C_11
REMARK    2  A    between atoms: C_4  and  C_20
REMARK    3  A    between atoms: C_20  and  C_21
REMARK    4  A    between atoms: C_21  and  N_22
REMARK    5  A    between atoms: N_22  and  C_25
REMARK    6  A    between atoms: C_25  and  C_26
REMARK                            x       y       z     vdW  Elec       q    Type
REMARK                         _______ _______ _______ _____ _____    ______ ____
ROOT
ATOM      1  S   UNL     1      32.682 -12.540 -26.988  0.00  0.00    -0.018 S 
ATOM      2  N   UNL     1      33.691 -13.238 -24.471  0.00  0.00    -0.270 N 
ATOM      3  N   UNL     1      33.101 -14.957 -25.797  0.00  0.00    -0.294 N 
ATOM      4  C   UNL     1      33.927 -14.442 -23.810  0.00  0.00    +0.043 C 
ATOM      5  C   UNL     1      33.157 -13.545 -25.756  0.00  0.00    +0.142 C 
ATOM      6  C   UNL     1      33.571 -15.458 -24.612  0.00  0.00    +0.074 C 
ATOM      7  H   UNL     1      32.775 -15.495 -26.555  0.00  0.00    +0.154 HD
ENDROOT
BRANCH   2  11
ATOM      8  F   UNL     1      35.283  -7.168 -23.691  0.00  0.00    -0.201 F 
ATOM      9  F   UNL     1      31.337  -7.197 -21.087  0.00  0.00    -0.204 F 
ATOM     10  O   UNL     1      34.948  -9.742 -24.360  0.00  0.00    -0.472 OA
ATOM     11  C   UNL     1      33.956 -11.939 -23.907  0.00  0.00    +0.127 C 
ATOM     12  C   UNL     1      32.684 -11.310 -23.345  0.00  0.00    +0.054 C 
ATOM     13  C   UNL     1      34.557 -10.992 -24.940  0.00  0.00    +0.226 C 
ATOM     14  C   UNL     1      32.913  -9.863 -23.015  0.00  0.00    +0.018 C 
ATOM     15  C   UNL     1      34.010  -9.169 -23.542  0.00  0.00    +0.162 C 
ATOM     16  C   UNL     1      32.007  -9.183 -22.190  0.00  0.00    +0.029 C 
ATOM     17  C   UNL     1      34.216  -7.825 -23.216  0.00  0.00    +0.176 C 
ATOM     18  C   UNL     1      32.209  -7.838 -21.876  0.00  0.00    +0.142 C 
ATOM     19  C   UNL     1      33.315  -7.162 -22.385  0.00  0.00    +0.062 C 
ENDBRANCH   2  11
BRANCH   4  20
ATOM     20  C   UNL     1      34.486 -14.512 -22.438  0.00  0.00    +0.019 C 
BRANCH  20  21
ATOM     21  C   UNL     1      34.716 -15.958 -21.999  0.00  0.00    -0.075 C 
BRANCH  21  22
ATOM     22  N   UNL     1      35.711 -16.600 -22.852  0.00  0.00    +0.387 N 
ATOM     23  H   UNL     1      36.600 -16.642 -22.353  0.00  0.00    -0.084 HD
ATOM     24  H   UNL     1      35.808 -16.053 -23.707  0.00  0.00    -0.084 HD
BRANCH  22  25
ATOM     25  C   UNL     1      35.297 -17.950 -23.206  0.00  0.00    -0.054 C 
BRANCH  25  26
ATOM     26  C   UNL     1      35.585 -18.933 -22.103  0.00  0.00    -0.044 C 
ATOM     27  C   UNL     1      36.856 -18.982 -21.526  0.00  0.00    -0.006 C 
ATOM     28  C   UNL     1      34.583 -19.792 -21.655  0.00  0.00    -0.006 C 
ATOM     29  C   UNL     1      37.122 -19.891 -20.503  0.00  0.00    -0.000 C 
ATOM     30  C   UNL     1      34.850 -20.702 -20.631  0.00  0.00    -0.000 C 
ATOM     31  C   UNL     1      36.120 -20.752 -20.056  0.00  0.00    -0.000 C 
ENDBRANCH  25  26
ENDBRANCH  22  25
ENDBRANCH  21  22
ENDBRANCH  20  21
ENDBRANCH   4  20
TORSDOF 6
ENDMDL
MODEL 4
REMARK VINA RESULT:      -9.8      2.079      3.030
REMARK  Name = 25052630
REMARK  6 active torsions:
REMARK  status: ('A' for Active; 'I' for Inactive)
REMARK    1  A    between atoms: N_2  and  C_11
REMARK    2  A    between atoms: C_4  and  C_20
REMARK    3  A    between atoms: C_20  and  C_21
REMARK    4  A    between atoms: C_21  and  N_22
REMARK    5  A    between atoms: N_22  and  C_25
REMARK    6  A    between atoms: C_25  and  C_26
REMARK                            x       y       z     vdW  Elec       q    Type
REMARK                         _______ _______ _______ _____ _____    ______ ____
ROOT
ATOM      1  S   UNL     1      36.980 -23.707 -14.259  0.00  0.00    -0.018 S 
ATOM      2  N   UNL     1      35.402 -23.143 -16.502  0.00  0.00    -0.270 N 
ATOM      3  N   UNL     1      37.496 -22.320 -16.550  0.00  0.00    -0.294 N 
ATOM      4  C   UNL     1      35.605 -22.447 -17.692  0.00  0.00    +0.043 C 
ATOM      5  C   UNL     1      36.609 -23.075 -15.748  0.00  0.00    +0.142 C 
ATOM      6  C   UNL     1      36.856 -21.962 -17.707  0.00  0.00    +0.074 C 
ATOM      7  H   UNL     1      38.423 -22.088 -16.315  0.00  0.00    +0.154 HD
ENDROOT
BRANCH   2  11
ATOM      8  F   UNL     1      30.550 -25.619 -13.291  0.00  0.00    -0.201 F 
ATOM      9  F   UNL     1      28.096 -23.418 -16.681  0.00  0.00    -0.204 F 
ATOM     10  O   UNL     1      32.870 -24.704 -14.274  0.00  0.00    -0.472 OA
ATOM     11  C   UNL     1      34.168 -23.796 -16.147  0.00  0.00    +0.127 C 
ATOM     12  C   UNL     1      32.962 -23.030 -16.684  0.00  0.00    +0.054 C 
ATOM     13  C   UNL     1      34.026 -23.939 -14.635  0.00  0.00    +0.226 C 
ATOM     14  C   UNL     1      31.691 -23.558 -16.081  0.00  0.00    +0.018 C 
ATOM     15  C   UNL     1      31.717 -24.344 -14.921  0.00  0.00    +0.162 C 
ATOM     16  C   UNL     1      30.458 -23.242 -16.665  0.00  0.00    +0.029 C 
ATOM     17  C   UNL     1      30.527 -24.838 -14.380  0.00  0.00    +0.176 C 
ATOM     18  C   UNL     1      29.270 -23.726 -16.115  0.00  0.00    +0.142 C 
ATOM     19  C   UNL     1      29.306 -24.527 -14.976  0.00  0.00    +0.062 C 
ENDBRANCH   2  11
BRANCH   4  20
ATOM     20  C   UNL     1      34.557 -22.306 -18.733  0.00  0.00    +0.019 C 
BRANCH  20  21
ATOM     21  C   UNL     1      35.156 -21.911 -20.082  0.00  0.00    -0.075 C 
BRANCH  21  22
ATOM     22  N   UNL     1      34.639 -20.616 -20.512  0.00  0.00    +0.387 N 
ATOM     23  H   UNL     1      34.120 -20.193 -19.743  0.00  0.00    -0.084 HD
ATOM     24  H   UNL     1      34.029 -20.760 -21.316  0.00  0.00    -0.084 HD
BRANCH  22  25
ATOM     25  C   UNL     1      35.724 -19.728 -20.903  0.00  0.00    -0.054 C 
BRANCH  25  26
ATOM     26  C   UNL     1      35.354 -18.879 -22.089  0.00  0.00    -0.044 C 
ATOM     27  C   UNL     1      34.776 -19.467 -23.215  0.00  0.00    -0.006 C 
ATOM     28  C   UNL     1      35.587 -17.504 -22.063  0.00  0.00    -0.006 C 
ATOM     29  C   UNL     1      34.432 -18.680 -24.314  0.00  0.00    -0.000 C 
ATOM     30  C   UNL     1      35.243 -16.717 -23.163  0.00  0.00    -0.000 C 
ATOM     31  C   UNL     1      34.666 -17.306 -24.288  0.00  0.00    -0.000 C 
ENDBRANCH  25  26
ENDBRANCH  22  25
ENDBRANCH  21  22
ENDBRANCH  20  21
ENDBRANCH   4  20
TORSDOF 6
ENDMDL
MODEL 5
REMARK VINA RESULT:      -9.7      1.756      2.248
REMARK  Name = 25052630
REMARK  6 active torsions:
REMARK  status: ('A' for Active; 'I' for Inactive)
REMARK    1  A    between atoms: N_2  and  C_11
REMARK    2  A    between atoms: C_4  and  C_20
REMARK    3  A    between atoms: C_20  and  C_21
REMARK    4  A    between atoms: C_21  and  N_22
REMARK    5  A    between atoms: N_22  and  C_25
REMARK    6  A    between atoms: C_25  and  C_26
REMARK                            x       y       z     vdW  Elec       q    Type
REMARK                         _______ _______ _______ _____ _____    ______ ____
ROOT
ATOM      1  S   UNL     1      35.322 -24.606 -11.891  0.00  0.00    -0.018 S 
ATOM      2  N   UNL     1      35.199 -23.838 -14.581  0.00  0.00    -0.270 N 
ATOM      3  N   UNL     1      37.096 -23.299 -13.498  0.00  0.00    -0.294 N 
ATOM      4  C   UNL     1      36.062 -23.175 -15.450  0.00  0.00    +0.043 C 
ATOM      5  C   UNL     1      35.845 -23.930 -13.313  0.00  0.00    +0.142 C 
ATOM      6  C   UNL     1      37.189 -22.860 -14.792  0.00  0.00    +0.074 C 
ATOM      7  H   UNL     1      37.790 -23.191 -12.808  0.00  0.00    +0.154 HD
ENDROOT
BRANCH   2  11
ATOM      8  F   UNL     1      29.379 -26.307 -14.446  0.00  0.00    -0.201 F 
ATOM      9  F   UNL     1      28.506 -22.609 -17.261  0.00  0.00    -0.204 F 
ATOM     10  O   UNL     1      31.939 -25.570 -14.148  0.00  0.00    -0.472 OA
ATOM     11  C   UNL     1      33.893 -24.323 -14.949  0.00  0.00    +0.127 C 
ATOM     12  C   UNL     1      33.020 -23.197 -15.497  0.00  0.00    +0.054 C 
ATOM     13  C   UNL     1      33.180 -24.966 -13.765  0.00  0.00    +0.226 C 
ATOM     14  C   UNL     1      31.592 -23.648 -15.616  0.00  0.00    +0.018 C 
ATOM     15  C   UNL     1      31.137 -24.786 -14.936  0.00  0.00    +0.162 C 
ATOM     16  C   UNL     1      30.690 -22.911 -16.395  0.00  0.00    +0.029 C 
ATOM     17  C   UNL     1      29.809 -25.200 -15.067  0.00  0.00    +0.176 C 
ATOM     18  C   UNL     1      29.361 -23.320 -16.514  0.00  0.00    +0.142 C 
ATOM     19  C   UNL     1      28.922 -24.466 -15.854  0.00  0.00    +0.062 C 
ENDBRANCH   2  11
BRANCH   4  20
ATOM     20  C   UNL     1      35.723 -22.897 -16.867  0.00  0.00    +0.019 C 
BRANCH  20  21
ATOM     21  C   UNL     1      36.688 -21.887 -17.488  0.00  0.00    -0.075 C 
BRANCH  21  22
ATOM     22  N   UNL     1      36.716 -22.032 -18.939  0.00  0.00    +0.387 N 
ATOM     23  H   UNL     1      36.929 -23.002 -19.174  0.00  0.00    -0.084 HD
ATOM     24  H   UNL     1      37.432 -21.410 -19.315  0.00  0.00    -0.084 HD
BRANCH  22  25
ATOM     25  C   UNL     1      35.432 -21.670 -19.521  0.00  0.00    -0.054 C 
BRANCH  25  26
ATOM     26  C   UNL     1      35.564 -20.552 -20.520  0.00  0.00    -0.044 C 
ATOM     27  C   UNL     1      34.474 -20.195 -21.316  0.00  0.00    -0.006 C 
ATOM     28  C   UNL     1      36.774 -19.871 -20.649  0.00  0.00    -0.006 C 
ATOM     29  C   UNL     1      34.597 -19.159 -22.241  0.00  0.00    -0.000 C 
ATOM     30  C   UNL     1      36.895 -18.833 -21.575  0.00  0.00    -0.000 C 
ATOM     31  C   UNL     1      35.807 -18.478 -22.370  0.00  0.00    -0.000 C 
ENDBRANCH  25  26
ENDBRANCH  22  25
ENDBRANCH  21  22
ENDBRANCH  20  21
ENDBRANCH   4  20
TORSDOF 6
ENDMDL
MODEL 6
REMARK VINA RESULT:      -9.7      3.330      5.259
REMARK  Name = 25052630
REMARK  6 active torsions:
REMARK  status: ('A' for Active; 'I' for Inactive)
REMARK    1  A    between atoms: N_2  and  C_11
REMARK    2  A    between atoms: C_4  and  C_20
REMARK    3  A    between atoms: C_20  and  C_21
REMARK    4  A    between atoms: C_21  and  N_22
REMARK    5  A    between atoms: N_22  and  C_25
REMARK    6  A    between atoms: C_25  and  C_26
REMARK                            x       y       z     vdW  Elec       q    Type
REMARK                         _______ _______ _______ _____ _____    ______ ____
ROOT
ATOM      1  S   UNL     1      31.206 -25.030 -13.150  0.00  0.00    -0.018 S 
ATOM      2  N   UNL     1      32.767 -23.948 -15.207  0.00  0.00    -0.270 N 
ATOM      3  N   UNL     1      30.564 -24.107 -15.635  0.00  0.00    -0.294 N 
ATOM      4  C   UNL     1      32.501 -23.463 -16.486  0.00  0.00    +0.043 C 
ATOM      5  C   UNL     1      31.530 -24.370 -14.637  0.00  0.00    +0.142 C 
ATOM      6  C   UNL     1      31.185 -23.563 -16.728  0.00  0.00    +0.074 C 
ATOM      7  H   UNL     1      29.599 -24.286 -15.557  0.00  0.00    +0.154 HD
ENDROOT
BRANCH   2  11
ATOM      8  F   UNL     1      37.575 -24.534 -11.143  0.00  0.00    -0.201 F 
ATOM      9  F   UNL     1      39.420 -26.951 -14.764  0.00  0.00    -0.204 F 
ATOM     10  O   UNL     1      35.294 -24.117 -12.488  0.00  0.00    -0.472 OA
ATOM     11  C   UNL     1      34.079 -23.993 -14.615  0.00  0.00    +0.127 C 
ATOM     12  C   UNL     1      34.923 -25.108 -15.226  0.00  0.00    +0.054 C 
ATOM     13  C   UNL     1      34.006 -24.203 -13.106  0.00  0.00    +0.226 C 
ATOM     14  C   UNL     1      36.173 -25.324 -14.421  0.00  0.00    +0.018 C 
ATOM     15  C   UNL     1      36.281 -24.833 -13.113  0.00  0.00    +0.162 C 
ATOM     16  C   UNL     1      37.240 -26.049 -14.969  0.00  0.00    +0.029 C 
ATOM     17  C   UNL     1      37.456 -25.032 -12.381  0.00  0.00    +0.176 C 
ATOM     18  C   UNL     1      38.406 -26.257 -14.231  0.00  0.00    +0.142 C 
ATOM     19  C   UNL     1      38.515 -25.745 -12.941  0.00  0.00    +0.062 C 
ENDBRANCH   2  11
BRANCH   4  20
ATOM     20  C   UNL     1      33.558 -22.933 -17.383  0.00  0.00    +0.019 C 
BRANCH  20  21
ATOM     21  C   UNL     1      32.961 -22.294 -18.637  0.00  0.00    -0.075 C 
BRANCH  21  22
ATOM     22  N   UNL     1      33.829 -22.519 -19.788  0.00  0.00    +0.387 N 
ATOM     23  H   UNL     1      33.472 -21.988 -20.582  0.00  0.00    -0.084 HD
ATOM     24  H   UNL     1      33.836 -23.516 -20.000  0.00  0.00    -0.084 HD
BRANCH  22  25
ATOM     25  C   UNL     1      35.191 -22.093 -19.501  0.00  0.00    -0.054 C 
BRANCH  25  26
ATOM     26  C   UNL     1      35.573 -20.867 -20.286  0.00  0.00    -0.044 C 
ATOM     27  C   UNL     1      34.600 -20.165 -21.001  0.00  0.00    -0.006 C 
ATOM     28  C   UNL     1      36.897 -20.430 -20.298  0.00  0.00    -0.006 C 
ATOM     29  C   UNL     1      34.953 -19.029 -21.728  0.00  0.00    -0.000 C 
ATOM     30  C   UNL     1      37.250 -19.293 -21.026  0.00  0.00    -0.000 C 
ATOM     31  C   UNL     1      36.278 -18.593 -21.740  0.00  0.00    -0.000 C 
ENDBRANCH  25  26
ENDBRANCH  22  25
ENDBRANCH  21  22
ENDBRANCH  20  21
ENDBRANCH   4  20
TORSDOF 6
ENDMDL
MODEL 7
REMARK VINA RESULT:      -9.5     11.587     15.275
REMARK  Name = 25052630
REMARK  6 active torsions:
REMARK  status: ('A' for Active; 'I' for Inactive)
REMARK    1  A    between atoms: N_2  and  C_11
REMARK    2  A    between atoms: C_4  and  C_20
REMARK    3  A    between atoms: C_20  and  C_21
REMARK    4  A    between atoms: C_21  and  N_22
REMARK    5  A    between atoms: N_22  and  C_25
REMARK    6  A    between atoms: C_25  and  C_26
REMARK                            x       y       z     vdW  Elec       q    Type
REMARK                         _______ _______ _______ _____ _____    ______ ____
ROOT
ATOM      1  S   UNL     1      31.533 -10.408 -19.644  0.00  0.00    -0.018 S 
ATOM      2  N   UNL     1      32.284 -11.261 -22.203  0.00  0.00    -0.270 N 
ATOM      3  N   UNL     1      32.277 -12.849 -20.608  0.00  0.00    -0.294 N 
ATOM      4  C   UNL     1      32.671 -12.481 -22.754  0.00  0.00    +0.043 C 
ATOM      5  C   UNL     1      32.024 -11.473 -20.818  0.00  0.00    +0.142 C 
ATOM      6  C   UNL     1      32.662 -13.418 -21.793  0.00  0.00    +0.074 C 
ATOM      7  H   UNL     1      32.191 -13.321 -19.749  0.00  0.00    +0.154 HD
ENDROOT
BRANCH   2  11
ATOM      8  F   UNL     1      30.836  -5.395 -24.068  0.00  0.00    -0.201 F 
ATOM      9  F   UNL     1      35.439  -5.357 -25.149  0.00  0.00    -0.204 F 
ATOM     10  O   UNL     1      31.014  -7.880 -23.077  0.00  0.00    -0.472 OA
ATOM     11  C   UNL     1      32.183 -10.032 -22.947  0.00  0.00    +0.127 C 
ATOM     12  C   UNL     1      33.547  -9.364 -23.099  0.00  0.00    +0.054 C 
ATOM     13  C   UNL     1      31.226  -9.050 -22.280  0.00  0.00    +0.226 C 
ATOM     14  C   UNL     1      33.393  -7.965 -23.626  0.00  0.00    +0.018 C 
ATOM     15  C   UNL     1      32.156  -7.309 -23.576  0.00  0.00    +0.162 C 
ATOM     16  C   UNL     1      34.503  -7.292 -24.154  0.00  0.00    +0.029 C 
ATOM     17  C   UNL     1      32.025  -6.013 -24.083  0.00  0.00    +0.176 C 
ATOM     18  C   UNL     1      34.372  -5.993 -24.647  0.00  0.00    +0.142 C 
ATOM     19  C   UNL     1      33.134  -5.356 -24.616  0.00  0.00    +0.062 C 
ENDBRANCH   2  11
BRANCH   4  20
ATOM     20  C   UNL     1      33.023 -12.644 -24.186  0.00  0.00    +0.019 C 
BRANCH  20  21
ATOM     21  C   UNL     1      33.802 -13.936 -24.429  0.00  0.00    -0.075 C 
BRANCH  21  22
ATOM     22  N   UNL     1      32.961 -14.922 -25.099  0.00  0.00    +0.387 N 
ATOM     23  H   UNL     1      32.307 -14.439 -25.715  0.00  0.00    -0.084 HD
ATOM     24  H   UNL     1      32.456 -15.454 -24.391  0.00  0.00    -0.084 HD
BRANCH  22  25
ATOM     25  C   UNL     1      33.768 -15.843 -25.887  0.00  0.00    -0.054 C 
BRANCH  25  26
ATOM     26  C   UNL     1      34.176 -17.053 -25.090  0.00  0.00    -0.044 C 
ATOM     27  C   UNL     1      33.773 -18.326 -25.499  0.00  0.00    -0.006 C 
ATOM     28  C   UNL     1      34.957 -16.904 -23.945  0.00  0.00    -0.006 C 
ATOM     29  C   UNL     1      34.152 -19.447 -24.761  0.00  0.00    -0.000 C 
ATOM     30  C   UNL     1      35.336 -18.026 -23.208  0.00  0.00    -0.000 C 
ATOM     31  C   UNL     1      34.933 -19.298 -23.616  0.00  0.00    -0.000 C 
ENDBRANCH  25  26
ENDBRANCH  22  25
ENDBRANCH  21  22
ENDBRANCH  20  21
ENDBRANCH   4  20
TORSDOF 6
ENDMDL
MODEL 8
REMARK VINA RESULT:      -9.5      3.282      5.273
REMARK  Name = 25052630
REMARK  6 active torsions:
REMARK  status: ('A' for Active; 'I' for Inactive)
REMARK    1  A    between atoms: N_2  and  C_11
REMARK    2  A    between atoms: C_4  and  C_20
REMARK    3  A    between atoms: C_20  and  C_21
REMARK    4  A    between atoms: C_21  and  N_22
REMARK    5  A    between atoms: N_22  and  C_25
REMARK    6  A    between atoms: C_25  and  C_26
REMARK                            x       y       z     vdW  Elec       q    Type
REMARK                         _______ _______ _______ _____ _____    ______ ____
ROOT
ATOM      1  S   UNL     1      31.534 -23.857 -16.185  0.00  0.00    -0.018 S 
ATOM      2  N   UNL     1      34.031 -23.102 -17.203  0.00  0.00    -0.270 N 
ATOM      3  N   UNL     1      32.245 -22.392 -18.373  0.00  0.00    -0.294 N 
ATOM      4  C   UNL     1      34.456 -22.362 -18.304  0.00  0.00    +0.043 C 
ATOM      5  C   UNL     1      32.606 -23.135 -17.226  0.00  0.00    +0.142 C 
ATOM      6  C   UNL     1      33.382 -21.945 -18.992  0.00  0.00    +0.074 C 
ATOM      7  H   UNL     1      31.324 -22.223 -18.678  0.00  0.00    +0.154 HD
ENDROOT
BRANCH   2  11
ATOM      8  F   UNL     1      38.976 -24.393 -13.480  0.00  0.00    -0.201 F 
ATOM      9  F   UNL     1      35.524 -25.076 -10.321  0.00  0.00    -0.204 F 
ATOM     10  O   UNL     1      37.209 -23.684 -15.367  0.00  0.00    -0.472 OA
ATOM     11  C   UNL     1      34.918 -23.706 -16.242  0.00  0.00    +0.127 C 
ATOM     12  C   UNL     1      34.322 -23.665 -14.838  0.00  0.00    +0.054 C 
ATOM     13  C   UNL     1      36.276 -23.012 -16.220  0.00  0.00    +0.226 C 
ATOM     14  C   UNL     1      35.357 -24.039 -13.815  0.00  0.00    +0.018 C 
ATOM     15  C   UNL     1      36.722 -24.017 -14.130  0.00  0.00    +0.162 C 
ATOM     16  C   UNL     1      34.961 -24.391 -12.518  0.00  0.00    +0.029 C 
ATOM     17  C   UNL     1      37.672 -24.380 -13.171  0.00  0.00    +0.176 C 
ATOM     18  C   UNL     1      35.913 -24.741 -11.559  0.00  0.00    +0.142 C 
ATOM     19  C   UNL     1      37.266 -24.740 -11.887  0.00  0.00    +0.062 C 
ENDBRANCH   2  11
BRANCH   4  20
ATOM     20  C   UNL     1      35.887 -22.114 -18.605  0.00  0.00    +0.019 C 
BRANCH  20  21
ATOM     21  C   UNL     1      36.089 -21.683 -20.058  0.00  0.00    -0.075 C 
BRANCH  21  22
ATOM     22  N   UNL     1      35.419 -20.413 -20.313  0.00  0.00    +0.387 N 
ATOM     23  H   UNL     1      35.093 -20.024 -19.428  0.00  0.00    -0.084 HD
ATOM     24  H   UNL     1      34.632 -20.580 -20.940  0.00  0.00    -0.084 HD
BRANCH  22  25
ATOM     25  C   UNL     1      36.326 -19.466 -20.945  0.00  0.00    -0.054 C 
BRANCH  25  26
ATOM     26  C   UNL     1      35.693 -18.789 -22.131  0.00  0.00    -0.044 C 
ATOM     27  C   UNL     1      35.799 -17.405 -22.284  0.00  0.00    -0.006 C 
ATOM     28  C   UNL     1      35.002 -19.543 -23.078  0.00  0.00    -0.006 C 
ATOM     29  C   UNL     1      35.213 -16.778 -23.383  0.00  0.00    -0.000 C 
ATOM     30  C   UNL     1      34.415 -18.915 -24.178  0.00  0.00    -0.000 C 
ATOM     31  C   UNL     1      34.521 -17.533 -24.330  0.00  0.00    -0.000 C 
ENDBRANCH  25  26
ENDBRANCH  22  25
ENDBRANCH  21  22
ENDBRANCH  20  21
ENDBRANCH   4  20
TORSDOF 6
ENDMDL
MODEL 9
REMARK VINA RESULT:      -9.4      1.626      2.314
REMARK  Name = 25052630
REMARK  6 active torsions:
REMARK  status: ('A' for Active; 'I' for Inactive)
REMARK    1  A    between atoms: N_2  and  C_11
REMARK    2  A    between atoms: C_4  and  C_20
REMARK    3  A    between atoms: C_20  and  C_21
REMARK    4  A    between atoms: C_21  and  N_22
REMARK    5  A    between atoms: N_22  and  C_25
REMARK    6  A    between atoms: C_25  and  C_26
REMARK                            x       y       z     vdW  Elec       q    Type
REMARK                         _______ _______ _______ _____ _____    ______ ____
ROOT
ATOM      1  S   UNL     1      35.336 -24.790 -11.882  0.00  0.00    -0.018 S 
ATOM      2  N   UNL     1      35.397 -23.697 -14.459  0.00  0.00    -0.270 N 
ATOM      3  N   UNL     1      37.398 -24.224 -13.575  0.00  0.00    -0.294 N 
ATOM      4  C   UNL     1      36.407 -23.386 -15.367  0.00  0.00    +0.043 C 
ATOM      5  C   UNL     1      36.012 -24.240 -13.293  0.00  0.00    +0.142 C 
ATOM      6  C   UNL     1      37.594 -23.706 -14.827  0.00  0.00    +0.074 C 
ATOM      7  H   UNL     1      38.108 -24.535 -12.968  0.00  0.00    +0.154 HD
ENDROOT
BRANCH   2  11
ATOM      8  F   UNL     1      29.794 -22.775 -17.240  0.00  0.00    -0.201 F 
ATOM      9  F   UNL     1      28.471 -26.012 -14.057  0.00  0.00    -0.204 F 
ATOM     10  O   UNL     1      32.344 -22.911 -16.428  0.00  0.00    -0.472 OA
ATOM     11  C   UNL     1      33.994 -23.485 -14.705  0.00  0.00    +0.127 C 
ATOM     12  C   UNL     1      33.163 -24.672 -14.226  0.00  0.00    +0.054 C 
ATOM     13  C   UNL     1      33.713 -23.254 -16.186  0.00  0.00    +0.226 C 
ATOM     14  C   UNL     1      31.752 -24.566 -14.732  0.00  0.00    +0.018 C 
ATOM     15  C   UNL     1      31.430 -23.713 -15.795  0.00  0.00    +0.162 C 
ATOM     16  C   UNL     1      30.743 -25.349 -14.154  0.00  0.00    +0.029 C 
ATOM     17  C   UNL     1      30.111 -23.616 -16.246  0.00  0.00    +0.176 C 
ATOM     18  C   UNL     1      29.429 -25.259 -14.615  0.00  0.00    +0.142 C 
ATOM     19  C   UNL     1      29.113 -24.390 -15.657  0.00  0.00    +0.062 C 
ENDBRANCH   2  11
BRANCH   4  20
ATOM     20  C   UNL     1      36.138 -22.798 -16.701  0.00  0.00    +0.019 C 
BRANCH  20  21
ATOM     21  C   UNL     1      37.093 -21.644 -17.009  0.00  0.00    -0.075 C 
BRANCH  21  22
ATOM     22  N   UNL     1      37.018 -21.280 -18.419  0.00  0.00    +0.387 N 
ATOM     23  H   UNL     1      37.951 -21.336 -18.828  0.00  0.00    -0.084 HD
ATOM     24  H   UNL     1      36.654 -20.331 -18.492  0.00  0.00    -0.084 HD
BRANCH  22  25
ATOM     25  C   UNL     1      36.126 -22.177 -19.140  0.00  0.00    -0.054 C 
BRANCH  25  26
ATOM     26  C   UNL     1      35.032 -21.428 -19.852  0.00  0.00    -0.044 C 
ATOM     27  C   UNL     1      33.695 -21.702 -19.560  0.00  0.00    -0.006 C 
ATOM     28  C   UNL     1      35.354 -20.459 -20.801  0.00  0.00    -0.006 C 
ATOM     29  C   UNL     1      32.681 -21.007 -20.220  0.00  0.00    -0.000 C 
ATOM     30  C   UNL     1      34.339 -19.764 -21.461  0.00  0.00    -0.000 C 
ATOM     31  C   UNL     1      33.003 -20.038 -21.170  0.00  0.00    -0.000 C 
ENDBRANCH  25  26
ENDBRANCH  22  25
ENDBRANCH  21  22
ENDBRANCH  20  21
ENDBRANCH   4  20
TORSDOF 6
ENDMDL
