MODEL 1
REMARK VINA RESULT:     -12.5      0.000      0.000
REMARK  Name = 24875320
REMARK  6 active torsions:
REMARK  status: ('A' for Active; 'I' for Inactive)
REMARK    1  A    between atoms: C_1  and  N_22
REMARK    2  A    between atoms: C_3  and  C_10
REMARK    3  A    between atoms: N_9  and  C_12
REMARK    4  A    between atoms: C_14  and  C_21
REMARK    5  A    between atoms: N_22  and  C_25
REMARK    6  A    between atoms: C_28  and  C_32
REMARK                            x       y       z     vdW  Elec       q    Type
REMARK                         _______ _______ _______ _____ _____    ______ ____
ROOT
ATOM      1  C   UNL     1      35.864 -22.779 -16.464  0.00  0.00    +0.044 C 
ATOM      2  C   UNL     1      34.660 -23.483 -16.461  0.00  0.00    -0.008 C 
ATOM      3  C   UNL     1      35.422 -22.033 -18.720  0.00  0.00    +0.055 C 
ATOM      4  C   UNL     1      36.245 -22.055 -17.593  0.00  0.00    +0.019 C 
ATOM      5  C   UNL     1      33.837 -23.463 -17.587  0.00  0.00    -0.003 C 
ATOM      6  C   UNL     1      34.218 -22.738 -18.716  0.00  0.00    +0.004 C 
ATOM      7  C   UNL     1      34.226 -24.267 -15.265  0.00  0.00    +0.032 C 
ENDROOT
BRANCH   3  10
ATOM      8  O   UNL     1      36.914 -21.524 -20.429  0.00  0.00    -0.270 OA
ATOM      9  N   UNL     1      34.916 -20.297 -20.328  0.00  0.00    -0.280 N 
ATOM     10  C   UNL     1      35.819 -21.279 -19.897  0.00  0.00    +0.250 C 
ATOM     11  H   UNL     1      34.086 -20.219 -19.804  0.00  0.00    +0.155 HD
BRANCH   9  12
ATOM     12  C   UNL     1      35.042 -19.401 -21.419  0.00  0.00    +0.050 C 
ATOM     13  C   UNL     1      34.549 -19.756 -22.675  0.00  0.00    +0.019 C 
ATOM     14  C   UNL     1      34.673 -18.874 -23.748  0.00  0.00    +0.073 C 
ATOM     15  C   UNL     1      35.660 -18.164 -21.237  0.00  0.00    +0.015 C 
ATOM     16  C   UNL     1      35.292 -17.636 -23.565  0.00  0.00    +0.004 C 
ATOM     17  C   UNL     1      35.785 -17.282 -22.310  0.00  0.00    +0.001 C 
BRANCH  14  21
ATOM     18  F   UNL     1      34.521 -20.501 -25.494  0.00  0.00    -0.166 F 
ATOM     19  F   UNL     1      32.782 -19.249 -25.162  0.00  0.00    -0.166 F 
ATOM     20  F   UNL     1      34.567 -18.407 -26.076  0.00  0.00    -0.166 F 
ATOM     21  C   UNL     1      34.146 -19.252 -25.090  0.00  0.00    +0.419 C 
ENDBRANCH  14  21
ENDBRANCH   9  12
ENDBRANCH   3  10
BRANCH   1  22
ATOM     22  N   UNL     1      36.709 -22.788 -15.333  0.00  0.00    -0.312 N 
ATOM     23  H   UNL     1      36.903 -21.891 -14.976  0.00  0.00    +0.152 HD
BRANCH  22  25
ATOM     24  N   UNL     1      37.377 -25.239 -12.652  0.00  0.00    -0.241 NA
ATOM     25  C   UNL     1      37.328 -23.829 -14.615  0.00  0.00    +0.068 C 
ATOM     26  C   UNL     1      38.457 -24.470 -15.113  0.00  0.00    +0.022 C 
ATOM     27  C   UNL     1      36.831 -24.247 -13.391  0.00  0.00    +0.113 C 
ATOM     28  C   UNL     1      39.046 -25.496 -14.382  0.00  0.00    +0.073 C 
ATOM     29  C   UNL     1      38.473 -25.839 -13.168  0.00  0.00    +0.103 C 
BRANCH  28  32
ATOM     30  O   UNL     1      40.581 -26.098 -16.064  0.00  0.00    -0.270 OA
ATOM     31  N   UNL     1      40.967 -26.935 -13.964  0.00  0.00    -0.325 N 
ATOM     32  C   UNL     1      40.226 -26.184 -14.874  0.00  0.00    +0.244 C 
ATOM     33  H   UNL     1      41.773 -27.415 -14.262  0.00  0.00    +0.145 HD
ATOM     34  H   UNL     1      40.685 -26.985 -13.022  0.00  0.00    +0.145 HD
ENDBRANCH  28  32
ENDBRANCH  22  25
ENDBRANCH   1  22
TORSDOF 6
ENDMDL
MODEL 2
REMARK VINA RESULT:     -12.4      1.745      2.451
REMARK  Name = 24875320
REMARK  6 active torsions:
REMARK  status: ('A' for Active; 'I' for Inactive)
REMARK    1  A    between atoms: C_1  and  N_22
REMARK    2  A    between atoms: C_3  and  C_10
REMARK    3  A    between atoms: N_9  and  C_12
REMARK    4  A    between atoms: C_14  and  C_21
REMARK    5  A    between atoms: N_22  and  C_25
REMARK    6  A    between atoms: C_28  and  C_32
REMARK                            x       y       z     vdW  Elec       q    Type
REMARK                         _______ _______ _______ _____ _____    ______ ____
ROOT
ATOM      1  C   UNL     1      35.648 -22.868 -16.622  0.00  0.00    +0.044 C 
ATOM      2  C   UNL     1      34.378 -23.442 -16.590  0.00  0.00    -0.008 C 
ATOM      3  C   UNL     1      35.199 -21.997 -18.831  0.00  0.00    +0.055 C 
ATOM      4  C   UNL     1      36.059 -22.146 -17.742  0.00  0.00    +0.019 C 
ATOM      5  C   UNL     1      33.518 -23.294 -17.678  0.00  0.00    -0.003 C 
ATOM      6  C   UNL     1      33.929 -22.572 -18.799  0.00  0.00    +0.004 C 
ATOM      7  C   UNL     1      33.911 -24.220 -15.403  0.00  0.00    +0.032 C 
ENDROOT
BRANCH   3  10
ATOM      8  O   UNL     1      36.712 -21.528 -20.534  0.00  0.00    -0.270 OA
ATOM      9  N   UNL     1      34.766 -20.222 -20.418  0.00  0.00    -0.280 N 
ATOM     10  C   UNL     1      35.628 -21.245 -19.999  0.00  0.00    +0.250 C 
ATOM     11  H   UNL     1      33.940 -20.116 -19.893  0.00  0.00    +0.155 HD
BRANCH   9  12
ATOM     12  C   UNL     1      34.929 -19.319 -21.497  0.00  0.00    +0.050 C 
ATOM     13  C   UNL     1      34.443 -19.647 -22.763  0.00  0.00    +0.019 C 
ATOM     14  C   UNL     1      34.603 -18.758 -23.825  0.00  0.00    +0.073 C 
ATOM     15  C   UNL     1      35.576 -18.100 -21.294  0.00  0.00    +0.015 C 
ATOM     16  C   UNL     1      35.251 -17.539 -23.621  0.00  0.00    +0.004 C 
ATOM     17  C   UNL     1      35.737 -17.210 -22.356  0.00  0.00    +0.001 C 
BRANCH  14  21
ATOM     18  F   UNL     1      32.721 -19.120 -25.256  0.00  0.00    -0.166 F 
ATOM     19  F   UNL     1      34.490 -18.249 -26.158  0.00  0.00    -0.166 F 
ATOM     20  F   UNL     1      34.484 -20.348 -25.588  0.00  0.00    -0.166 F 
ATOM     21  C   UNL     1      34.084 -19.109 -25.177  0.00  0.00    +0.419 C 
ENDBRANCH  14  21
ENDBRANCH   9  12
ENDBRANCH   3  10
BRANCH   1  22
ATOM     22  N   UNL     1      36.531 -23.007 -15.529  0.00  0.00    -0.312 N 
ATOM     23  H   UNL     1      37.142 -22.243 -15.413  0.00  0.00    +0.152 HD
BRANCH  22  25
ATOM     24  N   UNL     1      37.444 -26.269 -14.059  0.00  0.00    -0.241 NA
ATOM     25  C   UNL     1      36.710 -24.024 -14.572  0.00  0.00    +0.068 C 
ATOM     26  C   UNL     1      36.356 -23.827 -13.242  0.00  0.00    +0.022 C 
ATOM     27  C   UNL     1      37.246 -25.252 -14.926  0.00  0.00    +0.113 C 
ATOM     28  C   UNL     1      36.546 -24.850 -12.320  0.00  0.00    +0.073 C 
ATOM     29  C   UNL     1      37.088 -26.042 -12.774  0.00  0.00    +0.103 C 
BRANCH  28  32
ATOM     30  O   UNL     1      35.388 -25.447 -10.357  0.00  0.00    -0.270 OA
ATOM     31  N   UNL     1      36.776 -23.626 -10.226  0.00  0.00    -0.325 N 
ATOM     32  C   UNL     1      36.185 -24.677 -10.924  0.00  0.00    +0.244 C 
ATOM     33  H   UNL     1      36.556 -23.478  -9.278  0.00  0.00    +0.145 HD
ATOM     34  H   UNL     1      37.416 -23.031 -10.681  0.00  0.00    +0.145 HD
ENDBRANCH  28  32
ENDBRANCH  22  25
ENDBRANCH   1  22
TORSDOF 6
ENDMDL
MODEL 3
REMARK VINA RESULT:     -12.4      6.311      9.741
REMARK  Name = 24875320
REMARK  6 active torsions:
REMARK  status: ('A' for Active; 'I' for Inactive)
REMARK    1  A    between atoms: C_1  and  N_22
REMARK    2  A    between atoms: C_3  and  C_10
REMARK    3  A    between atoms: N_9  and  C_12
REMARK    4  A    between atoms: C_14  and  C_21
REMARK    5  A    between atoms: N_22  and  C_25
REMARK    6  A    between atoms: C_28  and  C_32
REMARK                            x       y       z     vdW  Elec       q    Type
REMARK                         _______ _______ _______ _____ _____    ______ ____
ROOT
ATOM      1  C   UNL     1      35.077 -17.286 -23.817  0.00  0.00    +0.044 C 
ATOM      2  C   UNL     1      34.308 -17.613 -24.934  0.00  0.00    -0.008 C 
ATOM      3  C   UNL     1      34.177 -15.044 -23.855  0.00  0.00    +0.055 C 
ATOM      4  C   UNL     1      35.011 -16.001 -23.278  0.00  0.00    +0.019 C 
ATOM      5  C   UNL     1      33.474 -16.656 -25.512  0.00  0.00    -0.003 C 
ATOM      6  C   UNL     1      33.408 -15.371 -24.972  0.00  0.00    +0.004 C 
ATOM      7  C   UNL     1      34.358 -18.981 -25.532  0.00  0.00    +0.032 C 
ENDROOT
BRANCH   3  10
ATOM      8  O   UNL     1      34.072 -13.569 -22.059  0.00  0.00    -0.270 OA
ATOM      9  N   UNL     1      34.069 -12.654 -24.220  0.00  0.00    -0.280 N 
ATOM     10  C   UNL     1      34.109 -13.705 -23.293  0.00  0.00    +0.250 C 
ATOM     11  H   UNL     1      34.107 -12.917 -25.168  0.00  0.00    +0.155 HD
BRANCH   9  12
ATOM     12  C   UNL     1      33.979 -11.262 -23.971  0.00  0.00    +0.050 C 
ATOM     13  C   UNL     1      32.893 -10.748 -23.262  0.00  0.00    +0.019 C 
ATOM     14  C   UNL     1      32.804  -9.377 -23.018  0.00  0.00    +0.073 C 
ATOM     15  C   UNL     1      34.977 -10.405 -24.435  0.00  0.00    +0.015 C 
ATOM     16  C   UNL     1      33.803  -8.520 -23.483  0.00  0.00    +0.004 C 
ATOM     17  C   UNL     1      34.888  -9.035 -24.191  0.00  0.00    +0.001 C 
BRANCH  14  21
ATOM     18  F   UNL     1      31.989  -7.884 -21.336  0.00  0.00    -0.166 F 
ATOM     19  F   UNL     1      30.711  -8.223 -23.055  0.00  0.00    -0.166 F 
ATOM     20  F   UNL     1      30.966  -9.789 -21.567  0.00  0.00    -0.166 F 
ATOM     21  C   UNL     1      31.644  -8.827 -22.261  0.00  0.00    +0.419 C 
ENDBRANCH  14  21
ENDBRANCH   9  12
ENDBRANCH   3  10
BRANCH   1  22
ATOM     22  N   UNL     1      35.926 -18.243 -23.219  0.00  0.00    -0.312 N 
ATOM     23  H   UNL     1      36.794 -18.340 -23.673  0.00  0.00    +0.152 HD
BRANCH  22  25
ATOM     24  N   UNL     1      36.768 -20.164 -20.181  0.00  0.00    -0.241 NA
ATOM     25  C   UNL     1      35.775 -19.084 -22.101  0.00  0.00    +0.068 C 
ATOM     26  C   UNL     1      34.545 -19.658 -21.798  0.00  0.00    +0.022 C 
ATOM     27  C   UNL     1      36.845 -19.366 -21.269  0.00  0.00    +0.113 C 
ATOM     28  C   UNL     1      34.425 -20.484 -20.686  0.00  0.00    +0.073 C 
ATOM     29  C   UNL     1      35.557 -20.705 -19.917  0.00  0.00    +0.103 C 
BRANCH  28  32
ATOM     30  O   UNL     1      32.076 -20.633 -20.749  0.00  0.00    -0.270 OA
ATOM     31  N   UNL     1      33.182 -22.246 -19.552  0.00  0.00    -0.325 N 
ATOM     32  C   UNL     1      33.156 -21.099 -20.342  0.00  0.00    +0.244 C 
ATOM     33  H   UNL     1      32.340 -22.690 -19.300  0.00  0.00    +0.145 HD
ATOM     34  H   UNL     1      34.042 -22.614 -19.247  0.00  0.00    +0.145 HD
ENDBRANCH  28  32
ENDBRANCH  22  25
ENDBRANCH   1  22
TORSDOF 6
ENDMDL
MODEL 4
REMARK VINA RESULT:     -12.1      5.476      8.809
REMARK  Name = 24875320
REMARK  6 active torsions:
REMARK  status: ('A' for Active; 'I' for Inactive)
REMARK    1  A    between atoms: C_1  and  N_22
REMARK    2  A    between atoms: C_3  and  C_10
REMARK    3  A    between atoms: N_9  and  C_12
REMARK    4  A    between atoms: C_14  and  C_21
REMARK    5  A    between atoms: N_22  and  C_25
REMARK    6  A    between atoms: C_28  and  C_32
REMARK                            x       y       z     vdW  Elec       q    Type
REMARK                         _______ _______ _______ _____ _____    ______ ____
ROOT
ATOM      1  C   UNL     1      34.898 -18.192 -23.317  0.00  0.00    +0.044 C 
ATOM      2  C   UNL     1      34.444 -18.488 -24.602  0.00  0.00    -0.008 C 
ATOM      3  C   UNL     1      34.467 -15.846 -23.706  0.00  0.00    +0.055 C 
ATOM      4  C   UNL     1      34.910 -16.871 -22.870  0.00  0.00    +0.019 C 
ATOM      5  C   UNL     1      34.000 -17.464 -25.439  0.00  0.00    -0.003 C 
ATOM      6  C   UNL     1      34.013 -16.143 -24.992  0.00  0.00    +0.004 C 
ATOM      7  C   UNL     1      34.418 -19.894 -25.107  0.00  0.00    +0.032 C 
ENDROOT
BRANCH   3  10
ATOM      8  O   UNL     1      34.926 -14.220 -22.107  0.00  0.00    -0.270 OA
ATOM      9  N   UNL     1      33.956 -13.518 -24.126  0.00  0.00    -0.280 N 
ATOM     10  C   UNL     1      34.481 -14.469 -23.240  0.00  0.00    +0.250 C 
ATOM     11  H   UNL     1      33.641 -13.866 -24.991  0.00  0.00    +0.155 HD
BRANCH   9  12
ATOM     12  C   UNL     1      33.819 -12.120 -23.939  0.00  0.00    +0.050 C 
ATOM     13  C   UNL     1      32.843 -11.624 -23.074  0.00  0.00    +0.019 C 
ATOM     14  C   UNL     1      32.707 -10.248 -22.890  0.00  0.00    +0.073 C 
ATOM     15  C   UNL     1      34.659 -11.239 -24.620  0.00  0.00    +0.015 C 
ATOM     16  C   UNL     1      33.548  -9.368 -23.572  0.00  0.00    +0.004 C 
ATOM     17  C   UNL     1      34.524  -9.864 -24.436  0.00  0.00    +0.001 C 
BRANCH  14  21
ATOM     18  F   UNL     1      31.965  -9.886 -20.645  0.00  0.00    -0.166 F 
ATOM     19  F   UNL     1      31.436  -8.379 -22.112  0.00  0.00    -0.166 F 
ATOM     20  F   UNL     1      30.451 -10.317 -22.144  0.00  0.00    -0.166 F 
ATOM     21  C   UNL     1      31.665  -9.718 -21.966  0.00  0.00    +0.419 C 
ENDBRANCH  14  21
ENDBRANCH   9  12
ENDBRANCH   3  10
BRANCH   1  22
ATOM     22  N   UNL     1      35.349 -19.216 -22.456  0.00  0.00    -0.312 N 
ATOM     23  H   UNL     1      36.305 -19.430 -22.562  0.00  0.00    +0.152 HD
BRANCH  22  25
ATOM     24  N   UNL     1      32.635 -20.808 -20.525  0.00  0.00    -0.241 NA
ATOM     25  C   UNL     1      34.701 -19.991 -21.477  0.00  0.00    +0.068 C 
ATOM     26  C   UNL     1      35.427 -20.690 -20.519  0.00  0.00    +0.022 C 
ATOM     27  C   UNL     1      33.319 -20.082 -21.437  0.00  0.00    +0.113 C 
ATOM     28  C   UNL     1      34.759 -21.449 -19.565  0.00  0.00    +0.073 C 
ATOM     29  C   UNL     1      33.374 -21.475 -19.610  0.00  0.00    +0.103 C 
BRANCH  28  32
ATOM     30  O   UNL     1      35.016 -23.216 -18.029  0.00  0.00    -0.270 OA
ATOM     31  N   UNL     1      36.752 -21.727 -18.192  0.00  0.00    -0.325 N 
ATOM     32  C   UNL     1      35.488 -22.190 -18.552  0.00  0.00    +0.244 C 
ATOM     33  H   UNL     1      37.275 -22.205 -17.508  0.00  0.00    +0.145 HD
ATOM     34  H   UNL     1      37.122 -20.922 -18.621  0.00  0.00    +0.145 HD
ENDBRANCH  28  32
ENDBRANCH  22  25
ENDBRANCH   1  22
TORSDOF 6
ENDMDL
MODEL 5
REMARK VINA RESULT:     -12.0      3.148      5.283
REMARK  Name = 24875320
REMARK  6 active torsions:
REMARK  status: ('A' for Active; 'I' for Inactive)
REMARK    1  A    between atoms: C_1  and  N_22
REMARK    2  A    between atoms: C_3  and  C_10
REMARK    3  A    between atoms: N_9  and  C_12
REMARK    4  A    between atoms: C_14  and  C_21
REMARK    5  A    between atoms: N_22  and  C_25
REMARK    6  A    between atoms: C_28  and  C_32
REMARK                            x       y       z     vdW  Elec       q    Type
REMARK                         _______ _______ _______ _____ _____    ______ ____
ROOT
ATOM      1  C   UNL     1      34.670 -23.167 -17.156  0.00  0.00    +0.044 C 
ATOM      2  C   UNL     1      36.003 -23.059 -16.761  0.00  0.00    -0.008 C 
ATOM      3  C   UNL     1      35.090 -21.643 -18.985  0.00  0.00    +0.055 C 
ATOM      4  C   UNL     1      34.214 -22.458 -18.268  0.00  0.00    +0.019 C 
ATOM      5  C   UNL     1      36.880 -22.244 -17.477  0.00  0.00    -0.003 C 
ATOM      6  C   UNL     1      36.423 -21.535 -18.588  0.00  0.00    +0.004 C 
ATOM      7  C   UNL     1      36.520 -23.807 -15.575  0.00  0.00    +0.032 C 
ENDROOT
BRANCH   3  10
ATOM      8  O   UNL     1      33.519 -21.209 -20.644  0.00  0.00    -0.270 OA
ATOM      9  N   UNL     1      35.465 -19.898 -20.619  0.00  0.00    -0.280 N 
ATOM     10  C   UNL     1      34.614 -20.905 -20.143  0.00  0.00    +0.250 C 
ATOM     11  H   UNL     1      36.302 -19.771 -20.116  0.00  0.00    +0.155 HD
BRANCH   9  12
ATOM     12  C   UNL     1      35.281 -19.040 -21.731  0.00  0.00    +0.050 C 
ATOM     13  C   UNL     1      34.795 -19.552 -22.935  0.00  0.00    +0.019 C 
ATOM     14  C   UNL     1      34.614 -18.707 -24.030  0.00  0.00    +0.073 C 
ATOM     15  C   UNL     1      35.585 -17.683 -21.623  0.00  0.00    +0.015 C 
ATOM     16  C   UNL     1      34.918 -17.350 -23.921  0.00  0.00    +0.004 C 
ATOM     17  C   UNL     1      35.403 -16.839 -22.718  0.00  0.00    +0.001 C 
BRANCH  14  21
ATOM     18  F   UNL     1      34.498 -20.533 -25.571  0.00  0.00    -0.166 F 
ATOM     19  F   UNL     1      32.732 -19.289 -25.385  0.00  0.00    -0.166 F 
ATOM     20  F   UNL     1      34.497 -18.522 -26.397  0.00  0.00    -0.166 F 
ATOM     21  C   UNL     1      34.096 -19.254 -25.316  0.00  0.00    +0.419 C 
ENDBRANCH  14  21
ENDBRANCH   9  12
ENDBRANCH   3  10
BRANCH   1  22
ATOM     22  N   UNL     1      33.769 -23.988 -16.444  0.00  0.00    -0.312 N 
ATOM     23  H   UNL     1      34.043 -24.933 -16.402  0.00  0.00    +0.152 HD
BRANCH  22  25
ATOM     24  N   UNL     1      31.389 -23.266 -13.714  0.00  0.00    -0.241 NA
ATOM     25  C   UNL     1      32.556 -23.720 -15.782  0.00  0.00    +0.068 C 
ATOM     26  C   UNL     1      31.359 -23.641 -16.484  0.00  0.00    +0.022 C 
ATOM     27  C   UNL     1      32.518 -23.527 -14.410  0.00  0.00    +0.113 C 
ATOM     28  C   UNL     1      30.176 -23.373 -15.803  0.00  0.00    +0.073 C 
ATOM     29  C   UNL     1      30.244 -23.196 -14.430  0.00  0.00    +0.103 C 
BRANCH  28  32
ATOM     30  O   UNL     1      28.390 -22.185 -16.776  0.00  0.00    -0.270 OA
ATOM     31  N   UNL     1      28.297 -24.474 -16.893  0.00  0.00    -0.325 N 
ATOM     32  C   UNL     1      28.910 -23.284 -16.507  0.00  0.00    +0.244 C 
ATOM     33  H   UNL     1      27.437 -24.452 -17.373  0.00  0.00    +0.145 HD
ATOM     34  H   UNL     1      28.723 -25.337 -16.688  0.00  0.00    +0.145 HD
ENDBRANCH  28  32
ENDBRANCH  22  25
ENDBRANCH   1  22
TORSDOF 6
ENDMDL
MODEL 6
REMARK VINA RESULT:     -11.9      5.815     11.900
REMARK  Name = 24875320
REMARK  6 active torsions:
REMARK  status: ('A' for Active; 'I' for Inactive)
REMARK    1  A    between atoms: C_1  and  N_22
REMARK    2  A    between atoms: C_3  and  C_10
REMARK    3  A    between atoms: N_9  and  C_12
REMARK    4  A    between atoms: C_14  and  C_21
REMARK    5  A    between atoms: N_22  and  C_25
REMARK    6  A    between atoms: C_28  and  C_32
REMARK                            x       y       z     vdW  Elec       q    Type
REMARK                         _______ _______ _______ _____ _____    ______ ____
ROOT
ATOM      1  C   UNL     1      34.169 -15.079 -24.158  0.00  0.00    +0.044 C 
ATOM      2  C   UNL     1      33.560 -15.166 -25.410  0.00  0.00    -0.008 C 
ATOM      3  C   UNL     1      34.451 -17.479 -24.129  0.00  0.00    +0.055 C 
ATOM      4  C   UNL     1      34.613 -16.236 -23.517  0.00  0.00    +0.019 C 
ATOM      5  C   UNL     1      33.397 -16.409 -26.022  0.00  0.00    -0.003 C 
ATOM      6  C   UNL     1      33.842 -17.566 -25.381  0.00  0.00    +0.004 C 
ATOM      7  C   UNL     1      33.075 -13.944 -26.120  0.00  0.00    +0.032 C 
ENDROOT
BRANCH   3  10
ATOM      8  O   UNL     1      35.068 -19.722 -24.125  0.00  0.00    -0.270 OA
ATOM      9  N   UNL     1      35.131 -18.573 -22.080  0.00  0.00    -0.280 N 
ATOM     10  C   UNL     1      34.913 -18.684 -23.460  0.00  0.00    +0.250 C 
ATOM     11  H   UNL     1      34.967 -17.684 -21.691  0.00  0.00    +0.155 HD
BRANCH   9  12
ATOM     12  C   UNL     1      35.555 -19.574 -21.171  0.00  0.00    +0.050 C 
ATOM     13  C   UNL     1      34.625 -20.453 -20.616  0.00  0.00    +0.019 C 
ATOM     14  C   UNL     1      35.043 -21.438 -19.721  0.00  0.00    +0.073 C 
ATOM     15  C   UNL     1      36.904 -19.679 -20.830  0.00  0.00    +0.015 C 
ATOM     16  C   UNL     1      36.392 -21.543 -19.381  0.00  0.00    +0.004 C 
ATOM     17  C   UNL     1      37.321 -20.664 -19.935  0.00  0.00    +0.001 C 
BRANCH  14  21
ATOM     18  F   UNL     1      32.771 -21.898 -19.131  0.00  0.00    -0.166 F 
ATOM     19  F   UNL     1      33.981 -23.579 -19.775  0.00  0.00    -0.166 F 
ATOM     20  F   UNL     1      34.324 -22.678 -17.825  0.00  0.00    -0.166 F 
ATOM     21  C   UNL     1      34.049 -22.378 -19.128  0.00  0.00    +0.419 C 
ENDBRANCH  14  21
ENDBRANCH   9  12
ENDBRANCH   3  10
BRANCH   1  22
ATOM     22  N   UNL     1      34.343 -13.829 -23.525  0.00  0.00    -0.312 N 
ATOM     23  H   UNL     1      35.278 -13.522 -23.505  0.00  0.00    +0.152 HD
BRANCH  22  25
ATOM     24  N   UNL     1      31.700 -12.555 -21.282  0.00  0.00    -0.241 NA
ATOM     25  C   UNL     1      33.441 -12.937 -22.915  0.00  0.00    +0.068 C 
ATOM     26  C   UNL     1      33.379 -11.604 -23.305  0.00  0.00    +0.022 C 
ATOM     27  C   UNL     1      32.588 -13.359 -21.908  0.00  0.00    +0.113 C 
ATOM     28  C   UNL     1      32.479 -10.745 -22.683  0.00  0.00    +0.073 C 
ATOM     29  C   UNL     1      31.668 -11.265 -21.687  0.00  0.00    +0.103 C 
BRANCH  28  32
ATOM     30  O   UNL     1      31.327  -8.708 -22.955  0.00  0.00    -0.270 OA
ATOM     31  N   UNL     1      33.541  -8.732 -23.552  0.00  0.00    -0.325 N 
ATOM     32  C   UNL     1      32.389  -9.347 -23.067  0.00  0.00    +0.244 C 
ATOM     33  H   UNL     1      33.517  -7.785 -23.822  0.00  0.00    +0.145 HD
ATOM     34  H   UNL     1      34.379  -9.243 -23.624  0.00  0.00    +0.145 HD
ENDBRANCH  28  32
ENDBRANCH  22  25
ENDBRANCH   1  22
TORSDOF 6
ENDMDL
MODEL 7
REMARK VINA RESULT:     -11.6      5.616      9.092
REMARK  Name = 24875320
REMARK  6 active torsions:
REMARK  status: ('A' for Active; 'I' for Inactive)
REMARK    1  A    between atoms: C_1  and  N_22
REMARK    2  A    between atoms: C_3  and  C_10
REMARK    3  A    between atoms: N_9  and  C_12
REMARK    4  A    between atoms: C_14  and  C_21
REMARK    5  A    between atoms: N_22  and  C_25
REMARK    6  A    between atoms: C_28  and  C_32
REMARK                            x       y       z     vdW  Elec       q    Type
REMARK                         _______ _______ _______ _____ _____    ______ ____
ROOT
ATOM      1  C   UNL     1      34.753 -17.915 -23.455  0.00  0.00    +0.044 C 
ATOM      2  C   UNL     1      34.340 -18.075 -24.777  0.00  0.00    -0.008 C 
ATOM      3  C   UNL     1      34.260 -15.553 -23.587  0.00  0.00    +0.055 C 
ATOM      4  C   UNL     1      34.714 -16.653 -22.860  0.00  0.00    +0.019 C 
ATOM      5  C   UNL     1      33.887 -16.975 -25.505  0.00  0.00    -0.003 C 
ATOM      6  C   UNL     1      33.847 -15.714 -24.910  0.00  0.00    +0.004 C 
ATOM      7  C   UNL     1      34.371 -19.414 -25.439  0.00  0.00    +0.032 C 
ENDROOT
BRANCH   3  10
ATOM      8  O   UNL     1      35.006 -13.984 -22.040  0.00  0.00    -0.270 OA
ATOM      9  N   UNL     1      33.256 -13.354 -23.472  0.00  0.00    -0.280 N 
ATOM     10  C   UNL     1      34.220 -14.238 -22.968  0.00  0.00    +0.250 C 
ATOM     11  H   UNL     1      32.705 -13.697 -24.211  0.00  0.00    +0.155 HD
BRANCH   9  12
ATOM     12  C   UNL     1      32.971 -12.030 -23.055  0.00  0.00    +0.050 C 
ATOM     13  C   UNL     1      33.669 -10.957 -23.609  0.00  0.00    +0.019 C 
ATOM     14  C   UNL     1      33.388  -9.654 -23.198  0.00  0.00    +0.073 C 
ATOM     15  C   UNL     1      31.991 -11.800 -22.089  0.00  0.00    +0.015 C 
ATOM     16  C   UNL     1      32.407  -9.424 -22.232  0.00  0.00    +0.004 C 
ATOM     17  C   UNL     1      31.709 -10.497 -21.678  0.00  0.00    +0.001 C 
BRANCH  14  21
ATOM     18  F   UNL     1      33.327  -7.500 -24.237  0.00  0.00    -0.166 F 
ATOM     19  F   UNL     1      34.999  -7.910 -22.918  0.00  0.00    -0.166 F 
ATOM     20  F   UNL     1      34.892  -8.873 -24.865  0.00  0.00    -0.166 F 
ATOM     21  C   UNL     1      34.133  -8.507 -23.790  0.00  0.00    +0.419 C 
ENDBRANCH  14  21
ENDBRANCH   9  12
ENDBRANCH   3  10
BRANCH   1  22
ATOM     22  N   UNL     1      35.215 -19.017 -22.703  0.00  0.00    -0.312 N 
ATOM     23  H   UNL     1      36.141 -19.278 -22.910  0.00  0.00    +0.152 HD
BRANCH  22  25
ATOM     24  N   UNL     1      32.587 -20.685 -20.716  0.00  0.00    -0.241 NA
ATOM     25  C   UNL     1      34.609 -19.817 -21.716  0.00  0.00    +0.068 C 
ATOM     26  C   UNL     1      35.376 -20.514 -20.788  0.00  0.00    +0.022 C 
ATOM     27  C   UNL     1      33.231 -19.935 -21.637  0.00  0.00    +0.113 C 
ATOM     28  C   UNL     1      34.749 -21.297 -19.825  0.00  0.00    +0.073 C 
ATOM     29  C   UNL     1      33.365 -21.348 -19.831  0.00  0.00    +0.103 C 
BRANCH  28  32
ATOM     30  O   UNL     1      35.079 -23.074 -18.314  0.00  0.00    -0.270 OA
ATOM     31  N   UNL     1      36.789 -21.559 -18.520  0.00  0.00    -0.325 N 
ATOM     32  C   UNL     1      35.521 -22.037 -18.843  0.00  0.00    +0.244 C 
ATOM     33  H   UNL     1      37.341 -22.036 -17.858  0.00  0.00    +0.145 HD
ATOM     34  H   UNL     1      37.134 -20.746 -18.954  0.00  0.00    +0.145 HD
ENDBRANCH  28  32
ENDBRANCH  22  25
ENDBRANCH   1  22
TORSDOF 6
ENDMDL
MODEL 8
REMARK VINA RESULT:     -11.3      5.283     10.594
REMARK  Name = 24875320
REMARK  6 active torsions:
REMARK  status: ('A' for Active; 'I' for Inactive)
REMARK    1  A    between atoms: C_1  and  N_22
REMARK    2  A    between atoms: C_3  and  C_10
REMARK    3  A    between atoms: N_9  and  C_12
REMARK    4  A    between atoms: C_14  and  C_21
REMARK    5  A    between atoms: N_22  and  C_25
REMARK    6  A    between atoms: C_28  and  C_32
REMARK                            x       y       z     vdW  Elec       q    Type
REMARK                         _______ _______ _______ _____ _____    ______ ____
ROOT
ATOM      1  C   UNL     1      34.999 -21.186 -20.137  0.00  0.00    +0.044 C 
ATOM      2  C   UNL     1      33.613 -21.272 -20.005  0.00  0.00    -0.008 C 
ATOM      3  C   UNL     1      35.270 -22.320 -18.020  0.00  0.00    +0.055 C 
ATOM      4  C   UNL     1      35.827 -21.709 -19.144  0.00  0.00    +0.019 C 
ATOM      5  C   UNL     1      33.055 -21.883 -18.882  0.00  0.00    -0.003 C 
ATOM      6  C   UNL     1      33.884 -22.406 -17.889  0.00  0.00    +0.004 C 
ATOM      7  C   UNL     1      32.701 -20.721 -21.053  0.00  0.00    +0.032 C 
ENDROOT
BRANCH   3  10
ATOM      8  O   UNL     1      37.317 -22.493 -16.930  0.00  0.00    -0.270 OA
ATOM      9  N   UNL     1      35.545 -23.805 -16.129  0.00  0.00    -0.280 N 
ATOM     10  C   UNL     1      36.134 -22.865 -16.986  0.00  0.00    +0.250 C 
ATOM     11  H   UNL     1      34.594 -23.999 -16.296  0.00  0.00    +0.155 HD
BRANCH   9  12
ATOM     12  C   UNL     1      36.138 -24.515 -15.056  0.00  0.00    +0.050 C 
ATOM     13  C   UNL     1      36.505 -23.841 -13.891  0.00  0.00    +0.019 C 
ATOM     14  C   UNL     1      37.090 -24.539 -12.835  0.00  0.00    +0.073 C 
ATOM     15  C   UNL     1      36.357 -25.888 -15.165  0.00  0.00    +0.015 C 
ATOM     16  C   UNL     1      37.308 -25.913 -12.944  0.00  0.00    +0.004 C 
ATOM     17  C   UNL     1      36.941 -26.587 -14.109  0.00  0.00    +0.001 C 
BRANCH  14  21
ATOM     18  F   UNL     1      37.259 -22.473 -11.642  0.00  0.00    -0.166 F 
ATOM     19  F   UNL     1      36.816 -24.248 -10.478  0.00  0.00    -0.166 F 
ATOM     20  F   UNL     1      38.809 -23.959 -11.299  0.00  0.00    -0.166 F 
ATOM     21  C   UNL     1      37.482 -23.819 -11.590  0.00  0.00    +0.419 C 
ENDBRANCH  14  21
ENDBRANCH   9  12
ENDBRANCH   3  10
BRANCH   1  22
ATOM     22  N   UNL     1      35.580 -20.572 -21.268  0.00  0.00    -0.312 N 
ATOM     23  H   UNL     1      36.257 -21.129 -21.717  0.00  0.00    +0.152 HD
BRANCH  22  25
ATOM     24  N   UNL     1      35.491 -16.910 -21.732  0.00  0.00    -0.241 NA
ATOM     25  C   UNL     1      35.382 -19.320 -21.880  0.00  0.00    +0.068 C 
ATOM     26  C   UNL     1      34.902 -19.227 -23.181  0.00  0.00    +0.022 C 
ATOM     27  C   UNL     1      35.658 -18.143 -21.204  0.00  0.00    +0.113 C 
ATOM     28  C   UNL     1      34.718 -17.976 -23.760  0.00  0.00    +0.073 C 
ATOM     29  C   UNL     1      35.023 -16.858 -23.000  0.00  0.00    +0.103 C 
BRANCH  28  32
ATOM     30  O   UNL     1      34.735 -17.053 -25.927  0.00  0.00    -0.270 OA
ATOM     31  N   UNL     1      33.147 -18.650 -25.496  0.00  0.00    -0.325 N 
ATOM     32  C   UNL     1      34.219 -17.844 -25.117  0.00  0.00    +0.244 C 
ATOM     33  H   UNL     1      32.783 -18.587 -26.409  0.00  0.00    +0.145 HD
ATOM     34  H   UNL     1      32.754 -19.282 -24.852  0.00  0.00    +0.145 HD
ENDBRANCH  28  32
ENDBRANCH  22  25
ENDBRANCH   1  22
TORSDOF 6
ENDMDL
MODEL 9
REMARK VINA RESULT:     -11.2      3.199      5.477
REMARK  Name = 24875320
REMARK  6 active torsions:
REMARK  status: ('A' for Active; 'I' for Inactive)
REMARK    1  A    between atoms: C_1  and  N_22
REMARK    2  A    between atoms: C_3  and  C_10
REMARK    3  A    between atoms: N_9  and  C_12
REMARK    4  A    between atoms: C_14  and  C_21
REMARK    5  A    between atoms: N_22  and  C_25
REMARK    6  A    between atoms: C_28  and  C_32
REMARK                            x       y       z     vdW  Elec       q    Type
REMARK                         _______ _______ _______ _____ _____    ______ ____
ROOT
ATOM      1  C   UNL     1      35.639 -24.517 -14.769  0.00  0.00    +0.044 C 
ATOM      2  C   UNL     1      36.915 -24.878 -14.339  0.00  0.00    -0.008 C 
ATOM      3  C   UNL     1      36.610 -22.964 -16.345  0.00  0.00    +0.055 C 
ATOM      4  C   UNL     1      35.486 -23.559 -15.772  0.00  0.00    +0.019 C 
ATOM      5  C   UNL     1      38.039 -24.283 -14.911  0.00  0.00    -0.003 C 
ATOM      6  C   UNL     1      37.887 -23.325 -15.914  0.00  0.00    +0.004 C 
ATOM      7  C   UNL     1      37.108 -25.902 -13.267  0.00  0.00    +0.032 C 
ENDROOT
BRANCH   3  10
ATOM      8  O   UNL     1      37.211 -20.984 -17.407  0.00  0.00    -0.270 OA
ATOM      9  N   UNL     1      35.410 -22.193 -18.300  0.00  0.00    -0.280 N 
ATOM     10  C   UNL     1      36.451 -21.965 -17.390  0.00  0.00    +0.250 C 
ATOM     11  H   UNL     1      34.891 -23.018 -18.160  0.00  0.00    +0.155 HD
BRANCH   9  12
ATOM     12  C   UNL     1      35.005 -21.391 -19.396  0.00  0.00    +0.050 C 
ATOM     13  C   UNL     1      35.930 -20.567 -20.038  0.00  0.00    +0.019 C 
ATOM     14  C   UNL     1      35.532 -19.778 -21.116  0.00  0.00    +0.073 C 
ATOM     15  C   UNL     1      33.681 -21.424 -19.832  0.00  0.00    +0.015 C 
ATOM     16  C   UNL     1      34.206 -19.811 -21.552  0.00  0.00    +0.004 C 
ATOM     17  C   UNL     1      33.282 -20.634 -20.910  0.00  0.00    +0.001 C 
BRANCH  14  21
ATOM     18  F   UNL     1      37.808 -19.098 -21.396  0.00  0.00    -0.166 F 
ATOM     19  F   UNL     1      36.545 -19.059 -23.159  0.00  0.00    -0.166 F 
ATOM     20  F   UNL     1      36.274 -17.571 -21.596  0.00  0.00    -0.166 F 
ATOM     21  C   UNL     1      36.520 -18.898 -21.803  0.00  0.00    +0.419 C 
ENDBRANCH  14  21
ENDBRANCH   9  12
ENDBRANCH   3  10
BRANCH   1  22
ATOM     22  N   UNL     1      34.490 -25.110 -14.202  0.00  0.00    -0.312 N 
ATOM     23  H   UNL     1      34.680 -25.925 -13.682  0.00  0.00    +0.152 HD
BRANCH  22  25
ATOM     24  N   UNL     1      30.979 -24.728 -13.122  0.00  0.00    -0.241 NA
ATOM     25  C   UNL     1      33.126 -24.765 -14.233  0.00  0.00    +0.068 C 
ATOM     26  C   UNL     1      32.569 -24.142 -15.344  0.00  0.00    +0.022 C 
ATOM     27  C   UNL     1      32.296 -25.034 -13.157  0.00  0.00    +0.113 C 
ATOM     28  C   UNL     1      31.219 -23.811 -15.346  0.00  0.00    +0.073 C 
ATOM     29  C   UNL     1      30.473 -24.124 -14.220  0.00  0.00    +0.103 C 
BRANCH  28  32
ATOM     30  O   UNL     1      29.380 -22.965 -16.550  0.00  0.00    -0.270 OA
ATOM     31  N   UNL     1      31.445 -22.741 -17.523  0.00  0.00    -0.325 N 
ATOM     32  C   UNL     1      30.608 -23.160 -16.491  0.00  0.00    +0.244 C 
ATOM     33  H   UNL     1      31.065 -22.296 -18.315  0.00  0.00    +0.145 HD
ATOM     34  H   UNL     1      32.416 -22.888 -17.459  0.00  0.00    +0.145 HD
ENDBRANCH  28  32
ENDBRANCH  22  25
ENDBRANCH   1  22
TORSDOF 6
ENDMDL
