MODEL 1
REMARK VINA RESULT:     -11.4      0.000      0.000
REMARK  Name = 6918248
REMARK  5 active torsions:
REMARK  status: ('A' for Active; 'I' for Inactive)
REMARK    1  A    between atoms: N_1  and  C_18
REMARK    2  A    between atoms: N_2  and  C_8
REMARK    3  A    between atoms: C_11  and  C_17
REMARK    4  A    between atoms: C_18  and  C_19
REMARK    5  A    between atoms: C_19  and  N_21
REMARK                            x       y       z     vdW  Elec       q    Type
REMARK                         _______ _______ _______ _____ _____    ______ ____
ROOT
ATOM      1  N   UNL     1      34.404 -22.735 -18.734  0.00  0.00    +0.391 N 
ATOM      2  N   UNL     1      34.737 -20.523 -20.513  0.00  0.00    -0.312 N 
ATOM      3  C   UNL     1      33.288 -21.818 -18.996  0.00  0.00    -0.055 C 
ATOM      4  C   UNL     1      35.675 -21.999 -18.778  0.00  0.00    -0.055 C 
ATOM      5  C   UNL     1      33.424 -21.166 -20.374  0.00  0.00    +0.068 C 
ATOM      6  C   UNL     1      35.889 -21.353 -20.148  0.00  0.00    +0.068 C 
ATOM      7  H   UNL     1      34.417 -23.454 -19.458  0.00  0.00    -0.079 HD
ENDROOT
BRANCH   2   8
ATOM      8  C   UNL     1      34.879 -19.522 -21.479  0.00  0.00    +0.048 C 
ATOM      9  C   UNL     1      34.431 -19.719 -22.800  0.00  0.00    +0.018 C 
ATOM     10  C   UNL     1      35.475 -18.285 -21.160  0.00  0.00    +0.015 C 
ATOM     11  C   UNL     1      34.573 -18.720 -23.763  0.00  0.00    +0.073 C 
ATOM     12  C   UNL     1      35.616 -17.285 -22.123  0.00  0.00    +0.001 C 
ATOM     13  C   UNL     1      35.166 -17.503 -23.425  0.00  0.00    +0.004 C 
BRANCH  11  17
ATOM     14  F   UNL     1      34.489 -20.149 -25.679  0.00  0.00    -0.166 F 
ATOM     15  F   UNL     1      32.732 -18.945 -25.273  0.00  0.00    -0.166 F 
ATOM     16  F   UNL     1      34.539 -18.004 -26.030  0.00  0.00    -0.166 F 
ATOM     17  C   UNL     1      34.092 -18.952 -25.155  0.00  0.00    +0.419 C 
ENDBRANCH  11  17
ENDBRANCH   2   8
BRANCH   1  18
ATOM     18  C   UNL     1      34.235 -23.392 -17.439  0.00  0.00    -0.052 C 
BRANCH  18  19
ATOM     19  C   UNL     1      35.268 -22.879 -16.447  0.00  0.00    +0.088 C 
BRANCH  19  21
ATOM     20  O   UNL     1      33.035 -23.610 -14.551  0.00  0.00    -0.247 OA
ATOM     21  N   UNL     1      35.303 -23.695 -15.264  0.00  0.00    -0.282 N 
ATOM     22  N   UNL     1      34.697 -24.822 -13.386  0.00  0.00    -0.305 N 
ATOM     23  C   UNL     1      36.442 -24.335 -14.746  0.00  0.00    +0.079 A 
ATOM     24  C   UNL     1      34.191 -23.988 -14.423  0.00  0.00    +0.328 A 
ATOM     25  C   UNL     1      36.062 -25.023 -13.596  0.00  0.00    +0.076 A 
ATOM     26  C   UNL     1      37.744 -24.354 -15.201  0.00  0.00    +0.019 C 
ATOM     27  C   UNL     1      36.953 -25.760 -12.846  0.00  0.00    +0.019 C 
ATOM     28  C   UNL     1      38.668 -25.095 -14.456  0.00  0.00    +0.002 C 
ATOM     29  C   UNL     1      38.277 -25.789 -13.292  0.00  0.00    +0.002 C 
ATOM     30  H   UNL     1      34.170 -25.196 -12.643  0.00  0.00    +0.170 HD
ENDBRANCH  19  21
ENDBRANCH  18  19
ENDBRANCH   1  18
TORSDOF 5
ENDMDL
MODEL 2
REMARK VINA RESULT:     -11.3      8.502     12.060
REMARK  Name = 6918248
REMARK  5 active torsions:
REMARK  status: ('A' for Active; 'I' for Inactive)
REMARK    1  A    between atoms: N_1  and  C_18
REMARK    2  A    between atoms: N_2  and  C_8
REMARK    3  A    between atoms: C_11  and  C_17
REMARK    4  A    between atoms: C_18  and  C_19
REMARK    5  A    between atoms: C_19  and  N_21
REMARK                            x       y       z     vdW  Elec       q    Type
REMARK                         _______ _______ _______ _____ _____    ______ ____
ROOT
ATOM      1  N   UNL     1      32.750 -12.790 -23.170  0.00  0.00    +0.391 N 
ATOM      2  N   UNL     1      32.711  -9.975 -22.679  0.00  0.00    -0.312 N 
ATOM      3  C   UNL     1      32.237 -12.265 -21.899  0.00  0.00    -0.055 C 
ATOM      4  C   UNL     1      33.837 -11.934 -23.661  0.00  0.00    -0.055 C 
ATOM      5  C   UNL     1      31.696 -10.844 -22.069  0.00  0.00    +0.068 C 
ATOM      6  C   UNL     1      33.349 -10.502 -23.890  0.00  0.00    +0.068 C 
ATOM      7  H   UNL     1      31.995 -12.787 -23.857  0.00  0.00    -0.079 HD
ENDROOT
BRANCH   2   8
ATOM      8  C   UNL     1      32.583  -8.593 -22.506  0.00  0.00    +0.048 C 
ATOM      9  C   UNL     1      32.893  -7.698 -23.550  0.00  0.00    +0.018 C 
ATOM     10  C   UNL     1      32.140  -8.053 -21.282  0.00  0.00    +0.015 C 
ATOM     11  C   UNL     1      32.765  -6.320 -23.376  0.00  0.00    +0.073 C 
ATOM     12  C   UNL     1      32.011  -6.675 -21.108  0.00  0.00    +0.001 C 
ATOM     13  C   UNL     1      32.324  -5.808 -22.155  0.00  0.00    +0.004 C 
BRANCH  11  17
ATOM     14  F   UNL     1      32.509  -5.729 -25.679  0.00  0.00    -0.166 F 
ATOM     15  F   UNL     1      32.725  -4.100 -24.264  0.00  0.00    -0.166 F 
ATOM     16  F   UNL     1      34.439  -5.345 -24.754  0.00  0.00    -0.166 F 
ATOM     17  C   UNL     1      33.100  -5.393 -24.495  0.00  0.00    +0.419 C 
ENDBRANCH  11  17
ENDBRANCH   2   8
BRANCH   1  18
ATOM     18  C   UNL     1      33.214 -14.167 -23.007  0.00  0.00    -0.052 C 
BRANCH  18  19
ATOM     19  C   UNL     1      34.251 -14.504 -24.068  0.00  0.00    +0.088 C 
BRANCH  19  21
ATOM     20  O   UNL     1      33.430 -16.084 -26.505  0.00  0.00    -0.247 OA
ATOM     21  N   UNL     1      34.313 -15.921 -24.302  0.00  0.00    -0.282 N 
ATOM     22  N   UNL     1      34.145 -17.970 -25.272  0.00  0.00    -0.305 N 
ATOM     23  C   UNL     1      34.792 -16.880 -23.394  0.00  0.00    +0.079 A 
ATOM     24  C   UNL     1      33.900 -16.585 -25.494  0.00  0.00    +0.328 A 
ATOM     25  C   UNL     1      34.686 -18.133 -23.995  0.00  0.00    +0.076 A 
ATOM     26  C   UNL     1      35.298 -16.733 -22.119  0.00  0.00    +0.019 C 
ATOM     27  C   UNL     1      35.075 -19.292 -23.361  0.00  0.00    +0.019 C 
ATOM     28  C   UNL     1      35.700 -17.897 -21.455  0.00  0.00    +0.002 C 
ATOM     29  C   UNL     1      35.590 -19.162 -22.069  0.00  0.00    +0.002 C 
ATOM     30  H   UNL     1      33.964 -18.694 -25.913  0.00  0.00    +0.170 HD
ENDBRANCH  19  21
ENDBRANCH  18  19
ENDBRANCH   1  18
TORSDOF 5
ENDMDL
MODEL 3
REMARK VINA RESULT:     -11.1      1.689      2.990
REMARK  Name = 6918248
REMARK  5 active torsions:
REMARK  status: ('A' for Active; 'I' for Inactive)
REMARK    1  A    between atoms: N_1  and  C_18
REMARK    2  A    between atoms: N_2  and  C_8
REMARK    3  A    between atoms: C_11  and  C_17
REMARK    4  A    between atoms: C_18  and  C_19
REMARK    5  A    between atoms: C_19  and  N_21
REMARK                            x       y       z     vdW  Elec       q    Type
REMARK                         _______ _______ _______ _____ _____    ______ ____
ROOT
ATOM      1  N   UNL     1      34.075 -22.708 -19.477  0.00  0.00    +0.391 N 
ATOM      2  N   UNL     1      34.580 -20.247 -20.838  0.00  0.00    -0.312 N 
ATOM      3  C   UNL     1      33.054 -21.654 -19.509  0.00  0.00    -0.055 C 
ATOM      4  C   UNL     1      35.414 -22.105 -19.452  0.00  0.00    -0.055 C 
ATOM      5  C   UNL     1      33.211 -20.773 -20.750  0.00  0.00    +0.068 C 
ATOM      6  C   UNL     1      35.650 -21.238 -20.691  0.00  0.00    +0.068 C 
ATOM      7  H   UNL     1      33.988 -23.278 -20.320  0.00  0.00    -0.079 HD
ENDROOT
BRANCH   2   8
ATOM      8  C   UNL     1      34.795 -19.102 -21.612  0.00  0.00    +0.048 C 
ATOM      9  C   UNL     1      34.457 -19.076 -22.980  0.00  0.00    +0.018 C 
ATOM     10  C   UNL     1      35.354 -17.938 -21.047  0.00  0.00    +0.015 C 
ATOM     11  C   UNL     1      34.671 -17.933 -23.751  0.00  0.00    +0.073 C 
ATOM     12  C   UNL     1      35.567 -16.795 -21.818  0.00  0.00    +0.001 C 
ATOM     13  C   UNL     1      35.227 -16.793 -23.170  0.00  0.00    +0.004 C 
BRANCH  11  17
ATOM     14  F   UNL     1      35.004 -17.017 -25.935  0.00  0.00    -0.166 F 
ATOM     15  F   UNL     1      34.523 -19.128 -25.818  0.00  0.00    -0.166 F 
ATOM     16  F   UNL     1      32.990 -17.642 -25.407  0.00  0.00    -0.166 F 
ATOM     17  C   UNL     1      34.308 -17.930 -25.197  0.00  0.00    +0.419 C 
ENDBRANCH  11  17
ENDBRANCH   2   8
BRANCH   1  18
ATOM     18  C   UNL     1      33.881 -23.576 -18.317  0.00  0.00    -0.052 C 
BRANCH  18  19
ATOM     19  C   UNL     1      34.460 -22.928 -17.069  0.00  0.00    +0.088 C 
BRANCH  19  21
ATOM     20  O   UNL     1      36.302 -24.719 -15.484  0.00  0.00    -0.247 OA
ATOM     21  N   UNL     1      34.185 -23.715 -15.897  0.00  0.00    -0.282 N 
ATOM     22  N   UNL     1      34.409 -25.118 -14.124  0.00  0.00    -0.305 N 
ATOM     23  C   UNL     1      32.945 -23.799 -15.242  0.00  0.00    +0.079 A 
ATOM     24  C   UNL     1      35.124 -24.538 -15.211  0.00  0.00    +0.328 A 
ATOM     25  C   UNL     1      33.091 -24.661 -14.157  0.00  0.00    +0.076 A 
ATOM     26  C   UNL     1      31.739 -23.192 -15.524  0.00  0.00    +0.019 C 
ATOM     27  C   UNL     1      32.050 -24.958 -13.304  0.00  0.00    +0.019 C 
ATOM     28  C   UNL     1      30.667 -23.478 -14.672  0.00  0.00    +0.002 C 
ATOM     29  C   UNL     1      30.821 -24.351 -13.574  0.00  0.00    +0.002 C 
ATOM     30  H   UNL     1      34.784 -25.739 -13.459  0.00  0.00    +0.170 HD
ENDBRANCH  19  21
ENDBRANCH  18  19
ENDBRANCH   1  18
TORSDOF 5
ENDMDL
MODEL 4
REMARK VINA RESULT:     -11.0      8.497     11.990
REMARK  Name = 6918248
REMARK  5 active torsions:
REMARK  status: ('A' for Active; 'I' for Inactive)
REMARK    1  A    between atoms: N_1  and  C_18
REMARK    2  A    between atoms: N_2  and  C_8
REMARK    3  A    between atoms: C_11  and  C_17
REMARK    4  A    between atoms: C_18  and  C_19
REMARK    5  A    between atoms: C_19  and  N_21
REMARK                            x       y       z     vdW  Elec       q    Type
REMARK                         _______ _______ _______ _____ _____    ______ ____
ROOT
ATOM      1  N   UNL     1      32.978 -12.884 -23.458  0.00  0.00    +0.391 N 
ATOM      2  N   UNL     1      33.301 -10.046 -23.389  0.00  0.00    -0.312 N 
ATOM      3  C   UNL     1      32.650 -12.128 -22.243  0.00  0.00    -0.055 C 
ATOM      4  C   UNL     1      34.104 -12.246 -24.153  0.00  0.00    -0.055 C 
ATOM      5  C   UNL     1      32.257 -10.688 -22.581  0.00  0.00    +0.068 C 
ATOM      6  C   UNL     1      33.760 -10.810 -24.554  0.00  0.00    +0.068 C 
ATOM      7  H   UNL     1      32.167 -12.882 -24.077  0.00  0.00    -0.079 HD
ENDROOT
BRANCH   2   8
ATOM      8  C   UNL     1      33.346  -8.648 -23.414  0.00  0.00    +0.048 C 
ATOM      9  C   UNL     1      32.367  -7.878 -22.755  0.00  0.00    +0.018 C 
ATOM     10  C   UNL     1      34.374  -7.966 -24.098  0.00  0.00    +0.015 C 
ATOM     11  C   UNL     1      32.413  -6.484 -22.779  0.00  0.00    +0.073 C 
ATOM     12  C   UNL     1      34.420  -6.573 -24.121  0.00  0.00    +0.001 C 
ATOM     13  C   UNL     1      33.439  -5.831 -23.462  0.00  0.00    +0.004 C 
BRANCH  11  17
ATOM     14  F   UNL     1      30.090  -6.038 -22.422  0.00  0.00    -0.166 F 
ATOM     15  F   UNL     1      31.409  -5.811 -20.716  0.00  0.00    -0.166 F 
ATOM     16  F   UNL     1      31.461  -4.353 -22.328  0.00  0.00    -0.166 F 
ATOM     17  C   UNL     1      31.365  -5.691 -22.076  0.00  0.00    +0.419 C 
ENDBRANCH  11  17
ENDBRANCH   2   8
BRANCH   1  18
ATOM     18  C   UNL     1      33.298 -14.272 -23.129  0.00  0.00    -0.052 C 
BRANCH  18  19
ATOM     19  C   UNL     1      34.497 -14.744 -23.937  0.00  0.00    +0.088 C 
BRANCH  19  21
ATOM     20  O   UNL     1      33.556 -16.292 -26.351  0.00  0.00    -0.247 OA
ATOM     21  N   UNL     1      34.454 -16.165 -24.151  0.00  0.00    -0.282 N 
ATOM     22  N   UNL     1      34.131 -18.209 -25.092  0.00  0.00    -0.305 N 
ATOM     23  C   UNL     1      34.862 -17.144 -23.230  0.00  0.00    +0.079 A 
ATOM     24  C   UNL     1      33.989 -16.812 -25.333  0.00  0.00    +0.328 A 
ATOM     25  C   UNL     1      34.661 -18.393 -23.814  0.00  0.00    +0.076 A 
ATOM     26  C   UNL     1      35.380 -17.017 -21.958  0.00  0.00    +0.019 C 
ATOM     27  C   UNL     1      34.964 -19.570 -23.164  0.00  0.00    +0.019 C 
ATOM     28  C   UNL     1      35.695 -18.199 -21.278  0.00  0.00    +0.002 C 
ATOM     29  C   UNL     1      35.490 -19.460 -21.874  0.00  0.00    +0.002 C 
ATOM     30  H   UNL     1      33.894 -18.926 -25.723  0.00  0.00    +0.170 HD
ENDBRANCH  19  21
ENDBRANCH  18  19
ENDBRANCH   1  18
TORSDOF 5
ENDMDL
MODEL 5
REMARK VINA RESULT:     -11.0      7.722     13.205
REMARK  Name = 6918248
REMARK  5 active torsions:
REMARK  status: ('A' for Active; 'I' for Inactive)
REMARK    1  A    between atoms: N_1  and  C_18
REMARK    2  A    between atoms: N_2  and  C_8
REMARK    3  A    between atoms: C_11  and  C_17
REMARK    4  A    between atoms: C_18  and  C_19
REMARK    5  A    between atoms: C_19  and  N_21
REMARK                            x       y       z     vdW  Elec       q    Type
REMARK                         _______ _______ _______ _____ _____    ______ ____
ROOT
ATOM      1  N   UNL     1      33.284 -12.592 -24.765  0.00  0.00    +0.391 N 
ATOM      2  N   UNL     1      34.118 -15.298 -24.383  0.00  0.00    -0.312 N 
ATOM      3  C   UNL     1      33.509 -13.470 -25.920  0.00  0.00    -0.055 C 
ATOM      4  C   UNL     1      34.220 -12.938 -23.687  0.00  0.00    -0.055 C 
ATOM      5  C   UNL     1      33.295 -14.938 -25.545  0.00  0.00    +0.068 C 
ATOM      6  C   UNL     1      34.029 -14.388 -23.237  0.00  0.00    +0.068 C 
ATOM      7  H   UNL     1      32.331 -12.728 -24.428  0.00  0.00    -0.079 HD
ENDROOT
BRANCH   2   8
ATOM      8  C   UNL     1      34.404 -16.652 -24.175  0.00  0.00    +0.048 C 
ATOM      9  C   UNL     1      35.134 -17.075 -23.046  0.00  0.00    +0.018 C 
ATOM     10  C   UNL     1      33.969 -17.634 -25.087  0.00  0.00    +0.015 C 
ATOM     11  C   UNL     1      35.418 -18.424 -22.839  0.00  0.00    +0.073 C 
ATOM     12  C   UNL     1      34.252 -18.984 -24.880  0.00  0.00    +0.001 C 
ATOM     13  C   UNL     1      34.978 -19.379 -23.756  0.00  0.00    +0.004 C 
BRANCH  11  17
ATOM     14  F   UNL     1      35.863 -20.092 -21.183  0.00  0.00    -0.166 F 
ATOM     15  F   UNL     1      37.543 -18.891 -21.845  0.00  0.00    -0.166 F 
ATOM     16  F   UNL     1      36.014 -18.010 -20.575  0.00  0.00    -0.166 F 
ATOM     17  C   UNL     1      36.193 -18.848 -21.638  0.00  0.00    +0.419 C 
ENDBRANCH  11  17
ENDBRANCH   2   8
BRANCH   1  18
ATOM     18  C   UNL     1      33.438 -11.190 -25.149  0.00  0.00    -0.052 C 
BRANCH  18  19
ATOM     19  C   UNL     1      34.137 -10.413 -24.044  0.00  0.00    +0.088 C 
BRANCH  19  21
ATOM     20  O   UNL     1      31.921 -11.090 -22.110  0.00  0.00    -0.247 OA
ATOM     21  N   UNL     1      33.221  -9.540 -23.361  0.00  0.00    -0.282 N 
ATOM     22  N   UNL     1      31.550  -8.757 -22.035  0.00  0.00    -0.305 N 
ATOM     23  C   UNL     1      33.187  -8.140 -23.474  0.00  0.00    +0.079 A 
ATOM     24  C   UNL     1      32.198  -9.952 -22.459  0.00  0.00    +0.328 A 
ATOM     25  C   UNL     1      32.161  -7.668 -22.659  0.00  0.00    +0.076 A 
ATOM     26  C   UNL     1      33.969  -7.282 -24.219  0.00  0.00    +0.019 C 
ATOM     27  C   UNL     1      31.864  -6.327 -22.545  0.00  0.00    +0.019 C 
ATOM     28  C   UNL     1      33.687  -5.915 -24.120  0.00  0.00    +0.002 C 
ATOM     29  C   UNL     1      32.647  -5.443 -23.293  0.00  0.00    +0.002 C 
ATOM     30  H   UNL     1      30.795  -8.707 -21.405  0.00  0.00    +0.170 HD
ENDBRANCH  19  21
ENDBRANCH  18  19
ENDBRANCH   1  18
TORSDOF 5
ENDMDL
MODEL 6
REMARK VINA RESULT:     -10.7      9.219     14.496
REMARK  Name = 6918248
REMARK  5 active torsions:
REMARK  status: ('A' for Active; 'I' for Inactive)
REMARK    1  A    between atoms: N_1  and  C_18
REMARK    2  A    between atoms: N_2  and  C_8
REMARK    3  A    between atoms: C_11  and  C_17
REMARK    4  A    between atoms: C_18  and  C_19
REMARK    5  A    between atoms: C_19  and  N_21
REMARK                            x       y       z     vdW  Elec       q    Type
REMARK                         _______ _______ _______ _____ _____    ______ ____
ROOT
ATOM      1  N   UNL     1      33.117 -10.792 -22.912  0.00  0.00    +0.391 N 
ATOM      2  N   UNL     1      33.485 -13.474 -23.825  0.00  0.00    -0.312 N 
ATOM      3  C   UNL     1      32.314 -11.885 -22.349  0.00  0.00    -0.055 C 
ATOM      4  C   UNL     1      33.407 -11.064 -24.326  0.00  0.00    -0.055 C 
ATOM      5  C   UNL     1      33.059 -13.218 -22.443  0.00  0.00    +0.068 C 
ATOM      6  C   UNL     1      34.188 -12.370 -24.486  0.00  0.00    +0.068 C 
ATOM      7  H   UNL     1      33.998 -10.733 -22.401  0.00  0.00    -0.079 HD
ENDROOT
BRANCH   2   8
ATOM      8  C   UNL     1      33.764 -14.795 -24.193  0.00  0.00    +0.048 C 
ATOM      9  C   UNL     1      34.424 -15.671 -23.308  0.00  0.00    +0.018 C 
ATOM     10  C   UNL     1      33.393 -15.290 -25.459  0.00  0.00    +0.015 C 
ATOM     11  C   UNL     1      34.702 -16.988 -23.675  0.00  0.00    +0.073 C 
ATOM     12  C   UNL     1      33.669 -16.607 -25.826  0.00  0.00    +0.001 C 
ATOM     13  C   UNL     1      34.325 -17.456 -24.934  0.00  0.00    +0.004 C 
BRANCH  11  17
ATOM     14  F   UNL     1      36.554 -18.433 -23.224  0.00  0.00    -0.166 F 
ATOM     15  F   UNL     1      35.773 -17.286 -21.558  0.00  0.00    -0.166 F 
ATOM     16  F   UNL     1      34.634 -18.960 -22.350  0.00  0.00    -0.166 F 
ATOM     17  C   UNL     1      35.403 -17.895 -22.722  0.00  0.00    +0.419 C 
ENDBRANCH  11  17
ENDBRANCH   2   8
BRANCH   1  18
ATOM     18  C   UNL     1      32.419  -9.515 -22.767  0.00  0.00    -0.052 C 
BRANCH  18  19
ATOM     19  C   UNL     1      33.414  -8.396 -22.500  0.00  0.00    +0.088 C 
BRANCH  19  21
ATOM     20  O   UNL     1      32.165  -7.463 -19.915  0.00  0.00    -0.247 OA
ATOM     21  N   UNL     1      32.741  -7.161 -22.204  0.00  0.00    -0.282 N 
ATOM     22  N   UNL     1      31.623  -5.504 -21.122  0.00  0.00    -0.305 N 
ATOM     23  C   UNL     1      32.529  -6.107 -23.109  0.00  0.00    +0.079 A 
ATOM     24  C   UNL     1      32.178  -6.803 -20.944  0.00  0.00    +0.328 A 
ATOM     25  C   UNL     1      31.844  -5.096 -22.439  0.00  0.00    +0.076 A 
ATOM     26  C   UNL     1      32.886  -5.981 -24.436  0.00  0.00    +0.019 C 
ATOM     27  C   UNL     1      31.482  -3.917 -23.052  0.00  0.00    +0.019 C 
ATOM     28  C   UNL     1      32.529  -4.791 -25.080  0.00  0.00    +0.002 C 
ATOM     29  C   UNL     1      31.835  -3.771 -24.396  0.00  0.00    +0.002 C 
ATOM     30  H   UNL     1      31.160  -4.979 -20.430  0.00  0.00    +0.170 HD
ENDBRANCH  19  21
ENDBRANCH  18  19
ENDBRANCH   1  18
TORSDOF 5
ENDMDL
MODEL 7
REMARK VINA RESULT:     -10.7      8.861     14.223
REMARK  Name = 6918248
REMARK  5 active torsions:
REMARK  status: ('A' for Active; 'I' for Inactive)
REMARK    1  A    between atoms: N_1  and  C_18
REMARK    2  A    between atoms: N_2  and  C_8
REMARK    3  A    between atoms: C_11  and  C_17
REMARK    4  A    between atoms: C_18  and  C_19
REMARK    5  A    between atoms: C_19  and  N_21
REMARK                            x       y       z     vdW  Elec       q    Type
REMARK                         _______ _______ _______ _____ _____    ______ ____
ROOT
ATOM      1  N   UNL     1      32.761 -11.183 -22.600  0.00  0.00    +0.391 N 
ATOM      2  N   UNL     1      33.486 -13.808 -23.463  0.00  0.00    -0.312 N 
ATOM      3  C   UNL     1      32.114 -12.363 -22.012  0.00  0.00    -0.055 C 
ATOM      4  C   UNL     1      33.083 -11.440 -24.009  0.00  0.00    -0.055 C 
ATOM      5  C   UNL     1      33.032 -13.585 -22.084  0.00  0.00    +0.068 C 
ATOM      6  C   UNL     1      34.032 -12.632 -24.147  0.00  0.00    +0.068 C 
ATOM      7  H   UNL     1      33.627 -10.996 -22.094  0.00  0.00    -0.079 HD
ENDROOT
BRANCH   2   8
ATOM      8  C   UNL     1      33.941 -15.086 -23.806  0.00  0.00    +0.048 C 
ATOM      9  C   UNL     1      34.592 -15.903 -22.861  0.00  0.00    +0.018 C 
ATOM     10  C   UNL     1      33.760 -15.595 -25.108  0.00  0.00    +0.015 C 
ATOM     11  C   UNL     1      35.045 -17.177 -23.204  0.00  0.00    +0.073 C 
ATOM     12  C   UNL     1      34.212 -16.869 -25.451  0.00  0.00    +0.001 C 
ATOM     13  C   UNL     1      34.855 -17.661 -24.499  0.00  0.00    +0.004 C 
BRANCH  11  17
ATOM     14  F   UNL     1      35.164 -19.255 -22.025  0.00  0.00    -0.166 F 
ATOM     15  F   UNL     1      37.043 -18.272 -22.479  0.00  0.00    -0.166 F 
ATOM     16  F   UNL     1      35.735 -17.455 -20.946  0.00  0.00    -0.166 F 
ATOM     17  C   UNL     1      35.732 -18.024 -22.187  0.00  0.00    +0.419 C 
ENDBRANCH  11  17
ENDBRANCH   2   8
BRANCH   1  18
ATOM     18  C   UNL     1      31.897 -10.010 -22.476  0.00  0.00    -0.052 C 
BRANCH  18  19
ATOM     19  C   UNL     1      32.643  -8.873 -21.794  0.00  0.00    +0.088 C 
BRANCH  19  21
ATOM     20  O   UNL     1      35.111  -8.937 -23.530  0.00  0.00    -0.247 OA
ATOM     21  N   UNL     1      33.112  -7.909 -22.752  0.00  0.00    -0.282 N 
ATOM     22  N   UNL     1      34.354  -6.845 -24.330  0.00  0.00    -0.305 N 
ATOM     23  C   UNL     1      32.475  -6.699 -23.073  0.00  0.00    +0.079 A 
ATOM     24  C   UNL     1      34.298  -8.024 -23.532  0.00  0.00    +0.328 A 
ATOM     25  C   UNL     1      33.242  -6.052 -24.040  0.00  0.00    +0.076 A 
ATOM     26  C   UNL     1      31.308  -6.144 -22.589  0.00  0.00    +0.019 C 
ATOM     27  C   UNL     1      32.888  -4.831 -24.571  0.00  0.00    +0.019 C 
ATOM     28  C   UNL     1      30.927  -4.904 -23.113  0.00  0.00    +0.002 C 
ATOM     29  C   UNL     1      31.708  -4.255 -24.092  0.00  0.00    +0.002 C 
ATOM     30  H   UNL     1      35.060  -6.626 -24.980  0.00  0.00    +0.170 HD
ENDBRANCH  19  21
ENDBRANCH  18  19
ENDBRANCH   1  18
TORSDOF 5
ENDMDL
MODEL 8
REMARK VINA RESULT:     -10.6      9.852     15.135
REMARK  Name = 6918248
REMARK  5 active torsions:
REMARK  status: ('A' for Active; 'I' for Inactive)
REMARK    1  A    between atoms: N_1  and  C_18
REMARK    2  A    between atoms: N_2  and  C_8
REMARK    3  A    between atoms: C_11  and  C_17
REMARK    4  A    between atoms: C_18  and  C_19
REMARK    5  A    between atoms: C_19  and  N_21
REMARK                            x       y       z     vdW  Elec       q    Type
REMARK                         _______ _______ _______ _____ _____    ______ ____
ROOT
ATOM      1  N   UNL     1      32.247  -9.672 -22.408  0.00  0.00    +0.391 N 
ATOM      2  N   UNL     1      33.140 -12.335 -22.935  0.00  0.00    -0.312 N 
ATOM      3  C   UNL     1      31.464 -10.824 -21.943  0.00  0.00    -0.055 C 
ATOM      4  C   UNL     1      32.907  -9.998 -23.679  0.00  0.00    -0.055 C 
ATOM      5  C   UNL     1      32.359 -12.045 -21.725  0.00  0.00    +0.068 C 
ATOM      6  C   UNL     1      33.850 -11.192 -23.518  0.00  0.00    +0.068 C 
ATOM      7  H   UNL     1      32.962  -9.457 -21.712  0.00  0.00    -0.079 HD
ENDROOT
BRANCH   2   8
ATOM      8  C   UNL     1      33.654 -13.626 -23.091  0.00  0.00    +0.048 C 
ATOM      9  C   UNL     1      33.464 -14.344 -24.289  0.00  0.00    +0.018 C 
ATOM     10  C   UNL     1      34.380 -14.249 -22.056  0.00  0.00    +0.015 C 
ATOM     11  C   UNL     1      33.977 -15.631 -24.445  0.00  0.00    +0.073 C 
ATOM     12  C   UNL     1      34.895 -15.536 -22.212  0.00  0.00    +0.001 C 
ATOM     13  C   UNL     1      34.693 -16.228 -23.406  0.00  0.00    +0.004 C 
BRANCH  11  17
ATOM     14  F   UNL     1      32.558 -17.015 -25.784  0.00  0.00    -0.166 F 
ATOM     15  F   UNL     1      33.796 -15.573 -26.829  0.00  0.00    -0.166 F 
ATOM     16  F   UNL     1      34.704 -17.335 -25.935  0.00  0.00    -0.166 F 
ATOM     17  C   UNL     1      33.761 -16.371 -25.721  0.00  0.00    +0.419 C 
ENDBRANCH  11  17
ENDBRANCH   2   8
BRANCH   1  18
ATOM     18  C   UNL     1      31.390  -8.497 -22.561  0.00  0.00    -0.052 C 
BRANCH  18  19
ATOM     19  C   UNL     1      32.060  -7.272 -21.957  0.00  0.00    +0.088 C 
BRANCH  19  21
ATOM     20  O   UNL     1      29.954  -5.110 -21.967  0.00  0.00    -0.247 OA
ATOM     21  N   UNL     1      31.928  -6.129 -22.818  0.00  0.00    -0.282 N 
ATOM     22  N   UNL     1      31.168  -4.219 -23.789  0.00  0.00    -0.305 N 
ATOM     23  C   UNL     1      32.798  -5.790 -23.867  0.00  0.00    +0.079 A 
ATOM     24  C   UNL     1      30.892  -5.153 -22.749  0.00  0.00    +0.328 A 
ATOM     25  C   UNL     1      32.326  -4.619 -24.457  0.00  0.00    +0.076 A 
ATOM     26  C   UNL     1      33.938  -6.419 -24.325  0.00  0.00    +0.019 C 
ATOM     27  C   UNL     1      32.961  -4.020 -25.523  0.00  0.00    +0.019 C 
ATOM     28  C   UNL     1      34.601  -5.829 -25.406  0.00  0.00    +0.002 C 
ATOM     29  C   UNL     1      34.118  -4.644 -25.999  0.00  0.00    +0.002 C 
ATOM     30  H   UNL     1      30.631  -3.422 -24.001  0.00  0.00    +0.170 HD
ENDBRANCH  19  21
ENDBRANCH  18  19
ENDBRANCH   1  18
TORSDOF 5
ENDMDL
MODEL 9
REMARK VINA RESULT:     -10.5      4.773      9.955
REMARK  Name = 6918248
REMARK  5 active torsions:
REMARK  status: ('A' for Active; 'I' for Inactive)
REMARK    1  A    between atoms: N_1  and  C_18
REMARK    2  A    between atoms: N_2  and  C_8
REMARK    3  A    between atoms: C_11  and  C_17
REMARK    4  A    between atoms: C_18  and  C_19
REMARK    5  A    between atoms: C_19  and  N_21
REMARK                            x       y       z     vdW  Elec       q    Type
REMARK                         _______ _______ _______ _____ _____    ______ ____
ROOT
ATOM      1  N   UNL     1      35.544 -21.940 -19.726  0.00  0.00    +0.391 N 
ATOM      2  N   UNL     1      34.539 -22.840 -17.207  0.00  0.00    -0.312 N 
ATOM      3  C   UNL     1      36.297 -21.684 -18.492  0.00  0.00    -0.055 C 
ATOM      4  C   UNL     1      34.102 -21.910 -19.445  0.00  0.00    -0.055 C 
ATOM      5  C   UNL     1      35.988 -22.742 -17.430  0.00  0.00    +0.068 C 
ATOM      6  C   UNL     1      33.720 -22.975 -18.415  0.00  0.00    +0.068 C 
ATOM      7  H   UNL     1      35.791 -22.866 -20.077  0.00  0.00    -0.079 HD
ENDROOT
BRANCH   2   8
ATOM      8  C   UNL     1      34.097 -23.395 -16.001  0.00  0.00    +0.048 C 
ATOM      9  C   UNL     1      32.721 -23.510 -15.717  0.00  0.00    +0.018 C 
ATOM     10  C   UNL     1      35.013 -23.857 -15.035  0.00  0.00    +0.015 C 
ATOM     11  C   UNL     1      32.280 -24.064 -14.515  0.00  0.00    +0.073 C 
ATOM     12  C   UNL     1      34.572 -24.412 -13.834  0.00  0.00    +0.001 C 
ATOM     13  C   UNL     1      33.206 -24.515 -13.573  0.00  0.00    +0.004 C 
BRANCH  11  17
ATOM     14  F   UNL     1      30.192 -25.136 -14.975  0.00  0.00    -0.166 F 
ATOM     15  F   UNL     1      30.534 -24.481 -12.936  0.00  0.00    -0.166 F 
ATOM     16  F   UNL     1      30.147 -23.016 -14.495  0.00  0.00    -0.166 F 
ATOM     17  C   UNL     1      30.820 -24.174 -14.236  0.00  0.00    +0.419 C 
ENDBRANCH  11  17
ENDBRANCH   2   8
BRANCH   1  18
ATOM     18  C   UNL     1      35.888 -20.955 -20.751  0.00  0.00    -0.052 C 
BRANCH  18  19
ATOM     19  C   UNL     1      34.631 -20.290 -21.289  0.00  0.00    +0.088 C 
BRANCH  19  21
ATOM     20  O   UNL     1      36.191 -17.888 -20.337  0.00  0.00    -0.247 OA
ATOM     21  N   UNL     1      34.943 -19.070 -21.981  0.00  0.00    -0.282 N 
ATOM     22  N   UNL     1      35.745 -17.003 -22.483  0.00  0.00    -0.305 N 
ATOM     23  C   UNL     1      34.560 -18.754 -23.296  0.00  0.00    +0.079 A 
ATOM     24  C   UNL     1      35.691 -17.981 -21.448  0.00  0.00    +0.328 A 
ATOM     25  C   UNL     1      35.054 -17.487 -23.596  0.00  0.00    +0.076 A 
ATOM     26  C   UNL     1      33.830 -19.480 -24.215  0.00  0.00    +0.019 C 
ATOM     27  C   UNL     1      34.850 -16.883 -24.817  0.00  0.00    +0.019 C 
ATOM     28  C   UNL     1      33.609 -18.887 -25.463  0.00  0.00    +0.002 C 
ATOM     29  C   UNL     1      34.113 -17.604 -25.760  0.00  0.00    +0.002 C 
ATOM     30  H   UNL     1      36.195 -16.130 -22.423  0.00  0.00    +0.170 HD
ENDBRANCH  19  21
ENDBRANCH  18  19
ENDBRANCH   1  18
TORSDOF 5
ENDMDL
