MODEL 1
REMARK VINA RESULT:     -12.4      0.000      0.000
REMARK  Name = 11677589
REMARK  7 active torsions:
REMARK  status: ('A' for Active; 'I' for Inactive)
REMARK    1  A    between atoms: C_1  and  N_7
REMARK    2  A    between atoms: C_2  and  C_20
REMARK    3  A    between atoms: C_11  and  C_18
REMARK    4  A    between atoms: C_20  and  C_21
REMARK    5  A    between atoms: C_21  and  N_23
REMARK    6  A    between atoms: N_24  and  S_28
REMARK    7  A    between atoms: S_28  and  C_31
REMARK                            x       y       z     vdW  Elec       q    Type
REMARK                         _______ _______ _______ _____ _____    ______ ____
ROOT
ATOM      1  C   UNL     1      34.473 -22.971 -17.189  0.00  0.00    +0.058 C 
ATOM      2  C   UNL     1      35.799 -21.828 -19.344  0.00  0.00    -0.020 C 
ATOM      3  C   UNL     1      35.785 -22.544 -17.037  0.00  0.00    +0.015 C 
ATOM      4  C   UNL     1      33.814 -22.835 -18.404  0.00  0.00    +0.015 C 
ATOM      5  C   UNL     1      36.451 -21.970 -18.120  0.00  0.00    -0.003 C 
ATOM      6  C   UNL     1      34.480 -22.261 -19.488  0.00  0.00    -0.003 C 
ENDROOT
BRANCH   1   7
ATOM      7  N   UNL     1      33.805 -23.546 -16.107  0.00  0.00    -0.242 N 
ATOM      8  N   UNL     1      33.494 -24.617 -14.183  0.00  0.00    -0.387 NA
ATOM      9  N   UNL     1      29.922 -23.997 -14.943  0.00  0.00    -0.408 NA
ATOM     10  C   UNL     1      32.448 -23.578 -15.921  0.00  0.00    +0.091 C 
ATOM     11  C   UNL     1      34.387 -24.179 -15.043  0.00  0.00    +0.168 C 
ATOM     12  C   UNL     1      32.280 -24.252 -14.714  0.00  0.00    +0.172 C 
ATOM     13  C   UNL     1      31.386 -23.096 -16.674  0.00  0.00    +0.045 C 
ATOM     14  C   UNL     1      30.985 -24.453 -14.235  0.00  0.00    +0.140 C 
ATOM     15  C   UNL     1      30.142 -23.347 -16.112  0.00  0.00    +0.110 C 
ATOM     16  C   UNL     1      30.689 -25.160 -12.956  0.00  0.00    +0.069 C 
ATOM     17  C   UNL     1      28.925 -22.872 -16.837  0.00  0.00    +0.066 C 
BRANCH  11  18
ATOM     18  C   UNL     1      35.852 -24.333 -14.911  0.00  0.00    +0.075 C 
ATOM     19  C   UNL     1      36.311 -25.784 -15.088  0.00  0.00    +0.009 C 
ENDBRANCH  11  18
ENDBRANCH   1   7
BRANCH   2  20
ATOM     20  C   UNL     1      36.512 -21.215 -20.502  0.00  0.00    +0.048 C 
BRANCH  20  21
ATOM     21  C   UNL     1      36.712 -19.701 -20.367  0.00  0.00    +0.096 C 
BRANCH  21  23
ATOM     22  O   UNL     1      34.378 -19.325 -21.999  0.00  0.00    -0.251 OA
ATOM     23  N   UNL     1      36.642 -19.025 -21.634  0.00  0.00    -0.287 N 
ATOM     24  N   UNL     1      35.655 -18.184 -23.589  0.00  0.00    -0.169 N 
ATOM     25  C   UNL     1      35.468 -18.889 -22.357  0.00  0.00    +0.319 C 
ATOM     26  H   UNL     1      37.469 -18.641 -22.007  0.00  0.00    +0.151 HD
ATOM     27  H   UNL     1      36.565 -17.874 -23.798  0.00  0.00    +0.178 HD
BRANCH  24  28
ATOM     28  S   UNL     1      34.426 -17.837 -24.725  0.00  0.00    +0.077 S 
ATOM     29  O   UNL     1      34.966 -17.948 -26.066  0.00  0.00    -0.150 OA
ATOM     30  O   UNL     1      33.218 -18.551 -24.357  0.00  0.00    -0.150 OA
BRANCH  28  31
ATOM     31  C   UNL     1      34.130 -16.127 -24.391  0.00  0.00    +0.125 C 
ATOM     32  C   UNL     1      34.621 -15.570 -23.223  0.00  0.00    +0.020 C 
ATOM     33  C   UNL     1      33.412 -15.374 -25.305  0.00  0.00    +0.020 C 
ATOM     34  C   UNL     1      33.666 -13.448 -23.869  0.00  0.00    -0.022 C 
ATOM     35  C   UNL     1      34.387 -14.220 -22.960  0.00  0.00    -0.003 C 
ATOM     36  C   UNL     1      33.178 -14.024 -25.042  0.00  0.00    -0.003 C 
ATOM     37  C   UNL     1      33.418 -12.005 -23.588  0.00  0.00    +0.031 C 
ENDBRANCH  28  31
ENDBRANCH  24  28
ENDBRANCH  21  23
ENDBRANCH  20  21
ENDBRANCH   2  20
TORSDOF 7
ENDMDL
MODEL 2
REMARK VINA RESULT:     -11.8      1.678      3.834
REMARK  Name = 11677589
REMARK  7 active torsions:
REMARK  status: ('A' for Active; 'I' for Inactive)
REMARK    1  A    between atoms: C_1  and  N_7
REMARK    2  A    between atoms: C_2  and  C_20
REMARK    3  A    between atoms: C_11  and  C_18
REMARK    4  A    between atoms: C_20  and  C_21
REMARK    5  A    between atoms: C_21  and  N_23
REMARK    6  A    between atoms: N_24  and  S_28
REMARK    7  A    between atoms: S_28  and  C_31
REMARK                            x       y       z     vdW  Elec       q    Type
REMARK                         _______ _______ _______ _____ _____    ______ ____
ROOT
ATOM      1  C   UNL     1      35.244 -23.015 -16.695  0.00  0.00    +0.058 C 
ATOM      2  C   UNL     1      35.440 -22.063 -19.295  0.00  0.00    -0.020 C 
ATOM      3  C   UNL     1      34.199 -23.231 -17.584  0.00  0.00    +0.015 C 
ATOM      4  C   UNL     1      36.386 -22.330 -17.088  0.00  0.00    +0.015 C 
ATOM      5  C   UNL     1      34.298 -22.752 -18.890  0.00  0.00    -0.003 C 
ATOM      6  C   UNL     1      36.485 -21.851 -18.395  0.00  0.00    -0.003 C 
ENDROOT
BRANCH   1   7
ATOM      7  N   UNL     1      35.146 -23.494 -15.387  0.00  0.00    -0.242 N 
ATOM      8  N   UNL     1      34.250 -23.990 -13.414  0.00  0.00    -0.387 NA
ATOM      9  N   UNL     1      37.651 -25.277 -12.708  0.00  0.00    -0.408 NA
ATOM     10  C   UNL     1      36.154 -24.075 -14.663  0.00  0.00    +0.091 C 
ATOM     11  C   UNL     1      34.029 -23.466 -14.598  0.00  0.00    +0.168 C 
ATOM     12  C   UNL     1      35.570 -24.375 -13.436  0.00  0.00    +0.172 C 
ATOM     13  C   UNL     1      37.481 -24.355 -14.960  0.00  0.00    +0.045 C 
ATOM     14  C   UNL     1      36.351 -24.987 -12.456  0.00  0.00    +0.140 C 
ATOM     15  C   UNL     1      38.170 -24.962 -13.920  0.00  0.00    +0.110 C 
ATOM     16  C   UNL     1      35.829 -25.353 -11.107  0.00  0.00    +0.069 C 
ATOM     17  C   UNL     1      39.609 -25.311 -14.127  0.00  0.00    +0.066 C 
BRANCH  11  18
ATOM     18  C   UNL     1      32.741 -22.903 -15.059  0.00  0.00    +0.075 C 
ATOM     19  C   UNL     1      31.548 -23.418 -14.249  0.00  0.00    +0.009 C 
ENDBRANCH  11  18
ENDBRANCH   1   7
BRANCH   2  20
ATOM     20  C   UNL     1      35.546 -21.550 -20.692  0.00  0.00    +0.048 C 
BRANCH  20  21
ATOM     21  C   UNL     1      35.400 -20.028 -20.799  0.00  0.00    +0.096 C 
BRANCH  21  23
ATOM     22  O   UNL     1      35.941 -18.748 -23.313  0.00  0.00    -0.251 OA
ATOM     23  N   UNL     1      34.439 -19.639 -21.796  0.00  0.00    -0.287 N 
ATOM     24  N   UNL     1      33.659 -18.730 -23.813  0.00  0.00    -0.169 N 
ATOM     25  C   UNL     1      34.790 -19.024 -22.987  0.00  0.00    +0.319 C 
ATOM     26  H   UNL     1      33.487 -19.818 -21.625  0.00  0.00    +0.151 HD
ATOM     27  H   UNL     1      32.771 -18.982 -23.470  0.00  0.00    +0.178 HD
BRANCH  24  28
ATOM     28  S   UNL     1      33.722 -17.975 -25.345  0.00  0.00    +0.077 S 
ATOM     29  O   UNL     1      34.989 -18.284 -25.981  0.00  0.00    -0.150 OA
ATOM     30  O   UNL     1      32.473 -18.206 -26.045  0.00  0.00    -0.150 OA
BRANCH  28  31
ATOM     31  C   UNL     1      33.740 -16.270 -24.882  0.00  0.00    +0.125 C 
ATOM     32  C   UNL     1      33.146 -15.336 -25.713  0.00  0.00    +0.020 C 
ATOM     33  C   UNL     1      34.349 -15.899 -23.695  0.00  0.00    +0.020 C 
ATOM     34  C   UNL     1      33.769 -13.599 -24.155  0.00  0.00    -0.022 C 
ATOM     35  C   UNL     1      33.161 -13.990 -25.347  0.00  0.00    -0.003 C 
ATOM     36  C   UNL     1      34.363 -14.553 -23.329  0.00  0.00    -0.003 C 
ATOM     37  C   UNL     1      33.783 -12.160 -23.763  0.00  0.00    +0.031 C 
ENDBRANCH  28  31
ENDBRANCH  24  28
ENDBRANCH  21  23
ENDBRANCH  20  21
ENDBRANCH   2  20
TORSDOF 7
ENDMDL
MODEL 3
REMARK VINA RESULT:     -11.6      3.571     11.946
REMARK  Name = 11677589
REMARK  7 active torsions:
REMARK  status: ('A' for Active; 'I' for Inactive)
REMARK    1  A    between atoms: C_1  and  N_7
REMARK    2  A    between atoms: C_2  and  C_20
REMARK    3  A    between atoms: C_11  and  C_18
REMARK    4  A    between atoms: C_20  and  C_21
REMARK    5  A    between atoms: C_21  and  N_23
REMARK    6  A    between atoms: N_24  and  S_28
REMARK    7  A    between atoms: S_28  and  C_31
REMARK                            x       y       z     vdW  Elec       q    Type
REMARK                         _______ _______ _______ _____ _____    ______ ____
ROOT
ATOM      1  C   UNL     1      34.025 -13.818 -23.070  0.00  0.00    +0.058 C 
ATOM      2  C   UNL     1      35.027 -16.332 -22.451  0.00  0.00    -0.020 C 
ATOM      3  C   UNL     1      34.108 -14.785 -24.063  0.00  0.00    +0.015 C 
ATOM      4  C   UNL     1      34.435 -14.090 -21.771  0.00  0.00    +0.015 C 
ATOM      5  C   UNL     1      34.612 -16.048 -23.751  0.00  0.00    -0.003 C 
ATOM      6  C   UNL     1      34.939 -15.354 -21.460  0.00  0.00    -0.003 C 
ENDROOT
BRANCH   1   7
ATOM      7  N   UNL     1      33.521 -12.553 -23.380  0.00  0.00    -0.242 N 
ATOM      8  N   UNL     1      33.018 -10.750 -24.579  0.00  0.00    -0.387 NA
ATOM      9  N   UNL     1      31.576  -9.584 -21.372  0.00  0.00    -0.408 NA
ATOM     10  C   UNL     1      32.883 -11.705 -22.514  0.00  0.00    +0.091 C 
ATOM     11  C   UNL     1      33.577 -11.939 -24.600  0.00  0.00    +0.168 C 
ATOM     12  C   UNL     1      32.579 -10.587 -23.286  0.00  0.00    +0.172 C 
ATOM     13  C   UNL     1      32.555 -11.809 -21.169  0.00  0.00    +0.045 C 
ATOM     14  C   UNL     1      31.913  -9.519 -22.684  0.00  0.00    +0.140 C 
ATOM     15  C   UNL     1      31.896 -10.696 -20.666  0.00  0.00    +0.110 C 
ATOM     16  C   UNL     1      31.538  -8.275 -23.415  0.00  0.00    +0.069 C 
ATOM     17  C   UNL     1      31.492 -10.697 -19.227  0.00  0.00    +0.066 C 
BRANCH  11  18
ATOM     18  C   UNL     1      34.203 -12.569 -25.783  0.00  0.00    +0.075 C 
ATOM     19  C   UNL     1      33.209 -12.798 -26.926  0.00  0.00    +0.009 C 
ENDBRANCH  11  18
ENDBRANCH   1   7
BRANCH   2  20
ATOM     20  C   UNL     1      35.566 -17.683 -22.119  0.00  0.00    +0.048 C 
BRANCH  20  21
ATOM     21  C   UNL     1      34.482 -18.759 -21.983  0.00  0.00    +0.096 C 
BRANCH  21  23
ATOM     22  O   UNL     1      32.744 -20.682 -20.745  0.00  0.00    -0.251 OA
ATOM     23  N   UNL     1      34.858 -19.801 -21.066  0.00  0.00    -0.287 N 
ATOM     24  N   UNL     1      34.564 -21.631 -19.628  0.00  0.00    -0.169 N 
ATOM     25  C   UNL     1      33.950 -20.689 -20.514  0.00  0.00    +0.319 C 
ATOM     26  H   UNL     1      35.807 -19.887 -20.818  0.00  0.00    +0.151 HD
ATOM     27  H   UNL     1      35.537 -21.560 -19.498  0.00  0.00    +0.178 HD
BRANCH  24  28
ATOM     28  S   UNL     1      33.745 -22.865 -18.775  0.00  0.00    +0.077 S 
ATOM     29  O   UNL     1      32.428 -22.394 -18.394  0.00  0.00    -0.150 OA
ATOM     30  O   UNL     1      33.900 -24.121 -19.485  0.00  0.00    -0.150 OA
BRANCH  28  31
ATOM     31  C   UNL     1      34.734 -22.979 -17.314  0.00  0.00    +0.125 C 
ATOM     32  C   UNL     1      34.220 -23.618 -16.198  0.00  0.00    +0.020 C 
ATOM     33  C   UNL     1      36.003 -22.428 -17.312  0.00  0.00    +0.020 C 
ATOM     34  C   UNL     1      36.282 -23.158 -15.026  0.00  0.00    -0.022 C 
ATOM     35  C   UNL     1      35.001 -23.708 -15.045  0.00  0.00    -0.003 C 
ATOM     36  C   UNL     1      36.783 -22.518 -16.159  0.00  0.00    -0.003 C 
ATOM     37  C   UNL     1      37.116 -23.256 -13.794  0.00  0.00    +0.031 C 
ENDBRANCH  28  31
ENDBRANCH  24  28
ENDBRANCH  21  23
ENDBRANCH  20  21
ENDBRANCH   2  20
TORSDOF 7
ENDMDL
MODEL 4
REMARK VINA RESULT:     -11.5      3.569     11.281
REMARK  Name = 11677589
REMARK  7 active torsions:
REMARK  status: ('A' for Active; 'I' for Inactive)
REMARK    1  A    between atoms: C_1  and  N_7
REMARK    2  A    between atoms: C_2  and  C_20
REMARK    3  A    between atoms: C_11  and  C_18
REMARK    4  A    between atoms: C_20  and  C_21
REMARK    5  A    between atoms: C_21  and  N_23
REMARK    6  A    between atoms: N_24  and  S_28
REMARK    7  A    between atoms: S_28  and  C_31
REMARK                            x       y       z     vdW  Elec       q    Type
REMARK                         _______ _______ _______ _____ _____    ______ ____
ROOT
ATOM      1  C   UNL     1      34.910 -17.968 -23.163  0.00  0.00    +0.058 C 
ATOM      2  C   UNL     1      36.000 -19.500 -21.120  0.00  0.00    -0.020 C 
ATOM      3  C   UNL     1      36.227 -17.758 -22.778  0.00  0.00    +0.015 C 
ATOM      4  C   UNL     1      34.129 -18.934 -22.540  0.00  0.00    +0.015 C 
ATOM      5  C   UNL     1      36.775 -18.528 -21.751  0.00  0.00    -0.003 C 
ATOM      6  C   UNL     1      34.677 -19.703 -21.513  0.00  0.00    -0.003 C 
ENDROOT
BRANCH   1   7
ATOM      7  N   UNL     1      34.361 -17.198 -24.189  0.00  0.00    -0.242 N 
ATOM      8  N   UNL     1      33.506 -16.683 -26.176  0.00  0.00    -0.387 NA
ATOM      9  N   UNL     1      33.348 -13.283 -24.716  0.00  0.00    -0.408 NA
ATOM     10  C   UNL     1      34.100 -15.854 -24.138  0.00  0.00    +0.091 C 
ATOM     11  C   UNL     1      33.989 -17.649 -25.426  0.00  0.00    +0.168 C 
ATOM     12  C   UNL     1      33.567 -15.557 -25.390  0.00  0.00    +0.172 C 
ATOM     13  C   UNL     1      34.276 -14.901 -23.144  0.00  0.00    +0.045 C 
ATOM     14  C   UNL     1      33.190 -14.242 -25.661  0.00  0.00    +0.140 C 
ATOM     15  C   UNL     1      33.872 -13.626 -23.514  0.00  0.00    +0.110 C 
ATOM     16  C   UNL     1      32.610 -13.813 -26.966  0.00  0.00    +0.069 C 
ATOM     17  C   UNL     1      34.015 -12.518 -22.522  0.00  0.00    +0.066 C 
BRANCH  11  18
ATOM     18  C   UNL     1      34.130 -19.063 -25.835  0.00  0.00    +0.075 C 
ATOM     19  C   UNL     1      32.804 -19.828 -25.782  0.00  0.00    +0.009 C 
ENDBRANCH  11  18
ENDBRANCH   1   7
BRANCH   2  20
ATOM     20  C   UNL     1      36.585 -20.323 -20.021  0.00  0.00    +0.048 C 
BRANCH  20  21
ATOM     21  C   UNL     1      36.336 -21.827 -20.183  0.00  0.00    +0.096 C 
BRANCH  21  23
ATOM     22  O   UNL     1      36.874 -22.560 -17.458  0.00  0.00    -0.251 OA
ATOM     23  N   UNL     1      35.393 -22.331 -19.221  0.00  0.00    -0.287 N 
ATOM     24  N   UNL     1      34.632 -23.145 -17.156  0.00  0.00    -0.169 N 
ATOM     25  C   UNL     1      35.741 -22.661 -17.921  0.00  0.00    +0.319 C 
ATOM     26  H   UNL     1      34.456 -22.448 -19.499  0.00  0.00    +0.151 HD
ATOM     27  H   UNL     1      33.759 -23.197 -17.610  0.00  0.00    +0.178 HD
BRANCH  24  28
ATOM     28  S   UNL     1      34.698 -23.642 -15.522  0.00  0.00    +0.077 S 
ATOM     29  O   UNL     1      35.501 -24.845 -15.418  0.00  0.00    -0.150 OA
ATOM     30  O   UNL     1      34.983 -22.493 -14.684  0.00  0.00    -0.150 OA
BRANCH  28  31
ATOM     31  C   UNL     1      33.011 -24.080 -15.233  0.00  0.00    +0.125 C 
ATOM     32  C   UNL     1      32.702 -24.924 -14.181  0.00  0.00    +0.020 C 
ATOM     33  C   UNL     1      32.028 -23.570 -16.064  0.00  0.00    +0.020 C 
ATOM     34  C   UNL     1      30.367 -24.765 -14.780  0.00  0.00    -0.022 C 
ATOM     35  C   UNL     1      31.369 -25.269 -13.953  0.00  0.00    -0.003 C 
ATOM     36  C   UNL     1      30.696 -23.915 -15.836  0.00  0.00    -0.003 C 
ATOM     37  C   UNL     1      28.943 -25.133 -14.535  0.00  0.00    +0.031 C 
ENDBRANCH  28  31
ENDBRANCH  24  28
ENDBRANCH  21  23
ENDBRANCH  20  21
ENDBRANCH   2  20
TORSDOF 7
ENDMDL
MODEL 5
REMARK VINA RESULT:     -11.4      6.348     15.025
REMARK  Name = 11677589
REMARK  7 active torsions:
REMARK  status: ('A' for Active; 'I' for Inactive)
REMARK    1  A    between atoms: C_1  and  N_7
REMARK    2  A    between atoms: C_2  and  C_20
REMARK    3  A    between atoms: C_11  and  C_18
REMARK    4  A    between atoms: C_20  and  C_21
REMARK    5  A    between atoms: C_21  and  N_23
REMARK    6  A    between atoms: N_24  and  S_28
REMARK    7  A    between atoms: S_28  and  C_31
REMARK                            x       y       z     vdW  Elec       q    Type
REMARK                         _______ _______ _______ _____ _____    ______ ____
ROOT
ATOM      1  C   UNL     1      32.832  -7.463 -23.348  0.00  0.00    +0.058 C 
ATOM      2  C   UNL     1      33.922  -9.927 -24.019  0.00  0.00    -0.020 C 
ATOM      3  C   UNL     1      34.212  -7.615 -23.381  0.00  0.00    +0.015 C 
ATOM      4  C   UNL     1      31.989  -8.526 -23.646  0.00  0.00    +0.015 C 
ATOM      5  C   UNL     1      34.759  -8.853 -23.718  0.00  0.00    -0.003 C 
ATOM      6  C   UNL     1      32.537  -9.764 -23.983  0.00  0.00    -0.003 C 
ENDROOT
BRANCH   1   7
ATOM      7  N   UNL     1      32.283  -6.225 -23.011  0.00  0.00    -0.242 N 
ATOM      8  N   UNL     1      31.291  -4.648 -21.797  0.00  0.00    -0.387 NA
ATOM      9  N   UNL     1      31.738  -2.639 -24.876  0.00  0.00    -0.408 NA
ATOM     10  C   UNL     1      32.207  -5.127 -23.828  0.00  0.00    +0.091 C 
ATOM     11  C   UNL     1      31.723  -5.890 -21.809  0.00  0.00    +0.168 C 
ATOM     12  C   UNL     1      31.585  -4.157 -23.047  0.00  0.00    +0.172 C 
ATOM     13  C   UNL     1      32.613  -4.901 -25.136  0.00  0.00    +0.045 C 
ATOM     14  C   UNL     1      31.356  -2.898 -23.601  0.00  0.00    +0.140 C 
ATOM     15  C   UNL     1      32.340  -3.619 -25.593  0.00  0.00    +0.110 C 
ATOM     16  C   UNL     1      30.698  -1.786 -22.856  0.00  0.00    +0.069 C 
ATOM     17  C   UNL     1      32.733  -3.262 -26.989  0.00  0.00    +0.066 C 
BRANCH  11  18
ATOM     18  C   UNL     1      31.632  -6.840 -20.679  0.00  0.00    +0.075 C 
ATOM     19  C   UNL     1      32.953  -6.978 -19.916  0.00  0.00    +0.009 C 
ENDBRANCH  11  18
ENDBRANCH   1   7
BRANCH   2  20
ATOM     20  C   UNL     1      34.508 -11.251 -24.379  0.00  0.00    +0.048 C 
BRANCH  20  21
ATOM     21  C   UNL     1      33.456 -12.317 -24.706  0.00  0.00    +0.096 C 
BRANCH  21  23
ATOM     22  O   UNL     1      33.346 -14.822 -26.109  0.00  0.00    -0.251 OA
ATOM     23  N   UNL     1      33.814 -13.613 -24.193  0.00  0.00    -0.287 N 
ATOM     24  N   UNL     1      34.134 -15.936 -24.212  0.00  0.00    -0.169 N 
ATOM     25  C   UNL     1      33.729 -14.774 -24.943  0.00  0.00    +0.319 C 
ATOM     26  H   UNL     1      34.132 -13.677 -23.264  0.00  0.00    +0.151 HD
ATOM     27  H   UNL     1      34.423 -15.806 -23.280  0.00  0.00    +0.178 HD
BRANCH  24  28
ATOM     28  S   UNL     1      34.157 -17.532 -24.824  0.00  0.00    +0.077 S 
ATOM     29  O   UNL     1      32.795 -17.988 -25.028  0.00  0.00    -0.150 OA
ATOM     30  O   UNL     1      35.130 -17.620 -25.896  0.00  0.00    -0.150 OA
BRANCH  28  31
ATOM     31  C   UNL     1      34.832 -18.413 -23.448  0.00  0.00    +0.125 C 
ATOM     32  C   UNL     1      34.129 -19.481 -22.918  0.00  0.00    +0.020 C 
ATOM     33  C   UNL     1      36.051 -18.018 -22.926  0.00  0.00    +0.020 C 
ATOM     34  C   UNL     1      35.889 -19.792 -21.294  0.00  0.00    -0.022 C 
ATOM     35  C   UNL     1      34.662 -20.176 -21.832  0.00  0.00    -0.003 C 
ATOM     36  C   UNL     1      36.584 -18.713 -21.840  0.00  0.00    -0.003 C 
ATOM     37  C   UNL     1      36.460 -20.536 -20.134  0.00  0.00    +0.031 C 
ENDBRANCH  28  31
ENDBRANCH  24  28
ENDBRANCH  21  23
ENDBRANCH  20  21
ENDBRANCH   2  20
TORSDOF 7
ENDMDL
MODEL 6
REMARK VINA RESULT:     -11.2      1.641      2.427
REMARK  Name = 11677589
REMARK  7 active torsions:
REMARK  status: ('A' for Active; 'I' for Inactive)
REMARK    1  A    between atoms: C_1  and  N_7
REMARK    2  A    between atoms: C_2  and  C_20
REMARK    3  A    between atoms: C_11  and  C_18
REMARK    4  A    between atoms: C_20  and  C_21
REMARK    5  A    between atoms: C_21  and  N_23
REMARK    6  A    between atoms: N_24  and  S_28
REMARK    7  A    between atoms: S_28  and  C_31
REMARK                            x       y       z     vdW  Elec       q    Type
REMARK                         _______ _______ _______ _____ _____    ______ ____
ROOT
ATOM      1  C   UNL     1      35.429 -22.649 -17.149  0.00  0.00    +0.058 C 
ATOM      2  C   UNL     1      34.968 -21.575 -19.667  0.00  0.00    -0.020 C 
ATOM      3  C   UNL     1      34.172 -22.771 -17.725  0.00  0.00    +0.015 C 
ATOM      4  C   UNL     1      36.459 -21.997 -17.814  0.00  0.00    +0.015 C 
ATOM      5  C   UNL     1      33.940 -22.231 -18.990  0.00  0.00    -0.003 C 
ATOM      6  C   UNL     1      36.227 -21.457 -19.079  0.00  0.00    -0.003 C 
ENDROOT
BRANCH   1   7
ATOM      7  N   UNL     1      35.662 -23.189 -15.883  0.00  0.00    -0.242 N 
ATOM      8  N   UNL     1      36.778 -23.976 -14.128  0.00  0.00    -0.387 NA
ATOM      9  N   UNL     1      33.374 -24.404 -12.733  0.00  0.00    -0.408 NA
ATOM     10  C   UNL     1      34.705 -23.530 -14.963  0.00  0.00    +0.091 C 
ATOM     11  C   UNL     1      36.884 -23.473 -15.338  0.00  0.00    +0.168 C 
ATOM     12  C   UNL     1      35.427 -24.018 -13.878  0.00  0.00    +0.172 C 
ATOM     13  C   UNL     1      33.319 -23.459 -14.981  0.00  0.00    +0.045 C 
ATOM     14  C   UNL     1      34.729 -24.457 -12.753  0.00  0.00    +0.140 C 
ATOM     15  C   UNL     1      32.720 -23.920 -13.817  0.00  0.00    +0.110 C 
ATOM     16  C   UNL     1      35.399 -24.999 -11.536  0.00  0.00    +0.069 C 
ATOM     17  C   UNL     1      31.229 -23.891 -13.723  0.00  0.00    +0.066 C 
BRANCH  11  18
ATOM     18  C   UNL     1      38.153 -23.231 -16.057  0.00  0.00    +0.075 C 
ATOM     19  C   UNL     1      39.249 -24.231 -15.674  0.00  0.00    +0.009 C 
ENDBRANCH  11  18
ENDBRANCH   1   7
BRANCH   2  20
ATOM     20  C   UNL     1      34.719 -20.997 -21.020  0.00  0.00    +0.048 C 
BRANCH  20  21
ATOM     21  C   UNL     1      35.851 -20.089 -21.515  0.00  0.00    +0.096 C 
BRANCH  21  23
ATOM     22  O   UNL     1      34.935 -19.625 -24.198  0.00  0.00    -0.251 OA
ATOM     23  N   UNL     1      35.360 -18.851 -22.059  0.00  0.00    -0.287 N 
ATOM     24  N   UNL     1      34.497 -17.389 -23.678  0.00  0.00    -0.169 N 
ATOM     25  C   UNL     1      34.936 -18.716 -23.372  0.00  0.00    +0.319 C 
ATOM     26  H   UNL     1      35.324 -18.062 -21.472  0.00  0.00    +0.151 HD
ATOM     27  H   UNL     1      34.537 -16.722 -22.955  0.00  0.00    +0.178 HD
BRANCH  24  28
ATOM     28  S   UNL     1      33.911 -16.867 -25.196  0.00  0.00    +0.077 S 
ATOM     29  O   UNL     1      34.928 -17.090 -26.206  0.00  0.00    -0.150 OA
ATOM     30  O   UNL     1      32.563 -17.368 -25.387  0.00  0.00    -0.150 OA
BRANCH  28  31
ATOM     31  C   UNL     1      33.776 -15.126 -24.926  0.00  0.00    +0.125 C 
ATOM     32  C   UNL     1      33.986 -14.620 -23.655  0.00  0.00    +0.020 C 
ATOM     33  C   UNL     1      33.461 -14.299 -25.991  0.00  0.00    +0.020 C 
ATOM     34  C   UNL     1      33.563 -12.398 -24.504  0.00  0.00    -0.022 C 
ATOM     35  C   UNL     1      33.880 -13.245 -23.443  0.00  0.00    -0.003 C 
ATOM     36  C   UNL     1      33.354 -12.925 -25.779  0.00  0.00    -0.003 C 
ATOM     37  C   UNL     1      33.451 -10.929 -24.277  0.00  0.00    +0.031 C 
ENDBRANCH  28  31
ENDBRANCH  24  28
ENDBRANCH  21  23
ENDBRANCH  20  21
ENDBRANCH   2  20
TORSDOF 7
ENDMDL
MODEL 7
REMARK VINA RESULT:     -11.1      1.910      2.435
REMARK  Name = 11677589
REMARK  7 active torsions:
REMARK  status: ('A' for Active; 'I' for Inactive)
REMARK    1  A    between atoms: C_1  and  N_7
REMARK    2  A    between atoms: C_2  and  C_20
REMARK    3  A    between atoms: C_11  and  C_18
REMARK    4  A    between atoms: C_20  and  C_21
REMARK    5  A    between atoms: C_21  and  N_23
REMARK    6  A    between atoms: N_24  and  S_28
REMARK    7  A    between atoms: S_28  and  C_31
REMARK                            x       y       z     vdW  Elec       q    Type
REMARK                         _______ _______ _______ _____ _____    ______ ____
ROOT
ATOM      1  C   UNL     1      34.103 -22.622 -17.777  0.00  0.00    +0.058 C 
ATOM      2  C   UNL     1      34.993 -21.317 -20.060  0.00  0.00    -0.020 C 
ATOM      3  C   UNL     1      33.180 -22.175 -18.714  0.00  0.00    +0.015 C 
ATOM      4  C   UNL     1      35.465 -22.425 -17.966  0.00  0.00    +0.015 C 
ATOM      5  C   UNL     1      33.628 -21.519 -19.861  0.00  0.00    -0.003 C 
ATOM      6  C   UNL     1      35.912 -21.769 -19.113  0.00  0.00    -0.003 C 
ENDROOT
BRANCH   1   7
ATOM      7  N   UNL     1      33.656 -23.278 -16.629  0.00  0.00    -0.242 N 
ATOM      8  N   UNL     1      33.729 -24.400 -14.711  0.00  0.00    -0.387 NA
ATOM      9  N   UNL     1      30.041 -24.153 -14.955  0.00  0.00    -0.408 NA
ATOM     10  C   UNL     1      32.348 -23.456 -16.259  0.00  0.00    +0.091 C 
ATOM     11  C   UNL     1      34.443 -23.859 -15.672  0.00  0.00    +0.168 C 
ATOM     12  C   UNL     1      32.422 -24.159 -15.059  0.00  0.00    +0.172 C 
ATOM     13  C   UNL     1      31.148 -23.080 -16.846  0.00  0.00    +0.045 C 
ATOM     14  C   UNL     1      31.234 -24.503 -14.413  0.00  0.00    +0.140 C 
ATOM     15  C   UNL     1      30.028 -23.469 -16.125  0.00  0.00    +0.110 C 
ATOM     16  C   UNL     1      31.194 -25.254 -13.125  0.00  0.00    +0.069 C 
ATOM     17  C   UNL     1      28.678 -23.118 -16.662  0.00  0.00    +0.066 C 
BRANCH  11  18
ATOM     18  C   UNL     1      35.920 -23.858 -15.747  0.00  0.00    +0.075 C 
ATOM     19  C   UNL     1      36.547 -25.073 -15.055  0.00  0.00    +0.009 C 
ENDBRANCH  11  18
ENDBRANCH   1   7
BRANCH   2  20
ATOM     20  C   UNL     1      35.471 -20.615 -21.287  0.00  0.00    +0.048 C 
BRANCH  20  21
ATOM     21  C   UNL     1      36.254 -19.330 -20.991  0.00  0.00    +0.096 C 
BRANCH  21  23
ATOM     22  O   UNL     1      35.277 -16.825 -19.981  0.00  0.00    -0.251 OA
ATOM     23  N   UNL     1      35.779 -18.212 -21.762  0.00  0.00    -0.287 N 
ATOM     24  N   UNL     1      34.899 -16.075 -22.162  0.00  0.00    -0.169 N 
ATOM     25  C   UNL     1      35.323 -17.036 -21.190  0.00  0.00    +0.319 C 
ATOM     26  H   UNL     1      35.777 -18.287 -22.744  0.00  0.00    +0.151 HD
ATOM     27  H   UNL     1      34.968 -16.331 -23.110  0.00  0.00    +0.178 HD
BRANCH  24  28
ATOM     28  S   UNL     1      34.282 -14.520 -21.811  0.00  0.00    +0.077 S 
ATOM     29  O   UNL     1      33.047 -14.650 -21.063  0.00  0.00    -0.150 OA
ATOM     30  O   UNL     1      35.356 -13.679 -21.316  0.00  0.00    -0.150 OA
BRANCH  28  31
ATOM     31  C   UNL     1      33.886 -13.940 -23.433  0.00  0.00    +0.125 C 
ATOM     32  C   UNL     1      33.546 -14.855 -24.414  0.00  0.00    +0.020 C 
ATOM     33  C   UNL     1      33.923 -12.581 -23.692  0.00  0.00    +0.020 C 
ATOM     34  C   UNL     1      33.265 -13.030 -25.973  0.00  0.00    -0.022 C 
ATOM     35  C   UNL     1      33.232 -14.396 -25.694  0.00  0.00    -0.003 C 
ATOM     36  C   UNL     1      33.610 -12.122 -24.972  0.00  0.00    -0.003 C 
ATOM     37  C   UNL     1      32.928 -12.541 -27.340  0.00  0.00    +0.031 C 
ENDBRANCH  28  31
ENDBRANCH  24  28
ENDBRANCH  21  23
ENDBRANCH  20  21
ENDBRANCH   2  20
TORSDOF 7
ENDMDL
MODEL 8
REMARK VINA RESULT:     -11.1      3.697     12.035
REMARK  Name = 11677589
REMARK  7 active torsions:
REMARK  status: ('A' for Active; 'I' for Inactive)
REMARK    1  A    between atoms: C_1  and  N_7
REMARK    2  A    between atoms: C_2  and  C_20
REMARK    3  A    between atoms: C_11  and  C_18
REMARK    4  A    between atoms: C_20  and  C_21
REMARK    5  A    between atoms: C_21  and  N_23
REMARK    6  A    between atoms: N_24  and  S_28
REMARK    7  A    between atoms: S_28  and  C_31
REMARK                            x       y       z     vdW  Elec       q    Type
REMARK                         _______ _______ _______ _____ _____    ______ ____
ROOT
ATOM      1  C   UNL     1      33.620 -13.037 -23.550  0.00  0.00    +0.058 C 
ATOM      2  C   UNL     1      34.296 -15.730 -23.553  0.00  0.00    -0.020 C 
ATOM      3  C   UNL     1      34.304 -13.572 -22.467  0.00  0.00    +0.015 C 
ATOM      4  C   UNL     1      33.269 -13.830 -24.635  0.00  0.00    +0.015 C 
ATOM      5  C   UNL     1      34.644 -14.925 -22.468  0.00  0.00    -0.003 C 
ATOM      6  C   UNL     1      33.608 -15.183 -24.636  0.00  0.00    -0.003 C 
ENDROOT
BRANCH   1   7
ATOM      7  N   UNL     1      33.279 -11.683 -23.549  0.00  0.00    -0.242 N 
ATOM      8  N   UNL     1      33.042  -9.596 -24.277  0.00  0.00    -0.387 NA
ATOM      9  N   UNL     1      31.590  -9.073 -20.910  0.00  0.00    -0.408 NA
ATOM     10  C   UNL     1      32.700 -10.998 -22.513  0.00  0.00    +0.091 C 
ATOM     11  C   UNL     1      33.463 -10.804 -24.580  0.00  0.00    +0.168 C 
ATOM     12  C   UNL     1      32.563  -9.698 -22.992  0.00  0.00    +0.172 C 
ATOM     13  C   UNL     1      32.298 -11.384 -21.242  0.00  0.00    +0.045 C 
ATOM     14  C   UNL     1      31.995  -8.735 -22.159  0.00  0.00    +0.140 C 
ATOM     15  C   UNL     1      31.747 -10.353 -20.493  0.00  0.00    +0.110 C 
ATOM     16  C   UNL     1      31.800  -7.314 -22.569  0.00  0.00    +0.069 C 
ATOM     17  C   UNL     1      31.277 -10.653 -19.106  0.00  0.00    +0.066 C 
BRANCH  11  18
ATOM     18  C   UNL     1      34.070 -11.202 -25.869  0.00  0.00    +0.075 C 
ATOM     19  C   UNL     1      35.528 -10.750 -26.000  0.00  0.00    +0.009 C 
ENDBRANCH  11  18
ENDBRANCH   1   7
BRANCH   2  20
ATOM     20  C   UNL     1      34.659 -17.177 -23.554  0.00  0.00    +0.048 C 
BRANCH  20  21
ATOM     21  C   UNL     1      35.607 -17.572 -22.415  0.00  0.00    +0.096 C 
BRANCH  21  23
ATOM     22  O   UNL     1      37.172 -19.384 -20.828  0.00  0.00    -0.251 OA
ATOM     23  N   UNL     1      35.128 -18.708 -21.675  0.00  0.00    -0.287 N 
ATOM     24  N   UNL     1      35.249 -20.599 -20.292  0.00  0.00    -0.169 N 
ATOM     25  C   UNL     1      35.957 -19.533 -20.933  0.00  0.00    +0.319 C 
ATOM     26  H   UNL     1      34.165 -18.911 -21.699  0.00  0.00    +0.151 HD
ATOM     27  H   UNL     1      34.276 -20.645 -20.434  0.00  0.00    +0.178 HD
BRANCH  24  28
ATOM     28  S   UNL     1      35.954 -21.800 -19.300  0.00  0.00    +0.077 S 
ATOM     29  O   UNL     1      36.403 -22.903 -20.127  0.00  0.00    -0.150 OA
ATOM     30  O   UNL     1      36.860 -21.171 -18.358  0.00  0.00    -0.150 OA
BRANCH  28  31
ATOM     31  C   UNL     1      34.550 -22.341 -18.374  0.00  0.00    +0.125 C 
ATOM     32  C   UNL     1      34.745 -23.074 -17.216  0.00  0.00    +0.020 C 
ATOM     33  C   UNL     1      33.280 -22.024 -18.824  0.00  0.00    +0.020 C 
ATOM     34  C   UNL     1      32.349 -23.190 -16.924  0.00  0.00    -0.022 C 
ATOM     35  C   UNL     1      33.636 -23.501 -16.485  0.00  0.00    -0.003 C 
ATOM     36  C   UNL     1      32.171 -22.451 -18.094  0.00  0.00    -0.003 C 
ATOM     37  C   UNL     1      31.165 -23.646 -16.143  0.00  0.00    +0.031 C 
ENDBRANCH  28  31
ENDBRANCH  24  28
ENDBRANCH  21  23
ENDBRANCH  20  21
ENDBRANCH   2  20
TORSDOF 7
ENDMDL
MODEL 9
REMARK VINA RESULT:     -11.1      5.595     14.346
REMARK  Name = 11677589
REMARK  7 active torsions:
REMARK  status: ('A' for Active; 'I' for Inactive)
REMARK    1  A    between atoms: C_1  and  N_7
REMARK    2  A    between atoms: C_2  and  C_20
REMARK    3  A    between atoms: C_11  and  C_18
REMARK    4  A    between atoms: C_20  and  C_21
REMARK    5  A    between atoms: C_21  and  N_23
REMARK    6  A    between atoms: N_24  and  S_28
REMARK    7  A    between atoms: S_28  and  C_31
REMARK                            x       y       z     vdW  Elec       q    Type
REMARK                         _______ _______ _______ _____ _____    ______ ____
ROOT
ATOM      1  C   UNL     1      32.982  -8.698 -23.216  0.00  0.00    +0.058 C 
ATOM      2  C   UNL     1      33.805 -11.317 -23.631  0.00  0.00    -0.020 C 
ATOM      3  C   UNL     1      32.146  -9.745 -22.850  0.00  0.00    +0.015 C 
ATOM      4  C   UNL     1      34.224  -8.943 -23.787  0.00  0.00    +0.015 C 
ATOM      5  C   UNL     1      32.559 -11.061 -23.059  0.00  0.00    -0.003 C 
ATOM      6  C   UNL     1      34.638 -10.259 -23.996  0.00  0.00    -0.003 C 
ENDROOT
BRANCH   1   7
ATOM      7  N   UNL     1      32.569  -7.381 -23.008  0.00  0.00    -0.242 N 
ATOM      8  N   UNL     1      31.708  -5.607 -21.981  0.00  0.00    -0.387 NA
ATOM      9  N   UNL     1      32.568  -3.919 -25.165  0.00  0.00    -0.408 NA
ATOM     10  C   UNL     1      32.673  -6.351 -23.907  0.00  0.00    +0.091 C 
ATOM     11  C   UNL     1      31.987  -6.887 -21.873  0.00  0.00    +0.168 C 
ATOM     12  C   UNL     1      32.129  -5.256 -23.242  0.00  0.00    +0.172 C 
ATOM     13  C   UNL     1      33.176  -6.282 -25.199  0.00  0.00    +0.045 C 
ATOM     14  C   UNL     1      32.087  -4.028 -23.901  0.00  0.00    +0.140 C 
ATOM     15  C   UNL     1      33.087  -5.018 -25.766  0.00  0.00    +0.110 C 
ATOM     16  C   UNL     1      31.527  -2.790 -23.285  0.00  0.00    +0.069 C 
ATOM     17  C   UNL     1      33.598  -4.823 -27.156  0.00  0.00    +0.066 C 
BRANCH  11  18
ATOM     18  C   UNL     1      31.718  -7.725 -20.685  0.00  0.00    +0.075 C 
ATOM     19  C   UNL     1      32.961  -7.931 -19.814  0.00  0.00    +0.009 C 
ENDBRANCH  11  18
ENDBRANCH   1   7
BRANCH   2  20
ATOM     20  C   UNL     1      34.247 -12.724 -23.855  0.00  0.00    +0.048 C 
BRANCH  20  21
ATOM     21  C   UNL     1      33.264 -13.769 -23.312  0.00  0.00    +0.096 C 
BRANCH  21  23
ATOM     22  O   UNL     1      34.367 -16.140 -24.500  0.00  0.00    -0.251 OA
ATOM     23  N   UNL     1      33.932 -14.846 -22.633  0.00  0.00    -0.287 N 
ATOM     24  N   UNL     1      35.051 -16.895 -22.397  0.00  0.00    -0.169 N 
ATOM     25  C   UNL     1      34.436 -15.958 -23.288  0.00  0.00    +0.319 C 
ATOM     26  H   UNL     1      34.035 -14.792 -21.655  0.00  0.00    +0.151 HD
ATOM     27  H   UNL     1      35.057 -16.669 -21.439  0.00  0.00    +0.178 HD
BRANCH  24  28
ATOM     28  S   UNL     1      35.774 -18.372 -22.861  0.00  0.00    +0.077 S 
ATOM     29  O   UNL     1      35.319 -18.734 -24.189  0.00  0.00    -0.150 OA
ATOM     30  O   UNL     1      37.192 -18.328 -22.556  0.00  0.00    -0.150 OA
BRANCH  28  31
ATOM     31  C   UNL     1      35.038 -19.487 -21.703  0.00  0.00    +0.125 C 
ATOM     32  C   UNL     1      35.854 -20.248 -20.884  0.00  0.00    +0.020 C 
ATOM     33  C   UNL     1      33.658 -19.579 -21.638  0.00  0.00    +0.020 C 
ATOM     34  C   UNL     1      33.884 -21.232 -19.891  0.00  0.00    -0.022 C 
ATOM     35  C   UNL     1      35.272 -21.127 -19.970  0.00  0.00    -0.003 C 
ATOM     36  C   UNL     1      33.077 -20.458 -20.724  0.00  0.00    -0.003 C 
ATOM     37  C   UNL     1      33.262 -22.171 -18.914  0.00  0.00    +0.031 C 
ENDBRANCH  28  31
ENDBRANCH  24  28
ENDBRANCH  21  23
ENDBRANCH  20  21
ENDBRANCH   2  20
TORSDOF 7
ENDMDL
