MODEL 1
REMARK VINA RESULT:     -11.7      0.000      0.000
REMARK  Name = 11659487
REMARK  5 active torsions:
REMARK  status: ('A' for Active; 'I' for Inactive)
REMARK    1  A    between atoms: C_1  and  C_15
REMARK    2  A    between atoms: C_2  and  C_7
REMARK    3  A    between atoms: C_10  and  O_13
REMARK    4  A    between atoms: C_15  and  C_16
REMARK    5  A    between atoms: C_16  and  C_18
REMARK                            x       y       z     vdW  Elec       q    Type
REMARK                         _______ _______ _______ _____ _____    ______ ____
ROOT
ATOM      1  C   UNL     1      34.424 -21.654 -19.536  0.00  0.00    -0.022 C 
ATOM      2  C   UNL     1      35.344 -20.047 -21.087  0.00  0.00    -0.000 C 
ATOM      3  C   UNL     1      34.242 -20.711 -20.546  0.00  0.00    -0.004 C 
ATOM      4  C   UNL     1      35.708 -21.935 -19.067  0.00  0.00    -0.004 C 
ATOM      5  C   UNL     1      36.627 -20.327 -20.618  0.00  0.00    -0.000 C 
ATOM      6  C   UNL     1      36.809 -21.272 -19.608  0.00  0.00    -0.000 C 
ENDROOT
BRANCH   2   7
ATOM      7  C   UNL     1      35.155 -19.067 -22.134  0.00  0.00    +0.003 C 
ATOM      8  C   UNL     1      35.362 -17.713 -21.869  0.00  0.00    +0.037 C 
ATOM      9  C   UNL     1      34.768 -19.475 -23.410  0.00  0.00    +0.000 C 
ATOM     10  C   UNL     1      35.180 -16.769 -22.879  0.00  0.00    +0.139 C 
ATOM     11  C   UNL     1      34.586 -18.531 -24.420  0.00  0.00    +0.003 C 
ATOM     12  C   UNL     1      34.793 -17.177 -24.155  0.00  0.00    +0.037 C 
BRANCH  10  13
ATOM     13  O   UNL     1      35.382 -15.447 -22.620  0.00  0.00    -0.471 OA
ATOM     14  C   UNL     1      34.321 -14.552 -22.946  0.00  0.00    +0.252 C 
ENDBRANCH  10  13
ENDBRANCH   2   7
BRANCH   1  15
ATOM     15  C   UNL     1      33.247 -22.365 -18.957  0.00  0.00    +0.034 C 
BRANCH  15  16
ATOM     16  C   UNL     1      33.553 -23.125 -17.651  0.00  0.00    +0.064 C 
BRANCH  16  18
ATOM     17  N   UNL     1      31.158 -23.041 -17.298  0.00  0.00    -0.396 NA
ATOM     18  C   UNL     1      32.363 -23.221 -16.727  0.00  0.00    +0.110 C 
ATOM     19  C   UNL     1      32.580 -23.480 -15.392  0.00  0.00    +0.023 C 
ATOM     20  C   UNL     1      31.463 -23.563 -14.568  0.00  0.00    -0.015 C 
ATOM     21  C   UNL     1      30.097 -23.128 -16.467  0.00  0.00    +0.158 C 
ATOM     22  C   UNL     1      30.194 -23.385 -15.108  0.00  0.00    +0.100 C 
ATOM     23  N   UNL     1      28.796 -22.950 -17.001  0.00  0.00    -0.336 N 
ATOM     24  H   UNL     1      28.680 -22.766 -17.961  0.00  0.00    +0.144 HD
ATOM     25  H   UNL     1      28.009 -23.010 -16.412  0.00  0.00    +0.144 HD
ENDBRANCH  16  18
ENDBRANCH  15  16
ENDBRANCH   1  15
TORSDOF 5
ENDMDL
MODEL 2
REMARK VINA RESULT:     -11.4      1.760      2.553
REMARK  Name = 11659487
REMARK  5 active torsions:
REMARK  status: ('A' for Active; 'I' for Inactive)
REMARK    1  A    between atoms: C_1  and  C_15
REMARK    2  A    between atoms: C_2  and  C_7
REMARK    3  A    between atoms: C_10  and  O_13
REMARK    4  A    between atoms: C_15  and  C_16
REMARK    5  A    between atoms: C_16  and  C_18
REMARK                            x       y       z     vdW  Elec       q    Type
REMARK                         _______ _______ _______ _____ _____    ______ ____
ROOT
ATOM      1  C   UNL     1      34.411 -21.591 -19.506  0.00  0.00    -0.022 C 
ATOM      2  C   UNL     1      35.363 -20.010 -21.067  0.00  0.00    -0.000 C 
ATOM      3  C   UNL     1      34.246 -20.630 -20.504  0.00  0.00    -0.004 C 
ATOM      4  C   UNL     1      35.693 -21.933 -19.072  0.00  0.00    -0.004 C 
ATOM      5  C   UNL     1      36.643 -20.351 -20.633  0.00  0.00    -0.000 C 
ATOM      6  C   UNL     1      36.808 -21.313 -19.636  0.00  0.00    -0.000 C 
ENDROOT
BRANCH   2   7
ATOM      7  C   UNL     1      35.191 -19.013 -22.100  0.00  0.00    +0.003 C 
ATOM      8  C   UNL     1      34.728 -19.387 -23.361  0.00  0.00    +0.037 C 
ATOM      9  C   UNL     1      35.487 -17.676 -21.835  0.00  0.00    +0.000 C 
ATOM     10  C   UNL     1      34.563 -18.425 -24.358  0.00  0.00    +0.139 C 
ATOM     11  C   UNL     1      35.321 -16.713 -22.831  0.00  0.00    +0.003 C 
ATOM     12  C   UNL     1      34.858 -17.088 -24.092  0.00  0.00    +0.037 C 
BRANCH  10  13
ATOM     13  O   UNL     1      34.111 -18.790 -25.589  0.00  0.00    -0.471 OA
ATOM     14  C   UNL     1      32.698 -18.830 -25.777  0.00  0.00    +0.252 C 
ENDBRANCH  10  13
ENDBRANCH   2   7
BRANCH   1  15
ATOM     15  C   UNL     1      33.219 -22.254 -18.903  0.00  0.00    +0.034 C 
BRANCH  15  16
ATOM     16  C   UNL     1      33.553 -23.505 -18.067  0.00  0.00    +0.064 C 
BRANCH  16  18
ATOM     17  N   UNL     1      33.836 -23.668 -15.667  0.00  0.00    -0.396 NA
ATOM     18  C   UNL     1      32.970 -23.462 -16.675  0.00  0.00    +0.110 C 
ATOM     19  C   UNL     1      31.622 -23.223 -16.529  0.00  0.00    +0.023 C 
ATOM     20  C   UNL     1      31.116 -23.189 -15.234  0.00  0.00    -0.015 C 
ATOM     21  C   UNL     1      33.310 -23.630 -14.424  0.00  0.00    +0.158 C 
ATOM     22  C   UNL     1      31.970 -23.396 -14.156  0.00  0.00    +0.100 C 
ATOM     23  N   UNL     1      34.166 -23.837 -13.314  0.00  0.00    -0.336 N 
ATOM     24  H   UNL     1      35.125 -24.007 -13.458  0.00  0.00    +0.144 HD
ATOM     25  H   UNL     1      33.802 -23.813 -12.399  0.00  0.00    +0.144 HD
ENDBRANCH  16  18
ENDBRANCH  15  16
ENDBRANCH   1  15
TORSDOF 5
ENDMDL
MODEL 3
REMARK VINA RESULT:     -11.0      4.608      8.840
REMARK  Name = 11659487
REMARK  5 active torsions:
REMARK  status: ('A' for Active; 'I' for Inactive)
REMARK    1  A    between atoms: C_1  and  C_15
REMARK    2  A    between atoms: C_2  and  C_7
REMARK    3  A    between atoms: C_10  and  O_13
REMARK    4  A    between atoms: C_15  and  C_16
REMARK    5  A    between atoms: C_16  and  C_18
REMARK                            x       y       z     vdW  Elec       q    Type
REMARK                         _______ _______ _______ _____ _____    ______ ____
ROOT
ATOM      1  C   UNL     1      34.929 -16.777 -22.656  0.00  0.00    -0.022 C 
ATOM      2  C   UNL     1      34.997 -19.108 -22.027  0.00  0.00    -0.000 C 
ATOM      3  C   UNL     1      35.014 -17.759 -21.670  0.00  0.00    -0.004 C 
ATOM      4  C   UNL     1      34.828 -17.142 -23.998  0.00  0.00    -0.004 C 
ATOM      5  C   UNL     1      34.896 -19.474 -23.369  0.00  0.00    -0.000 C 
ATOM      6  C   UNL     1      34.812 -18.491 -24.355  0.00  0.00    -0.000 C 
ENDROOT
BRANCH   2   7
ATOM      7  C   UNL     1      35.084 -20.128 -21.004  0.00  0.00    +0.003 C 
ATOM      8  C   UNL     1      33.924 -20.731 -20.520  0.00  0.00    +0.037 C 
ATOM      9  C   UNL     1      36.328 -20.509 -20.503  0.00  0.00    +0.000 C 
ATOM     10  C   UNL     1      34.008 -21.715 -19.534  0.00  0.00    +0.139 C 
ATOM     11  C   UNL     1      36.413 -21.492 -19.517  0.00  0.00    +0.003 C 
ATOM     12  C   UNL     1      35.252 -22.095 -19.033  0.00  0.00    +0.037 C 
BRANCH  10  13
ATOM     13  O   UNL     1      32.875 -22.304 -19.061  0.00  0.00    -0.471 OA
ATOM     14  C   UNL     1      32.955 -22.935 -17.785  0.00  0.00    +0.252 C 
ENDBRANCH  10  13
ENDBRANCH   2   7
BRANCH   1  15
ATOM     15  C   UNL     1      34.947 -15.335 -22.276  0.00  0.00    +0.034 C 
BRANCH  15  16
ATOM     16  C   UNL     1      34.230 -14.412 -23.282  0.00  0.00    +0.064 C 
BRANCH  16  18
ATOM     17  N   UNL     1      33.301 -12.175 -23.227  0.00  0.00    -0.396 NA
ATOM     18  C   UNL     1      33.358 -13.373 -22.618  0.00  0.00    +0.110 C 
ATOM     19  C   UNL     1      32.694 -13.709 -21.459  0.00  0.00    +0.023 C 
ATOM     20  C   UNL     1      31.899 -12.730 -20.873  0.00  0.00    -0.015 C 
ATOM     21  C   UNL     1      32.520 -11.250 -22.629  0.00  0.00    +0.158 C 
ATOM     22  C   UNL     1      31.805 -11.474 -21.462  0.00  0.00    +0.100 C 
ATOM     23  N   UNL     1      32.413  -9.965 -23.217  0.00  0.00    -0.336 N 
ATOM     24  H   UNL     1      32.904  -9.761 -24.045  0.00  0.00    +0.144 HD
ATOM     25  H   UNL     1      31.849  -9.276 -22.797  0.00  0.00    +0.144 HD
ENDBRANCH  16  18
ENDBRANCH  15  16
ENDBRANCH   1  15
TORSDOF 5
ENDMDL
MODEL 4
REMARK VINA RESULT:     -10.9      4.683      9.482
REMARK  Name = 11659487
REMARK  5 active torsions:
REMARK  status: ('A' for Active; 'I' for Inactive)
REMARK    1  A    between atoms: C_1  and  C_15
REMARK    2  A    between atoms: C_2  and  C_7
REMARK    3  A    between atoms: C_10  and  O_13
REMARK    4  A    between atoms: C_15  and  C_16
REMARK    5  A    between atoms: C_16  and  C_18
REMARK                            x       y       z     vdW  Elec       q    Type
REMARK                         _______ _______ _______ _____ _____    ______ ____
ROOT
ATOM      1  C   UNL     1      34.969 -16.748 -22.710  0.00  0.00    -0.022 C 
ATOM      2  C   UNL     1      34.998 -19.080 -22.076  0.00  0.00    -0.000 C 
ATOM      3  C   UNL     1      35.045 -17.730 -21.722  0.00  0.00    -0.004 C 
ATOM      4  C   UNL     1      34.849 -17.115 -24.050  0.00  0.00    -0.004 C 
ATOM      5  C   UNL     1      34.877 -19.446 -23.416  0.00  0.00    -0.000 C 
ATOM      6  C   UNL     1      34.803 -18.464 -24.404  0.00  0.00    -0.000 C 
ENDROOT
BRANCH   2   7
ATOM      7  C   UNL     1      35.075 -20.099 -21.052  0.00  0.00    +0.003 C 
ATOM      8  C   UNL     1      33.909 -20.685 -20.563  0.00  0.00    +0.037 C 
ATOM      9  C   UNL     1      36.316 -20.495 -20.555  0.00  0.00    +0.000 C 
ATOM     10  C   UNL     1      33.983 -21.668 -19.575  0.00  0.00    +0.139 C 
ATOM     11  C   UNL     1      36.391 -21.478 -19.568  0.00  0.00    +0.003 C 
ATOM     12  C   UNL     1      35.224 -22.065 -19.078  0.00  0.00    +0.037 C 
BRANCH  10  13
ATOM     13  O   UNL     1      32.844 -22.241 -19.097  0.00  0.00    -0.471 OA
ATOM     14  C   UNL     1      32.931 -22.911 -17.841  0.00  0.00    +0.252 C 
ENDBRANCH  10  13
ENDBRANCH   2   7
BRANCH   1  15
ATOM     15  C   UNL     1      35.019 -15.306 -22.333  0.00  0.00    +0.034 C 
BRANCH  15  16
ATOM     16  C   UNL     1      33.689 -14.556 -22.546  0.00  0.00    +0.064 C 
BRANCH  16  18
ATOM     17  N   UNL     1      34.254 -12.435 -23.572  0.00  0.00    -0.396 NA
ATOM     18  C   UNL     1      33.706 -13.649 -23.754  0.00  0.00    +0.110 C 
ATOM     19  C   UNL     1      33.170 -14.112 -24.936  0.00  0.00    +0.023 C 
ATOM     20  C   UNL     1      33.202 -13.253 -26.029  0.00  0.00    -0.015 C 
ATOM     21  C   UNL     1      34.266 -11.628 -24.655  0.00  0.00    +0.158 C 
ATOM     22  C   UNL     1      33.758 -11.986 -25.895  0.00  0.00    +0.100 C 
ATOM     23  N   UNL     1      34.830 -10.334 -24.535  0.00  0.00    -0.336 N 
ATOM     24  H   UNL     1      35.202 -10.038 -23.674  0.00  0.00    +0.144 HD
ATOM     25  H   UNL     1      34.848  -9.731 -25.313  0.00  0.00    +0.144 HD
ENDBRANCH  16  18
ENDBRANCH  15  16
ENDBRANCH   1  15
TORSDOF 5
ENDMDL
MODEL 5
REMARK VINA RESULT:     -10.7      3.402      4.466
REMARK  Name = 11659487
REMARK  5 active torsions:
REMARK  status: ('A' for Active; 'I' for Inactive)
REMARK    1  A    between atoms: C_1  and  C_15
REMARK    2  A    between atoms: C_2  and  C_7
REMARK    3  A    between atoms: C_10  and  O_13
REMARK    4  A    between atoms: C_15  and  C_16
REMARK    5  A    between atoms: C_16  and  C_18
REMARK                            x       y       z     vdW  Elec       q    Type
REMARK                         _______ _______ _______ _____ _____    ______ ____
ROOT
ATOM      1  C   UNL     1      35.807 -21.775 -18.977  0.00  0.00    -0.022 C 
ATOM      2  C   UNL     1      34.811 -20.364 -20.668  0.00  0.00    -0.000 C 
ATOM      3  C   UNL     1      35.927 -20.764 -19.930  0.00  0.00    -0.004 C 
ATOM      4  C   UNL     1      34.571 -22.385 -18.759  0.00  0.00    -0.004 C 
ATOM      5  C   UNL     1      33.576 -20.974 -20.450  0.00  0.00    -0.000 C 
ATOM      6  C   UNL     1      33.456 -21.985 -19.496  0.00  0.00    -0.000 C 
ENDROOT
BRANCH   2   7
ATOM      7  C   UNL     1      34.936 -19.317 -21.658  0.00  0.00    +0.003 C 
ATOM      8  C   UNL     1      34.444 -19.514 -22.947  0.00  0.00    +0.037 C 
ATOM      9  C   UNL     1      35.548 -18.110 -21.322  0.00  0.00    +0.000 C 
ATOM     10  C   UNL     1      34.564 -18.503 -23.902  0.00  0.00    +0.139 C 
ATOM     11  C   UNL     1      35.669 -17.099 -22.276  0.00  0.00    +0.003 C 
ATOM     12  C   UNL     1      35.176 -17.296 -23.566  0.00  0.00    +0.037 C 
BRANCH  10  13
ATOM     13  O   UNL     1      34.083 -18.695 -25.161  0.00  0.00    -0.471 OA
ATOM     14  C   UNL     1      33.478 -17.575 -25.803  0.00  0.00    +0.252 C 
ENDBRANCH  10  13
ENDBRANCH   2   7
BRANCH   1  15
ATOM     15  C   UNL     1      36.998 -22.203 -18.188  0.00  0.00    +0.034 C 
BRANCH  15  16
ATOM     16  C   UNL     1      36.885 -21.919 -16.677  0.00  0.00    +0.064 C 
BRANCH  16  18
ATOM     17  N   UNL     1      38.035 -23.638 -15.416  0.00  0.00    -0.396 NA
ATOM     18  C   UNL     1      36.846 -23.174 -15.839  0.00  0.00    +0.110 C 
ATOM     19  C   UNL     1      35.625 -23.751 -15.568  0.00  0.00    +0.023 C 
ATOM     20  C   UNL     1      35.623 -24.906 -14.793  0.00  0.00    -0.015 C 
ATOM     21  C   UNL     1      37.994 -24.761 -14.666  0.00  0.00    +0.158 C 
ATOM     22  C   UNL     1      36.826 -25.427 -14.330  0.00  0.00    +0.100 C 
ATOM     23  N   UNL     1      39.212 -25.304 -14.185  0.00  0.00    -0.336 N 
ATOM     24  H   UNL     1      40.065 -24.864 -14.400  0.00  0.00    +0.144 HD
ATOM     25  H   UNL     1      39.203 -26.123 -13.638  0.00  0.00    +0.144 HD
ENDBRANCH  16  18
ENDBRANCH  15  16
ENDBRANCH   1  15
TORSDOF 5
ENDMDL
MODEL 6
REMARK VINA RESULT:     -10.7      2.731      3.649
REMARK  Name = 11659487
REMARK  5 active torsions:
REMARK  status: ('A' for Active; 'I' for Inactive)
REMARK    1  A    between atoms: C_1  and  C_15
REMARK    2  A    between atoms: C_2  and  C_7
REMARK    3  A    between atoms: C_10  and  O_13
REMARK    4  A    between atoms: C_15  and  C_16
REMARK    5  A    between atoms: C_16  and  C_18
REMARK                            x       y       z     vdW  Elec       q    Type
REMARK                         _______ _______ _______ _____ _____    ______ ____
ROOT
ATOM      1  C   UNL     1      35.651 -21.627 -19.275  0.00  0.00    -0.022 C 
ATOM      2  C   UNL     1      34.641 -20.203 -20.946  0.00  0.00    -0.000 C 
ATOM      3  C   UNL     1      35.775 -20.660 -20.273  0.00  0.00    -0.004 C 
ATOM      4  C   UNL     1      34.393 -22.136 -18.949  0.00  0.00    -0.004 C 
ATOM      5  C   UNL     1      33.384 -20.712 -20.621  0.00  0.00    -0.000 C 
ATOM      6  C   UNL     1      33.260 -21.678 -19.622  0.00  0.00    -0.000 C 
ENDROOT
BRANCH   2   7
ATOM      7  C   UNL     1      34.769 -19.202 -21.982  0.00  0.00    +0.003 C 
ATOM      8  C   UNL     1      35.023 -17.873 -21.641  0.00  0.00    +0.037 C 
ATOM      9  C   UNL     1      34.641 -19.564 -23.322  0.00  0.00    +0.000 C 
ATOM     10  C   UNL     1      35.147 -16.908 -22.640  0.00  0.00    +0.139 C 
ATOM     11  C   UNL     1      34.766 -18.600 -24.322  0.00  0.00    +0.003 C 
ATOM     12  C   UNL     1      35.019 -17.271 -23.981  0.00  0.00    +0.037 C 
BRANCH  10  13
ATOM     13  O   UNL     1      35.395 -15.611 -22.307  0.00  0.00    -0.471 OA
ATOM     14  C   UNL     1      34.472 -14.631 -22.780  0.00  0.00    +0.252 C 
ENDBRANCH  10  13
ENDBRANCH   2   7
BRANCH   1  15
ATOM     15  C   UNL     1      36.862 -22.116 -18.555  0.00  0.00    +0.034 C 
BRANCH  15  16
ATOM     16  C   UNL     1      36.885 -21.762 -17.055  0.00  0.00    +0.064 C 
BRANCH  16  18
ATOM     17  N   UNL     1      35.720 -23.503 -15.840  0.00  0.00    -0.396 NA
ATOM     18  C   UNL     1      36.916 -22.976 -16.158  0.00  0.00    +0.110 C 
ATOM     19  C   UNL     1      38.135 -23.455 -15.733  0.00  0.00    +0.023 C 
ATOM     20  C   UNL     1      38.128 -24.575 -14.909  0.00  0.00    -0.015 C 
ATOM     21  C   UNL     1      35.753 -24.590 -15.038  0.00  0.00    +0.158 C 
ATOM     22  C   UNL     1      36.919 -25.159 -14.549  0.00  0.00    +0.100 C 
ATOM     23  N   UNL     1      34.529 -25.198 -14.663  0.00  0.00    -0.336 N 
ATOM     24  H   UNL     1      33.677 -24.827 -14.986  0.00  0.00    +0.144 HD
ATOM     25  H   UNL     1      34.531 -25.990 -14.079  0.00  0.00    +0.144 HD
ENDBRANCH  16  18
ENDBRANCH  15  16
ENDBRANCH   1  15
TORSDOF 5
ENDMDL
MODEL 7
REMARK VINA RESULT:     -10.6      3.556      8.422
REMARK  Name = 11659487
REMARK  5 active torsions:
REMARK  status: ('A' for Active; 'I' for Inactive)
REMARK    1  A    between atoms: C_1  and  C_15
REMARK    2  A    between atoms: C_2  and  C_7
REMARK    3  A    between atoms: C_10  and  O_13
REMARK    4  A    between atoms: C_15  and  C_16
REMARK    5  A    between atoms: C_16  and  C_18
REMARK                            x       y       z     vdW  Elec       q    Type
REMARK                         _______ _______ _______ _____ _____    ______ ____
ROOT
ATOM      1  C   UNL     1      34.482 -22.713 -18.101  0.00  0.00    -0.022 C 
ATOM      2  C   UNL     1      32.779 -23.328 -16.502  0.00  0.00    -0.000 C 
ATOM      3  C   UNL     1      33.142 -22.949 -17.795  0.00  0.00    -0.004 C 
ATOM      4  C   UNL     1      35.458 -22.853 -17.115  0.00  0.00    -0.004 C 
ATOM      5  C   UNL     1      33.754 -23.469 -15.516  0.00  0.00    -0.000 C 
ATOM      6  C   UNL     1      35.095 -23.231 -15.822  0.00  0.00    -0.000 C 
ENDROOT
BRANCH   2   7
ATOM      7  C   UNL     1      31.389 -23.575 -16.184  0.00  0.00    +0.003 C 
ATOM      8  C   UNL     1      30.391 -22.789 -16.759  0.00  0.00    +0.037 C 
ATOM      9  C   UNL     1      31.047 -24.601 -15.304  0.00  0.00    +0.000 C 
ATOM     10  C   UNL     1      29.051 -23.028 -16.453  0.00  0.00    +0.139 C 
ATOM     11  C   UNL     1      29.707 -24.840 -14.998  0.00  0.00    +0.003 C 
ATOM     12  C   UNL     1      28.709 -24.054 -15.573  0.00  0.00    +0.037 C 
BRANCH  10  13
ATOM     13  O   UNL     1      28.077 -22.260 -17.015  0.00  0.00    -0.471 OA
ATOM     14  C   UNL     1      26.768 -22.360 -16.457  0.00  0.00    +0.252 C 
ENDBRANCH  10  13
ENDBRANCH   2   7
BRANCH   1  15
ATOM     15  C   UNL     1      34.871 -22.308 -19.483  0.00  0.00    +0.034 C 
BRANCH  15  16
ATOM     16  C   UNL     1      34.042 -21.140 -20.052  0.00  0.00    +0.064 C 
BRANCH  16  18
ATOM     17  N   UNL     1      34.228 -19.770 -22.041  0.00  0.00    -0.396 NA
ATOM     18  C   UNL     1      34.847 -20.214 -20.933  0.00  0.00    +0.110 C 
ATOM     19  C   UNL     1      36.132 -19.893 -20.556  0.00  0.00    +0.023 C 
ATOM     20  C   UNL     1      36.846 -19.038 -21.389  0.00  0.00    -0.015 C 
ATOM     21  C   UNL     1      34.952 -18.943 -22.826  0.00  0.00    +0.158 C 
ATOM     22  C   UNL     1      36.252 -18.550 -22.547  0.00  0.00    +0.100 C 
ATOM     23  N   UNL     1      34.361 -18.436 -24.010  0.00  0.00    -0.336 N 
ATOM     24  H   UNL     1      33.441 -18.689 -24.247  0.00  0.00    +0.144 HD
ATOM     25  H   UNL     1      34.873 -17.831 -24.596  0.00  0.00    +0.144 HD
ENDBRANCH  16  18
ENDBRANCH  15  16
ENDBRANCH   1  15
TORSDOF 5
ENDMDL
MODEL 8
REMARK VINA RESULT:     -10.6      2.953      5.649
REMARK  Name = 11659487
REMARK  5 active torsions:
REMARK  status: ('A' for Active; 'I' for Inactive)
REMARK    1  A    between atoms: C_1  and  C_15
REMARK    2  A    between atoms: C_2  and  C_7
REMARK    3  A    between atoms: C_10  and  O_13
REMARK    4  A    between atoms: C_15  and  C_16
REMARK    5  A    between atoms: C_16  and  C_18
REMARK                            x       y       z     vdW  Elec       q    Type
REMARK                         _______ _______ _______ _____ _____    ______ ____
ROOT
ATOM      1  C   UNL     1      35.280 -17.045 -22.082  0.00  0.00    -0.022 C 
ATOM      2  C   UNL     1      34.401 -14.937 -22.872  0.00  0.00    -0.000 C 
ATOM      3  C   UNL     1      34.897 -16.215 -23.135  0.00  0.00    -0.004 C 
ATOM      4  C   UNL     1      35.169 -16.598 -20.765  0.00  0.00    -0.004 C 
ATOM      5  C   UNL     1      34.290 -14.490 -21.556  0.00  0.00    -0.000 C 
ATOM      6  C   UNL     1      34.674 -15.320 -20.502  0.00  0.00    -0.000 C 
ENDROOT
BRANCH   2   7
ATOM      7  C   UNL     1      34.003 -14.077 -23.964  0.00  0.00    +0.003 C 
ATOM      8  C   UNL     1      34.157 -12.695 -23.856  0.00  0.00    +0.037 C 
ATOM      9  C   UNL     1      33.465 -14.629 -25.126  0.00  0.00    +0.000 C 
ATOM     10  C   UNL     1      33.773 -11.866 -24.910  0.00  0.00    +0.139 C 
ATOM     11  C   UNL     1      33.080 -13.801 -26.180  0.00  0.00    +0.003 C 
ATOM     12  C   UNL     1      33.235 -12.418 -26.072  0.00  0.00    +0.037 C 
BRANCH  10  13
ATOM     13  O   UNL     1      33.924 -10.517 -24.805  0.00  0.00    -0.471 OA
ATOM     14  C   UNL     1      33.407  -9.894 -23.631  0.00  0.00    +0.252 C 
ENDBRANCH  10  13
ENDBRANCH   2   7
BRANCH   1  15
ATOM     15  C   UNL     1      35.809 -18.411 -22.363  0.00  0.00    +0.034 C 
BRANCH  15  16
ATOM     16  C   UNL     1      34.735 -19.517 -22.344  0.00  0.00    +0.064 C 
BRANCH  16  18
ATOM     17  N   UNL     1      33.654 -20.810 -20.605  0.00  0.00    -0.396 NA
ATOM     18  C   UNL     1      34.826 -20.413 -21.133  0.00  0.00    +0.110 C 
ATOM     19  C   UNL     1      36.071 -20.758 -20.656  0.00  0.00    +0.023 C 
ATOM     20  C   UNL     1      36.120 -21.585 -19.539  0.00  0.00    -0.015 C 
ATOM     21  C   UNL     1      33.741 -21.611 -19.521  0.00  0.00    +0.158 C 
ATOM     22  C   UNL     1      34.938 -22.024 -18.954  0.00  0.00    +0.100 C 
ATOM     23  N   UNL     1      32.545 -22.069 -18.914  0.00  0.00    -0.336 N 
ATOM     24  H   UNL     1      31.673 -21.801 -19.282  0.00  0.00    +0.144 HD
ATOM     25  H   UNL     1      32.587 -22.654 -18.122  0.00  0.00    +0.144 HD
ENDBRANCH  16  18
ENDBRANCH  15  16
ENDBRANCH   1  15
TORSDOF 5
ENDMDL
MODEL 9
REMARK VINA RESULT:     -10.6      3.534      6.724
REMARK  Name = 11659487
REMARK  5 active torsions:
REMARK  status: ('A' for Active; 'I' for Inactive)
REMARK    1  A    between atoms: C_1  and  C_15
REMARK    2  A    between atoms: C_2  and  C_7
REMARK    3  A    between atoms: C_10  and  O_13
REMARK    4  A    between atoms: C_15  and  C_16
REMARK    5  A    between atoms: C_16  and  C_18
REMARK                            x       y       z     vdW  Elec       q    Type
REMARK                         _______ _______ _______ _____ _____    ______ ____
ROOT
ATOM      1  C   UNL     1      34.949 -16.622 -23.276  0.00  0.00    -0.022 C 
ATOM      2  C   UNL     1      33.824 -14.562 -23.847  0.00  0.00    -0.000 C 
ATOM      3  C   UNL     1      34.546 -15.332 -22.934  0.00  0.00    -0.004 C 
ATOM      4  C   UNL     1      34.628 -17.144 -24.530  0.00  0.00    -0.004 C 
ATOM      5  C   UNL     1      33.504 -15.082 -25.100  0.00  0.00    -0.000 C 
ATOM      6  C   UNL     1      33.906 -16.373 -25.442  0.00  0.00    -0.000 C 
ENDROOT
BRANCH   2   7
ATOM      7  C   UNL     1      33.408 -13.222 -23.492  0.00  0.00    +0.003 C 
ATOM      8  C   UNL     1      32.504 -13.026 -22.448  0.00  0.00    +0.037 C 
ATOM      9  C   UNL     1      33.911 -12.127 -24.194  0.00  0.00    +0.000 C 
ATOM     10  C   UNL     1      32.104 -11.734 -22.106  0.00  0.00    +0.139 C 
ATOM     11  C   UNL     1      33.510 -10.835 -23.853  0.00  0.00    +0.003 C 
ATOM     12  C   UNL     1      32.607 -10.639 -22.808  0.00  0.00    +0.037 C 
BRANCH  10  13
ATOM     13  O   UNL     1      31.221 -11.542 -21.087  0.00  0.00    -0.471 OA
ATOM     14  C   UNL     1      31.380 -10.360 -20.305  0.00  0.00    +0.252 C 
ENDBRANCH  10  13
ENDBRANCH   2   7
BRANCH   1  15
ATOM     15  C   UNL     1      35.720 -17.447 -22.302  0.00  0.00    +0.034 C 
BRANCH  15  16
ATOM     16  C   UNL     1      35.755 -18.950 -22.641  0.00  0.00    +0.064 C 
BRANCH  16  18
ATOM     17  N   UNL     1      35.835 -20.508 -20.788  0.00  0.00    -0.396 NA
ATOM     18  C   UNL     1      35.045 -19.806 -21.619  0.00  0.00    +0.110 C 
ATOM     19  C   UNL     1      33.667 -19.814 -21.605  0.00  0.00    +0.023 C 
ATOM     20  C   UNL     1      33.045 -20.612 -20.652  0.00  0.00    -0.015 C 
ATOM     21  C   UNL     1      35.195 -21.272 -19.876  0.00  0.00    +0.158 C 
ATOM     22  C   UNL     1      33.815 -21.358 -19.767  0.00  0.00    +0.100 C 
ATOM     23  N   UNL     1      35.966 -22.038 -18.966  0.00  0.00    -0.336 N 
ATOM     24  H   UNL     1      36.949 -22.007 -19.008  0.00  0.00    +0.144 HD
ATOM     25  H   UNL     1      35.518 -22.601 -18.294  0.00  0.00    +0.144 HD
ENDBRANCH  16  18
ENDBRANCH  15  16
ENDBRANCH   1  15
TORSDOF 5
ENDMDL
