MODEL 1
REMARK VINA RESULT:     -11.4      0.000      0.000
REMARK  Name = 46861612
REMARK  7 active torsions:
REMARK  status: ('A' for Active; 'I' for Inactive)
REMARK    1  A    between atoms: C_1  and  N_2
REMARK    2  A    between atoms: C_1  and  C_17
REMARK    3  A    between atoms: N_3  and  C_11
REMARK    4  A    between atoms: C_17  and  C_18
REMARK    5  A    between atoms: C_18  and  C_19
REMARK    6  A    between atoms: C_19  and  O_20
REMARK    7  A    between atoms: O_20  and  C_24
REMARK                            x       y       z     vdW  Elec       q    Type
REMARK                         _______ _______ _______ _____ _____    ______ ____
ROOT
ATOM      1  C   UNL     1      34.884 -17.019 -24.820  0.00  0.00    -0.077 C 
ENDROOT
BRANCH   1   2
ATOM      2  N   UNL     1      34.044 -15.973 -24.237  0.00  0.00    +0.389 N 
ATOM      3  N   UNL     1      33.361 -13.314 -23.451  0.00  0.00    -0.311 N 
ATOM      4  C   UNL     1      34.727 -15.335 -23.106  0.00  0.00    -0.055 C 
ATOM      5  C   UNL     1      33.703 -14.965 -25.247  0.00  0.00    -0.055 C 
ATOM      6  C   UNL     1      32.777 -13.894 -24.665  0.00  0.00    +0.068 C 
ATOM      7  C   UNL     1      33.836 -14.278 -22.451  0.00  0.00    +0.068 C 
ATOM      8  H   UNL     1      33.184 -16.407 -23.901  0.00  0.00    -0.080 HD
BRANCH   3  11
ATOM      9 CL   UNL     1      34.583 -10.957 -24.841  0.00  0.00    -0.080 Cl
ATOM     10 CL   UNL     1      33.516  -8.140 -23.729  0.00  0.00    -0.081 Cl
ATOM     11  C   UNL     1      32.926 -12.061 -23.003  0.00  0.00    +0.059 C 
ATOM     12  C   UNL     1      33.413 -10.877 -23.560  0.00  0.00    +0.081 C 
ATOM     13  C   UNL     1      31.986 -12.014 -21.975  0.00  0.00    +0.015 C 
ATOM     14  C   UNL     1      32.957  -9.646 -23.087  0.00  0.00    +0.069 C 
ATOM     15  C   UNL     1      31.531 -10.783 -21.502  0.00  0.00    +0.002 C 
ATOM     16  C   UNL     1      32.017  -9.599 -22.058  0.00  0.00    +0.012 C 
ENDBRANCH   3  11
ENDBRANCH   1   2
BRANCH   1  17
ATOM     17  C   UNL     1      34.131 -18.347 -24.855  0.00  0.00    -0.019 C 
BRANCH  17  18
ATOM     18  C   UNL     1      34.956 -19.467 -24.222  0.00  0.00    +0.045 C 
BRANCH  18  19
ATOM     19  C   UNL     1      35.165 -19.238 -22.731  0.00  0.00    +0.205 C 
BRANCH  19  20
ATOM     20  O   UNL     1      34.013 -19.658 -22.014  0.00  0.00    -0.475 OA
BRANCH  20  24
ATOM     21  O   UNL     1      34.923 -22.938 -17.661  0.00  0.00    -0.464 OA
ATOM     22  O   UNL     1      31.522 -23.534 -16.597  0.00  0.00    -0.271 OA
ATOM     23  N   UNL     1      32.268 -22.262 -18.361  0.00  0.00    -0.278 N 
ATOM     24  C   UNL     1      34.221 -20.483 -20.938  0.00  0.00    +0.140 C 
ATOM     25  C   UNL     1      33.134 -20.964 -20.208  0.00  0.00    +0.055 C 
ATOM     26  C   UNL     1      33.353 -21.808 -19.118  0.00  0.00    +0.088 C 
ATOM     27  C   UNL     1      35.520 -20.834 -20.572  0.00  0.00    +0.040 C 
ATOM     28  C   UNL     1      34.650 -22.163 -18.753  0.00  0.00    +0.153 C 
ATOM     29  C   UNL     1      35.737 -21.669 -19.475  0.00  0.00    +0.041 C 
ATOM     30  C   UNL     1      33.836 -23.733 -17.227  0.00  0.00    +0.290 C 
ATOM     31  C   UNL     1      32.433 -23.158 -17.331  0.00  0.00    +0.271 C 
ATOM     32  H   UNL     1      31.364 -21.934 -18.572  0.00  0.00    +0.155 HD
ENDBRANCH  20  24
ENDBRANCH  19  20
ENDBRANCH  18  19
ENDBRANCH  17  18
ENDBRANCH   1  17
TORSDOF 7
ENDMDL
MODEL 2
REMARK VINA RESULT:     -11.2      2.104      2.871
REMARK  Name = 46861612
REMARK  7 active torsions:
REMARK  status: ('A' for Active; 'I' for Inactive)
REMARK    1  A    between atoms: C_1  and  N_2
REMARK    2  A    between atoms: C_1  and  C_17
REMARK    3  A    between atoms: N_3  and  C_11
REMARK    4  A    between atoms: C_17  and  C_18
REMARK    5  A    between atoms: C_18  and  C_19
REMARK    6  A    between atoms: C_19  and  O_20
REMARK    7  A    between atoms: O_20  and  C_24
REMARK                            x       y       z     vdW  Elec       q    Type
REMARK                         _______ _______ _______ _____ _____    ______ ____
ROOT
ATOM      1  C   UNL     1      34.562 -17.478 -24.722  0.00  0.00    -0.077 C 
ENDROOT
BRANCH   1   2
ATOM      2  N   UNL     1      34.541 -16.034 -24.498  0.00  0.00    +0.389 N 
ATOM      3  N   UNL     1      33.479 -13.557 -23.552  0.00  0.00    -0.311 N 
ATOM      4  C   UNL     1      33.375 -15.427 -25.152  0.00  0.00    -0.055 C 
ATOM      5  C   UNL     1      34.517 -15.736 -23.061  0.00  0.00    -0.055 C 
ATOM      6  C   UNL     1      34.553 -14.227 -22.811  0.00  0.00    +0.068 C 
ATOM      7  C   UNL     1      33.373 -13.908 -24.974  0.00  0.00    +0.068 C 
ATOM      8  H   UNL     1      35.389 -15.637 -24.903  0.00  0.00    -0.080 HD
BRANCH   3  11
ATOM      9 CL   UNL     1      31.937 -13.463 -20.984  0.00  0.00    -0.080 Cl
ATOM     10 CL   UNL     1      31.006 -10.499 -20.176  0.00  0.00    -0.081 Cl
ATOM     11  C   UNL     1      33.051 -12.285 -23.155  0.00  0.00    +0.059 C 
ATOM     12  C   UNL     1      32.322 -12.093 -21.980  0.00  0.00    +0.081 C 
ATOM     13  C   UNL     1      33.368 -11.195 -23.965  0.00  0.00    +0.015 C 
ATOM     14  C   UNL     1      31.911 -10.810 -21.617  0.00  0.00    +0.069 C 
ATOM     15  C   UNL     1      32.957  -9.913 -23.601  0.00  0.00    +0.002 C 
ATOM     16  C   UNL     1      32.228  -9.721 -22.427  0.00  0.00    +0.012 C 
ENDBRANCH   3  11
ENDBRANCH   1   2
BRANCH   1  17
ATOM     17  C   UNL     1      35.345 -18.178 -23.613  0.00  0.00    -0.019 C 
BRANCH  17  18
ATOM     18  C   UNL     1      34.605 -19.414 -23.107  0.00  0.00    +0.045 C 
BRANCH  18  19
ATOM     19  C   UNL     1      34.622 -19.496 -21.586  0.00  0.00    +0.205 C 
BRANCH  19  20
ATOM     20  O   UNL     1      35.680 -20.344 -21.162  0.00  0.00    -0.475 OA
BRANCH  20  24
ATOM     21  O   UNL     1      34.698 -23.477 -16.718  0.00  0.00    -0.464 OA
ATOM     22  O   UNL     1      37.978 -23.470 -15.203  0.00  0.00    -0.271 OA
ATOM     23  N   UNL     1      37.295 -22.440 -17.141  0.00  0.00    -0.278 N 
ATOM     24  C   UNL     1      35.450 -21.110 -20.048  0.00  0.00    +0.140 C 
ATOM     25  C   UNL     1      36.489 -21.370 -19.155  0.00  0.00    +0.055 C 
ATOM     26  C   UNL     1      36.247 -22.145 -18.019  0.00  0.00    +0.088 C 
ATOM     27  C   UNL     1      34.178 -21.632 -19.813  0.00  0.00    +0.040 C 
ATOM     28  C   UNL     1      34.976 -22.665 -17.781  0.00  0.00    +0.153 C 
ATOM     29  C   UNL     1      33.941 -22.416 -18.683  0.00  0.00    +0.041 C 
ATOM     30  C   UNL     1      35.615 -23.364 -15.647  0.00  0.00    +0.290 C 
ATOM     31  C   UNL     1      37.081 -23.130 -15.971  0.00  0.00    +0.271 C 
ATOM     32  H   UNL     1      38.206 -22.144 -17.365  0.00  0.00    +0.155 HD
ENDBRANCH  20  24
ENDBRANCH  19  20
ENDBRANCH  18  19
ENDBRANCH  17  18
ENDBRANCH   1  17
TORSDOF 7
ENDMDL
MODEL 3
REMARK VINA RESULT:     -11.1      5.167     11.028
REMARK  Name = 46861612
REMARK  7 active torsions:
REMARK  status: ('A' for Active; 'I' for Inactive)
REMARK    1  A    between atoms: C_1  and  N_2
REMARK    2  A    between atoms: C_1  and  C_17
REMARK    3  A    between atoms: N_3  and  C_11
REMARK    4  A    between atoms: C_17  and  C_18
REMARK    5  A    between atoms: C_18  and  C_19
REMARK    6  A    between atoms: C_19  and  O_20
REMARK    7  A    between atoms: O_20  and  C_24
REMARK                            x       y       z     vdW  Elec       q    Type
REMARK                         _______ _______ _______ _____ _____    ______ ____
ROOT
ATOM      1  C   UNL     1      34.616 -15.971 -24.245  0.00  0.00    -0.077 C 
ENDROOT
BRANCH   1   2
ATOM      2  N   UNL     1      35.179 -17.095 -23.498  0.00  0.00    +0.389 N 
ATOM      3  N   UNL     1      35.186 -19.205 -21.574  0.00  0.00    -0.311 N 
ATOM      4  C   UNL     1      35.221 -16.791 -22.063  0.00  0.00    -0.055 C 
ATOM      5  C   UNL     1      34.391 -18.311 -23.727  0.00  0.00    -0.055 C 
ATOM      6  C   UNL     1      35.003 -19.509 -22.997  0.00  0.00    +0.068 C 
ATOM      7  C   UNL     1      35.862 -17.936 -21.277  0.00  0.00    +0.068 C 
ATOM      8  H   UNL     1      36.131 -17.251 -23.830  0.00  0.00    -0.080 HD
BRANCH   3  11
ATOM      9 CL   UNL     1      32.614 -20.458 -20.683  0.00  0.00    -0.080 Cl
ATOM     10 CL   UNL     1      33.032 -22.839 -18.570  0.00  0.00    -0.081 Cl
ATOM     11  C   UNL     1      35.315 -20.251 -20.652  0.00  0.00    +0.059 C 
ATOM     12  C   UNL     1      34.200 -20.924 -20.151  0.00  0.00    +0.081 C 
ATOM     13  C   UNL     1      36.595 -20.614 -20.236  0.00  0.00    +0.015 C 
ATOM     14  C   UNL     1      34.367 -21.961 -19.233  0.00  0.00    +0.069 C 
ATOM     15  C   UNL     1      36.762 -21.651 -19.318  0.00  0.00    +0.002 C 
ATOM     16  C   UNL     1      35.648 -22.324 -18.816  0.00  0.00    +0.012 C 
ENDBRANCH   3  11
ENDBRANCH   1   2
BRANCH   1  17
ATOM     17  C   UNL     1      34.617 -14.708 -23.386  0.00  0.00    -0.019 C 
BRANCH  17  18
ATOM     18  C   UNL     1      33.255 -14.017 -23.416  0.00  0.00    +0.045 C 
BRANCH  18  19
ATOM     19  C   UNL     1      32.825 -13.561 -22.028  0.00  0.00    +0.205 C 
BRANCH  19  20
ATOM     20  O   UNL     1      31.721 -12.672 -22.134  0.00  0.00    -0.475 OA
BRANCH  20  24
ATOM     21  O   UNL     1      32.324  -7.749 -19.700  0.00  0.00    -0.464 OA
ATOM     22  O   UNL     1      32.671  -5.642 -22.615  0.00  0.00    -0.271 OA
ATOM     23  N   UNL     1      32.370  -7.919 -22.523  0.00  0.00    -0.278 N 
ATOM     24  C   UNL     1      31.860 -11.441 -21.546  0.00  0.00    +0.140 C 
ATOM     25  C   UNL     1      32.029 -10.306 -22.338  0.00  0.00    +0.055 C 
ATOM     26  C   UNL     1      32.163  -9.055 -21.733  0.00  0.00    +0.088 C 
ATOM     27  C   UNL     1      31.839 -11.328 -20.156  0.00  0.00    +0.040 C 
ATOM     28  C   UNL     1      32.138  -8.939 -20.345  0.00  0.00    +0.153 C 
ATOM     29  C   UNL     1      31.985 -10.078 -19.553  0.00  0.00    +0.041 C 
ATOM     30  C   UNL     1      32.061  -6.610 -20.498  0.00  0.00    +0.290 C 
ATOM     31  C   UNL     1      32.426  -6.660 -21.972  0.00  0.00    +0.271 C 
ATOM     32  H   UNL     1      32.476  -8.023 -23.495  0.00  0.00    +0.155 HD
ENDBRANCH  20  24
ENDBRANCH  19  20
ENDBRANCH  18  19
ENDBRANCH  17  18
ENDBRANCH   1  17
TORSDOF 7
ENDMDL
MODEL 4
REMARK VINA RESULT:     -10.9      5.357     11.507
REMARK  Name = 46861612
REMARK  7 active torsions:
REMARK  status: ('A' for Active; 'I' for Inactive)
REMARK    1  A    between atoms: C_1  and  N_2
REMARK    2  A    between atoms: C_1  and  C_17
REMARK    3  A    between atoms: N_3  and  C_11
REMARK    4  A    between atoms: C_17  and  C_18
REMARK    5  A    between atoms: C_18  and  C_19
REMARK    6  A    between atoms: C_19  and  O_20
REMARK    7  A    between atoms: O_20  and  C_24
REMARK                            x       y       z     vdW  Elec       q    Type
REMARK                         _______ _______ _______ _____ _____    ______ ____
ROOT
ATOM      1  C   UNL     1      34.567 -16.258 -24.594  0.00  0.00    -0.077 C 
ENDROOT
BRANCH   1   2
ATOM      2  N   UNL     1      35.154 -17.299 -23.752  0.00  0.00    +0.389 N 
ATOM      3  N   UNL     1      35.179 -19.298 -21.713  0.00  0.00    -0.311 N 
ATOM      4  C   UNL     1      35.088 -16.916 -22.337  0.00  0.00    -0.055 C 
ATOM      5  C   UNL     1      34.462 -18.577 -23.956  0.00  0.00    -0.055 C 
ATOM      6  C   UNL     1      35.104 -19.689 -23.124  0.00  0.00    +0.068 C 
ATOM      7  C   UNL     1      35.752 -17.971 -21.450  0.00  0.00    +0.068 C 
ATOM      8  H   UNL     1      36.133 -17.408 -24.019  0.00  0.00    -0.080 HD
BRANCH   3  11
ATOM      9 CL   UNL     1      32.616 -20.476 -20.701  0.00  0.00    -0.080 Cl
ATOM     10 CL   UNL     1      33.058 -22.715 -18.443  0.00  0.00    -0.081 Cl
ATOM     11  C   UNL     1      35.318 -20.281 -20.726  0.00  0.00    +0.059 C 
ATOM     12  C   UNL     1      34.208 -20.914 -20.164  0.00  0.00    +0.081 C 
ATOM     13  C   UNL     1      36.603 -20.622 -20.306  0.00  0.00    +0.015 C 
ATOM     14  C   UNL     1      34.386 -21.889 -19.182  0.00  0.00    +0.069 C 
ATOM     15  C   UNL     1      36.780 -21.598 -19.325  0.00  0.00    +0.002 C 
ATOM     16  C   UNL     1      35.671 -22.230 -18.762  0.00  0.00    +0.012 C 
ENDBRANCH   3  11
ENDBRANCH   1   2
BRANCH   1  17
ATOM     17  C   UNL     1      34.313 -14.993 -23.777  0.00  0.00    -0.019 C 
BRANCH  17  18
ATOM     18  C   UNL     1      33.230 -14.127 -24.418  0.00  0.00    +0.045 C 
BRANCH  18  19
ATOM     19  C   UNL     1      33.655 -12.668 -24.505  0.00  0.00    +0.205 C 
BRANCH  19  20
ATOM     20  O   UNL     1      33.193 -11.963 -23.360  0.00  0.00    -0.475 OA
BRANCH  20  24
ATOM     21  O   UNL     1      33.593  -6.457 -23.589  0.00  0.00    -0.464 OA
ATOM     22  O   UNL     1      30.389  -5.533 -22.195  0.00  0.00    -0.271 OA
ATOM     23  N   UNL     1      31.241  -7.638 -22.553  0.00  0.00    -0.278 N 
ATOM     24  C   UNL     1      33.281 -10.595 -23.399  0.00  0.00    +0.140 C 
ATOM     25  C   UNL     1      32.220  -9.815 -22.940  0.00  0.00    +0.055 C 
ATOM     26  C   UNL     1      32.319  -8.423 -22.977  0.00  0.00    +0.088 C 
ATOM     27  C   UNL     1      34.431  -9.986 -23.902  0.00  0.00    +0.040 C 
ATOM     28  C   UNL     1      33.467  -7.812 -23.476  0.00  0.00    +0.153 C 
ATOM     29  C   UNL     1      34.522  -8.594 -23.948  0.00  0.00    +0.041 C 
ATOM     30  C   UNL     1      32.724  -5.722 -22.747  0.00  0.00    +0.290 C 
ATOM     31  C   UNL     1      31.328  -6.267 -22.496  0.00  0.00    +0.271 C 
ATOM     32  H   UNL     1      30.402  -8.078 -22.287  0.00  0.00    +0.155 HD
ENDBRANCH  20  24
ENDBRANCH  19  20
ENDBRANCH  18  19
ENDBRANCH  17  18
ENDBRANCH   1  17
TORSDOF 7
ENDMDL
MODEL 5
REMARK VINA RESULT:     -10.8      3.637      6.370
REMARK  Name = 46861612
REMARK  7 active torsions:
REMARK  status: ('A' for Active; 'I' for Inactive)
REMARK    1  A    between atoms: C_1  and  N_2
REMARK    2  A    between atoms: C_1  and  C_17
REMARK    3  A    between atoms: N_3  and  C_11
REMARK    4  A    between atoms: C_17  and  C_18
REMARK    5  A    between atoms: C_18  and  C_19
REMARK    6  A    between atoms: C_19  and  O_20
REMARK    7  A    between atoms: O_20  and  C_24
REMARK                            x       y       z     vdW  Elec       q    Type
REMARK                         _______ _______ _______ _____ _____    ______ ____
ROOT
ATOM      1  C   UNL     1      36.832 -21.674 -19.261  0.00  0.00    -0.077 C 
ENDROOT
BRANCH   1   2
ATOM      2  N   UNL     1      36.265 -20.492 -19.909  0.00  0.00    +0.389 N 
ATOM      3  N   UNL     1      35.422 -18.874 -22.107  0.00  0.00    -0.311 N 
ATOM      4  C   UNL     1      37.256 -19.862 -20.790  0.00  0.00    -0.055 C 
ATOM      5  C   UNL     1      35.068 -20.850 -20.679  0.00  0.00    -0.055 C 
ATOM      6  C   UNL     1      34.432 -19.612 -21.315  0.00  0.00    +0.068 C 
ATOM      7  C   UNL     1      36.694 -18.591 -21.429  0.00  0.00    +0.068 C 
ATOM      8  H   UNL     1      36.002 -19.827 -19.181  0.00  0.00    -0.080 HD
BRANCH   3  11
ATOM      9 CL   UNL     1      35.113 -16.023 -21.237  0.00  0.00    -0.080 Cl
ATOM     10 CL   UNL     1      34.125 -14.082 -23.596  0.00  0.00    -0.081 Cl
ATOM     11  C   UNL     1      34.993 -17.986 -23.100  0.00  0.00    +0.059 C 
ATOM     12  C   UNL     1      34.806 -16.629 -22.836  0.00  0.00    +0.081 C 
ATOM     13  C   UNL     1      34.752 -18.488 -24.379  0.00  0.00    +0.015 C 
ATOM     14  C   UNL     1      34.377 -15.774 -23.851  0.00  0.00    +0.069 C 
ATOM     15  C   UNL     1      34.324 -17.633 -25.394  0.00  0.00    +0.002 C 
ATOM     16  C   UNL     1      34.136 -16.276 -25.130  0.00  0.00    +0.012 C 
ENDBRANCH   3  11
ENDBRANCH   1   2
BRANCH   1  17
ATOM     17  C   UNL     1      36.043 -22.018 -17.999  0.00  0.00    -0.019 C 
BRANCH  17  18
ATOM     18  C   UNL     1      36.977 -22.316 -16.828  0.00  0.00    +0.045 C 
BRANCH  18  19
ATOM     19  C   UNL     1      36.226 -22.929 -15.653  0.00  0.00    +0.205 C 
BRANCH  19  20
ATOM     20  O   UNL     1      35.402 -23.993 -16.110  0.00  0.00    -0.475 OA
BRANCH  20  24
ATOM     21  O   UNL     1      30.168 -23.957 -14.340  0.00  0.00    -0.464 OA
ATOM     22  O   UNL     1      28.526 -22.591 -17.255  0.00  0.00    -0.271 OA
ATOM     23  N   UNL     1      30.763 -23.019 -16.941  0.00  0.00    -0.278 N 
ATOM     24  C   UNL     1      34.097 -23.988 -15.690  0.00  0.00    +0.140 C 
ATOM     25  C   UNL     1      33.094 -23.519 -16.538  0.00  0.00    +0.055 C 
ATOM     26  C   UNL     1      31.766 -23.523 -16.108  0.00  0.00    +0.088 C 
ATOM     27  C   UNL     1      33.775 -24.448 -14.413  0.00  0.00    +0.040 C 
ATOM     28  C   UNL     1      31.442 -23.985 -14.833  0.00  0.00    +0.153 C 
ATOM     29  C   UNL     1      32.448 -24.440 -13.980  0.00  0.00    +0.041 C 
ATOM     30  C   UNL     1      29.163 -23.894 -15.334  0.00  0.00    +0.290 C 
ATOM     31  C   UNL     1      29.435 -23.080 -16.588  0.00  0.00    +0.271 C 
ATOM     32  H   UNL     1      31.013 -22.613 -17.802  0.00  0.00    +0.155 HD
ENDBRANCH  20  24
ENDBRANCH  19  20
ENDBRANCH  18  19
ENDBRANCH  17  18
ENDBRANCH   1  17
TORSDOF 7
ENDMDL
MODEL 6
REMARK VINA RESULT:     -10.7      3.572      6.126
REMARK  Name = 46861612
REMARK  7 active torsions:
REMARK  status: ('A' for Active; 'I' for Inactive)
REMARK    1  A    between atoms: C_1  and  N_2
REMARK    2  A    between atoms: C_1  and  C_17
REMARK    3  A    between atoms: N_3  and  C_11
REMARK    4  A    between atoms: C_17  and  C_18
REMARK    5  A    between atoms: C_18  and  C_19
REMARK    6  A    between atoms: C_19  and  O_20
REMARK    7  A    between atoms: O_20  and  C_24
REMARK                            x       y       z     vdW  Elec       q    Type
REMARK                         _______ _______ _______ _____ _____    ______ ____
ROOT
ATOM      1  C   UNL     1      36.112 -21.113 -19.789  0.00  0.00    -0.077 C 
ENDROOT
BRANCH   1   2
ATOM      2  N   UNL     1      35.908 -20.364 -21.029  0.00  0.00    +0.389 N 
ATOM      3  N   UNL     1      35.057 -18.161 -22.633  0.00  0.00    -0.311 N 
ATOM      4  C   UNL     1      34.479 -20.118 -21.253  0.00  0.00    -0.055 C 
ATOM      5  C   UNL     1      36.634 -19.089 -20.984  0.00  0.00    -0.055 C 
ATOM      6  C   UNL     1      36.475 -18.320 -22.299  0.00  0.00    +0.068 C 
ATOM      7  C   UNL     1      34.248 -19.385 -22.576  0.00  0.00    +0.068 C 
ATOM      8  H   UNL     1      36.271 -20.924 -21.801  0.00  0.00    -0.080 HD
BRANCH   3  11
ATOM      9 CL   UNL     1      34.891 -15.406 -21.464  0.00  0.00    -0.080 Cl
ATOM     10 CL   UNL     1      33.977 -13.183 -23.591  0.00  0.00    -0.081 Cl
ATOM     11  C   UNL     1      34.663 -17.153 -23.522  0.00  0.00    +0.059 C 
ATOM     12  C   UNL     1      34.542 -15.825 -23.113  0.00  0.00    +0.081 C 
ATOM     13  C   UNL     1      34.387 -17.505 -24.843  0.00  0.00    +0.015 C 
ATOM     14  C   UNL     1      34.146 -14.848 -24.027  0.00  0.00    +0.069 C 
ATOM     15  C   UNL     1      33.991 -16.528 -25.757  0.00  0.00    +0.002 C 
ATOM     16  C   UNL     1      33.870 -15.200 -25.348  0.00  0.00    +0.012 C 
ENDBRANCH   3  11
ENDBRANCH   1   2
BRANCH   1  17
ATOM     17  C   UNL     1      35.313 -22.415 -19.816  0.00  0.00    -0.019 C 
BRANCH  17  18
ATOM     18  C   UNL     1      34.040 -22.300 -18.980  0.00  0.00    +0.045 C 
BRANCH  18  19
ATOM     19  C   UNL     1      33.928 -23.433 -17.968  0.00  0.00    +0.205 C 
BRANCH  19  20
ATOM     20  O   UNL     1      34.094 -22.921 -16.652  0.00  0.00    -0.475 OA
BRANCH  20  24
ATOM     21  O   UNL     1      38.621 -24.484 -13.897  0.00  0.00    -0.464 OA
ATOM     22  O   UNL     1      37.166 -26.844 -11.579  0.00  0.00    -0.271 OA
ATOM     23  N   UNL     1      36.116 -25.597 -13.201  0.00  0.00    -0.278 N 
ATOM     24  C   UNL     1      35.209 -23.329 -15.967  0.00  0.00    +0.140 C 
ATOM     25  C   UNL     1      35.094 -24.268 -14.943  0.00  0.00    +0.055 C 
ATOM     26  C   UNL     1      36.234 -24.683 -14.253  0.00  0.00    +0.088 C 
ATOM     27  C   UNL     1      36.458 -22.798 -16.291  0.00  0.00    +0.040 C 
ATOM     28  C   UNL     1      37.483 -24.157 -14.578  0.00  0.00    +0.153 C 
ATOM     29  C   UNL     1      37.595 -23.206 -15.593  0.00  0.00    +0.041 C 
ATOM     30  C   UNL     1      38.545 -25.709 -13.193  0.00  0.00    +0.290 C 
ATOM     31  C   UNL     1      37.222 -26.093 -12.550  0.00  0.00    +0.271 C 
ATOM     32  H   UNL     1      35.221 -25.894 -12.920  0.00  0.00    +0.155 HD
ENDBRANCH  20  24
ENDBRANCH  19  20
ENDBRANCH  18  19
ENDBRANCH  17  18
ENDBRANCH   1  17
TORSDOF 7
ENDMDL
MODEL 7
REMARK VINA RESULT:     -10.7      1.904      2.982
REMARK  Name = 46861612
REMARK  7 active torsions:
REMARK  status: ('A' for Active; 'I' for Inactive)
REMARK    1  A    between atoms: C_1  and  N_2
REMARK    2  A    between atoms: C_1  and  C_17
REMARK    3  A    between atoms: N_3  and  C_11
REMARK    4  A    between atoms: C_17  and  C_18
REMARK    5  A    between atoms: C_18  and  C_19
REMARK    6  A    between atoms: C_19  and  O_20
REMARK    7  A    between atoms: O_20  and  C_24
REMARK                            x       y       z     vdW  Elec       q    Type
REMARK                         _______ _______ _______ _____ _____    ______ ____
ROOT
ATOM      1  C   UNL     1      33.047 -15.152 -25.160  0.00  0.00    -0.077 C 
ENDROOT
BRANCH   1   2
ATOM      2  N   UNL     1      33.590 -13.880 -24.684  0.00  0.00    +0.389 N 
ATOM      3  N   UNL     1      33.497 -11.137 -23.896  0.00  0.00    -0.311 N 
ATOM      4  C   UNL     1      33.389 -12.826 -25.686  0.00  0.00    -0.055 C 
ATOM      5  C   UNL     1      32.957 -13.492 -23.418  0.00  0.00    -0.055 C 
ATOM      6  C   UNL     1      33.557 -12.191 -22.879  0.00  0.00    +0.068 C 
ATOM      7  C   UNL     1      34.005 -11.504 -25.224  0.00  0.00    +0.068 C 
ATOM      8  H   UNL     1      34.591 -14.001 -24.529  0.00  0.00    -0.080 HD
BRANCH   3  11
ATOM      9 CL   UNL     1      31.195 -10.125 -22.265  0.00  0.00    -0.080 Cl
ATOM     10 CL   UNL     1      31.491  -7.037 -21.439  0.00  0.00    -0.081 Cl
ATOM     11  C   UNL     1      33.579  -9.794 -23.509  0.00  0.00    +0.059 C 
ATOM     12  C   UNL     1      32.577  -9.191 -22.748  0.00  0.00    +0.081 C 
ATOM     13  C   UNL     1      34.695  -9.057 -23.904  0.00  0.00    +0.015 C 
ATOM     14  C   UNL     1      32.693  -7.849 -22.382  0.00  0.00    +0.069 C 
ATOM     15  C   UNL     1      34.810  -7.716 -23.537  0.00  0.00    +0.002 C 
ATOM     16  C   UNL     1      33.809  -7.112 -22.777  0.00  0.00    +0.012 C 
ENDBRANCH   3  11
ENDBRANCH   1   2
BRANCH   1  17
ATOM     17  C   UNL     1      34.176 -16.143 -25.434  0.00  0.00    -0.019 C 
BRANCH  17  18
ATOM     18  C   UNL     1      33.627 -17.534 -25.747  0.00  0.00    +0.045 C 
BRANCH  18  19
ATOM     19  C   UNL     1      34.248 -18.598 -24.851  0.00  0.00    +0.205 C 
BRANCH  19  20
ATOM     20  O   UNL     1      34.996 -17.977 -23.813  0.00  0.00    -0.475 OA
BRANCH  20  24
ATOM     21  O   UNL     1      36.133 -20.982 -19.319  0.00  0.00    -0.464 OA
ATOM     22  O   UNL     1      32.912 -22.522 -18.758  0.00  0.00    -0.271 OA
ATOM     23  N   UNL     1      33.526 -21.051 -20.414  0.00  0.00    -0.278 N 
ATOM     24  C   UNL     1      35.264 -18.737 -22.705  0.00  0.00    +0.140 C 
ATOM     25  C   UNL     1      34.259 -19.518 -22.135  0.00  0.00    +0.055 C 
ATOM     26  C   UNL     1      34.541 -20.295 -21.010  0.00  0.00    +0.088 C 
ATOM     27  C   UNL     1      36.542 -18.724 -22.145  0.00  0.00    +0.040 C 
ATOM     28  C   UNL     1      35.818 -20.287 -20.452  0.00  0.00    +0.153 C 
ATOM     29  C   UNL     1      36.819 -19.493 -21.014  0.00  0.00    +0.041 C 
ATOM     30  C   UNL     1      35.257 -22.057 -19.036  0.00  0.00    +0.290 C 
ATOM     31  C   UNL     1      33.781 -21.891 -19.356  0.00  0.00    +0.271 C 
ATOM     32  H   UNL     1      32.608 -20.980 -20.761  0.00  0.00    +0.155 HD
ENDBRANCH  20  24
ENDBRANCH  19  20
ENDBRANCH  18  19
ENDBRANCH  17  18
ENDBRANCH   1  17
TORSDOF 7
ENDMDL
MODEL 8
REMARK VINA RESULT:     -10.6      3.659      6.798
REMARK  Name = 46861612
REMARK  7 active torsions:
REMARK  status: ('A' for Active; 'I' for Inactive)
REMARK    1  A    between atoms: C_1  and  N_2
REMARK    2  A    between atoms: C_1  and  C_17
REMARK    3  A    between atoms: N_3  and  C_11
REMARK    4  A    between atoms: C_17  and  C_18
REMARK    5  A    between atoms: C_18  and  C_19
REMARK    6  A    between atoms: C_19  and  O_20
REMARK    7  A    between atoms: O_20  and  C_24
REMARK                            x       y       z     vdW  Elec       q    Type
REMARK                         _______ _______ _______ _____ _____    ______ ____
ROOT
ATOM      1  C   UNL     1      31.770 -10.631 -20.440  0.00  0.00    -0.077 C 
ENDROOT
BRANCH   1   2
ATOM      2  N   UNL     1      32.313  -9.616 -21.342  0.00  0.00    +0.389 N 
ATOM      3  N   UNL     1      32.312  -7.173 -22.822  0.00  0.00    -0.311 N 
ATOM      4  C   UNL     1      31.455  -9.464 -22.523  0.00  0.00    -0.055 C 
ATOM      5  C   UNL     1      32.442  -8.328 -20.650  0.00  0.00    -0.055 C 
ATOM      6  C   UNL     1      33.063  -7.271 -21.566  0.00  0.00    +0.068 C 
ATOM      7  C   UNL     1      32.043  -8.447 -23.503  0.00  0.00    +0.068 C 
ATOM      8  H   UNL     1      33.238  -9.922 -21.644  0.00  0.00    -0.080 HD
BRANCH   3  11
ATOM      9 CL   UNL     1      30.452  -4.944 -22.082  0.00  0.00    -0.080 Cl
ATOM     10 CL   UNL     1      30.781  -2.351 -23.946  0.00  0.00    -0.081 Cl
ATOM     11  C   UNL     1      32.417  -6.018 -23.605  0.00  0.00    +0.059 C 
ATOM     12  C   UNL     1      31.612  -4.902 -23.373  0.00  0.00    +0.081 C 
ATOM     13  C   UNL     1      33.354  -6.000 -24.639  0.00  0.00    +0.015 C 
ATOM     14  C   UNL     1      31.744  -3.769 -24.176  0.00  0.00    +0.069 C 
ATOM     15  C   UNL     1      33.486  -4.866 -25.440  0.00  0.00    +0.002 C 
ATOM     16  C   UNL     1      32.681  -3.751 -25.209  0.00  0.00    +0.012 C 
ENDBRANCH   3  11
ENDBRANCH   1   2
BRANCH   1  17
ATOM     17  C   UNL     1      31.247 -11.825 -21.236  0.00  0.00    -0.019 C 
BRANCH  17  18
ATOM     18  C   UNL     1      32.257 -12.971 -21.242  0.00  0.00    +0.045 C 
BRANCH  18  19
ATOM     19  C   UNL     1      32.849 -13.191 -22.628  0.00  0.00    +0.205 C 
BRANCH  19  20
ATOM     20  O   UNL     1      34.212 -13.577 -22.513  0.00  0.00    -0.475 OA
BRANCH  20  24
ATOM     21  O   UNL     1      35.412 -18.871 -23.543  0.00  0.00    -0.464 OA
ATOM     22  O   UNL     1      36.408 -19.946 -20.240  0.00  0.00    -0.271 OA
ATOM     23  N   UNL     1      35.709 -17.863 -20.917  0.00  0.00    -0.278 N 
ATOM     24  C   UNL     1      34.502 -14.896 -22.750  0.00  0.00    +0.140 C 
ATOM     25  C   UNL     1      34.943 -15.710 -21.706  0.00  0.00    +0.055 C 
ATOM     26  C   UNL     1      35.231 -17.054 -21.952  0.00  0.00    +0.088 C 
ATOM     27  C   UNL     1      34.362 -15.420 -24.035  0.00  0.00    +0.040 C 
ATOM     28  C   UNL     1      35.088 -17.580 -23.235  0.00  0.00    +0.153 C 
ATOM     29  C   UNL     1      34.662 -16.761 -24.280  0.00  0.00    +0.041 C 
ATOM     30  C   UNL     1      35.431 -19.745 -22.430  0.00  0.00    +0.290 C 
ATOM     31  C   UNL     1      35.927 -19.209 -21.098  0.00  0.00    +0.271 C 
ATOM     32  H   UNL     1      35.892 -17.461 -20.038  0.00  0.00    +0.155 HD
ENDBRANCH  20  24
ENDBRANCH  19  20
ENDBRANCH  18  19
ENDBRANCH  17  18
ENDBRANCH   1  17
TORSDOF 7
ENDMDL
MODEL 9
REMARK VINA RESULT:     -10.5      2.006      3.448
REMARK  Name = 46861612
REMARK  7 active torsions:
REMARK  status: ('A' for Active; 'I' for Inactive)
REMARK    1  A    between atoms: C_1  and  N_2
REMARK    2  A    between atoms: C_1  and  C_17
REMARK    3  A    between atoms: N_3  and  C_11
REMARK    4  A    between atoms: C_17  and  C_18
REMARK    5  A    between atoms: C_18  and  C_19
REMARK    6  A    between atoms: C_19  and  O_20
REMARK    7  A    between atoms: O_20  and  C_24
REMARK                            x       y       z     vdW  Elec       q    Type
REMARK                         _______ _______ _______ _____ _____    ______ ____
ROOT
ATOM      1  C   UNL     1      33.339 -14.074 -23.515  0.00  0.00    -0.077 C 
ENDROOT
BRANCH   1   2
ATOM      2  N   UNL     1      32.786 -12.727 -23.381  0.00  0.00    +0.389 N 
ATOM      3  N   UNL     1      32.570 -10.092 -22.300  0.00  0.00    -0.311 N 
ATOM      4  C   UNL     1      32.252 -12.521 -22.029  0.00  0.00    -0.055 C 
ATOM      5  C   UNL     1      33.811 -11.719 -23.672  0.00  0.00    -0.055 C 
ATOM      6  C   UNL     1      33.231 -10.304 -23.592  0.00  0.00    +0.068 C 
ATOM      7  C   UNL     1      31.619 -11.135 -21.894  0.00  0.00    +0.068 C 
ATOM      8  H   UNL     1      32.025 -12.628 -24.054  0.00  0.00    -0.080 HD
BRANCH   3  11
ATOM      9 CL   UNL     1      31.278  -8.227 -24.257  0.00  0.00    -0.080 Cl
ATOM     10 CL   UNL     1      30.840  -5.270 -23.085  0.00  0.00    -0.081 Cl
ATOM     11  C   UNL     1      32.356  -8.789 -21.836  0.00  0.00    +0.059 C 
ATOM     12  C   UNL     1      31.764  -7.815 -22.641  0.00  0.00    +0.081 C 
ATOM     13  C   UNL     1      32.751  -8.475 -20.536  0.00  0.00    +0.015 C 
ATOM     14  C   UNL     1      31.567  -6.526 -22.145  0.00  0.00    +0.069 C 
ATOM     15  C   UNL     1      32.553  -7.186 -20.040  0.00  0.00    +0.002 C 
ATOM     16  C   UNL     1      31.962  -6.212 -20.844  0.00  0.00    +0.012 C 
ENDBRANCH   3  11
ENDBRANCH   1   2
BRANCH   1  17
ATOM     17  C   UNL     1      34.491 -14.276 -22.532  0.00  0.00    -0.019 C 
BRANCH  17  18
ATOM     18  C   UNL     1      34.810 -15.759 -22.352  0.00  0.00    +0.045 C 
BRANCH  18  19
ATOM     19  C   UNL     1      35.375 -16.371 -23.627  0.00  0.00    +0.205 C 
BRANCH  19  20
ATOM     20  O   UNL     1      34.942 -17.720 -23.745  0.00  0.00    -0.475 OA
BRANCH  20  24
ATOM     21  O   UNL     1      36.073 -21.009 -19.451  0.00  0.00    -0.464 OA
ATOM     22  O   UNL     1      32.807 -22.447 -18.881  0.00  0.00    -0.271 OA
ATOM     23  N   UNL     1      33.437 -20.914 -20.474  0.00  0.00    -0.278 N 
ATOM     24  C   UNL     1      35.209 -18.550 -22.687  0.00  0.00    +0.140 C 
ATOM     25  C   UNL     1      34.187 -19.320 -22.131  0.00  0.00    +0.055 C 
ATOM     26  C   UNL     1      34.467 -20.168 -21.058  0.00  0.00    +0.088 C 
ATOM     27  C   UNL     1      36.500 -18.619 -22.164  0.00  0.00    +0.040 C 
ATOM     28  C   UNL     1      35.757 -20.241 -20.536  0.00  0.00    +0.153 C 
ATOM     29  C   UNL     1      36.775 -19.459 -21.084  0.00  0.00    +0.041 C 
ATOM     30  C   UNL     1      35.161 -22.062 -19.201  0.00  0.00    +0.290 C 
ATOM     31  C   UNL     1      33.685 -21.820 -19.469  0.00  0.00    +0.271 C 
ATOM     32  H   UNL     1      32.514 -20.788 -20.790  0.00  0.00    +0.155 HD
ENDBRANCH  20  24
ENDBRANCH  19  20
ENDBRANCH  18  19
ENDBRANCH  17  18
ENDBRANCH   1  17
TORSDOF 7
ENDMDL
