MODEL 1
REMARK VINA RESULT:     -12.5      0.000      0.000
REMARK  Name = 11955716
REMARK  6 active torsions:
REMARK  status: ('A' for Active; 'I' for Inactive)
REMARK    1  A    between atoms: C_4  and  C_25
REMARK    2  A    between atoms: C_11  and  C_12
REMARK    3  A    between atoms: C_13  and  C_18
REMARK    4  A    between atoms: C_15  and  O_21
REMARK    5  A    between atoms: C_16  and  O_23
REMARK    6  A    between atoms: C_25  and  N_26
REMARK                            x       y       z     vdW  Elec       q    Type
REMARK                         _______ _______ _______ _____ _____    ______ ____
ROOT
ATOM      1  O   UNL     1      35.425 -24.001 -15.858  0.00  0.00    -0.269 OA
ATOM      2  N   UNL     1      34.320 -22.886 -17.574  0.00  0.00    -0.231 N 
ATOM      3  C   UNL     1      35.016 -21.583 -19.372  0.00  0.00    +0.016 C 
ATOM      4  C   UNL     1      35.017 -20.172 -21.295  0.00  0.00    -0.043 C 
ATOM      5  C   UNL     1      33.615 -21.592 -19.378  0.00  0.00    +0.016 C 
ATOM      6  C   UNL     1      35.535 -22.406 -18.241  0.00  0.00    +0.072 C 
ATOM      7  C   UNL     1      33.096 -22.427 -18.255  0.00  0.00    +0.072 C 
ATOM      8  C   UNL     1      35.730 -20.878 -20.323  0.00  0.00    -0.005 C 
ATOM      9  C   UNL     1      33.611 -20.181 -21.301  0.00  0.00    -0.006 C 
ATOM     10  C   UNL     1      32.900 -20.896 -20.336  0.00  0.00    +0.001 C 
ATOM     11  C   UNL     1      34.389 -23.631 -16.405  0.00  0.00    +0.259 C 
ENDROOT
BRANCH  11  12
ATOM     12  C   UNL     1      33.118 -23.993 -15.761  0.00  0.00    +0.088 C 
ATOM     13  C   UNL     1      30.707 -23.889 -15.736  0.00  0.00    +0.012 C 
ATOM     14  C   UNL     1      31.924 -23.557 -16.331  0.00  0.00    +0.006 C 
ATOM     15  C   UNL     1      33.101 -24.760 -14.600  0.00  0.00    +0.141 C 
ATOM     16  C   UNL     1      30.688 -24.658 -14.572  0.00  0.00    +0.133 C 
ATOM     17  C   UNL     1      31.885 -25.093 -14.003  0.00  0.00    +0.073 C 
BRANCH  13  18
ATOM     18  C   UNL     1      29.435 -23.415 -16.358  0.00  0.00    +0.025 C 
ATOM     19  C   UNL     1      28.622 -22.510 -15.415  0.00  0.00    +0.005 C 
ATOM     20  C   UNL     1      28.556 -24.577 -16.856  0.00  0.00    +0.005 C 
ENDBRANCH  13  18
BRANCH  15  21
ATOM     21  O   UNL     1      34.261 -25.194 -14.028  0.00  0.00    -0.505 OA
ATOM     22  H   UNL     1      35.086 -24.936 -14.390  0.00  0.00    +0.292 HD
ENDBRANCH  15  21
BRANCH  16  23
ATOM     23  O   UNL     1      29.509 -24.990 -13.977  0.00  0.00    -0.506 OA
ATOM     24  H   UNL     1      29.508 -25.457 -13.165  0.00  0.00    +0.292 HD
ENDBRANCH  16  23
ENDBRANCH  11  12
BRANCH   4  25
ATOM     25  C   UNL     1      35.755 -19.395 -22.340  0.00  0.00    -0.050 C 
BRANCH  25  26
ATOM     26  N   UNL     1      34.870 -18.494 -23.075  0.00  0.00    +0.387 N 
ATOM     27  N   UNL     1      34.274 -16.659 -25.228  0.00  0.00    +0.383 N 
ATOM     28  C   UNL     1      35.410 -17.128 -23.084  0.00  0.00    -0.100 C 
ATOM     29  C   UNL     1      34.663 -18.971 -24.448  0.00  0.00    -0.100 C 
ATOM     30  C   UNL     1      34.484 -16.182 -23.856  0.00  0.00    -0.101 C 
ATOM     31  C   UNL     1      33.736 -18.026 -25.220  0.00  0.00    -0.101 C 
ATOM     32  C   UNL     1      33.388 -15.758 -25.962  0.00  0.00    -0.101 C 
ATOM     33  H   UNL     1      33.969 -18.481 -22.600  0.00  0.00    -0.079 HD
ATOM     34  H   UNL     1      35.176 -16.673 -25.706  0.00  0.00    -0.080 HD
ENDBRANCH  25  26
ENDBRANCH   4  25
TORSDOF 6
ENDMDL
MODEL 2
REMARK VINA RESULT:     -12.1      6.466     11.760
REMARK  Name = 11955716
REMARK  6 active torsions:
REMARK  status: ('A' for Active; 'I' for Inactive)
REMARK    1  A    between atoms: C_4  and  C_25
REMARK    2  A    between atoms: C_11  and  C_12
REMARK    3  A    between atoms: C_13  and  C_18
REMARK    4  A    between atoms: C_15  and  O_21
REMARK    5  A    between atoms: C_16  and  O_23
REMARK    6  A    between atoms: C_25  and  N_26
REMARK                            x       y       z     vdW  Elec       q    Type
REMARK                         _______ _______ _______ _____ _____    ______ ____
ROOT
ATOM      1  O   UNL     1      33.470 -12.762 -25.883  0.00  0.00    -0.269 OA
ATOM      2  N   UNL     1      34.143 -13.840 -23.937  0.00  0.00    -0.231 N 
ATOM      3  C   UNL     1      34.614 -16.053 -23.390  0.00  0.00    +0.016 C 
ATOM      4  C   UNL     1      35.166 -18.029 -22.174  0.00  0.00    -0.043 C 
ATOM      5  C   UNL     1      34.737 -15.296 -22.217  0.00  0.00    +0.016 C 
ATOM      6  C   UNL     1      34.244 -15.175 -24.538  0.00  0.00    +0.072 C 
ATOM      7  C   UNL     1      34.463 -13.856 -22.497  0.00  0.00    +0.072 C 
ATOM      8  C   UNL     1      34.826 -17.419 -23.384  0.00  0.00    -0.005 C 
ATOM      9  C   UNL     1      35.290 -17.270 -20.998  0.00  0.00    -0.006 C 
ATOM     10  C   UNL     1      35.074 -15.891 -21.014  0.00  0.00    +0.001 C 
ATOM     11  C   UNL     1      33.729 -12.746 -24.683  0.00  0.00    +0.259 C 
ENDROOT
BRANCH  11  12
ATOM     12  C   UNL     1      33.575 -11.468 -23.974  0.00  0.00    +0.088 C 
ATOM     13  C   UNL     1      32.451 -10.158 -22.287  0.00  0.00    +0.012 C 
ATOM     14  C   UNL     1      32.614 -11.363 -22.972  0.00  0.00    +0.006 C 
ATOM     15  C   UNL     1      34.376 -10.375 -24.295  0.00  0.00    +0.141 C 
ATOM     16  C   UNL     1      33.252  -9.062 -22.607  0.00  0.00    +0.133 C 
ATOM     17  C   UNL     1      34.214  -9.170 -23.611  0.00  0.00    +0.073 C 
BRANCH  13  18
ATOM     18  C   UNL     1      31.417 -10.060 -21.215  0.00  0.00    +0.025 C 
ATOM     19  C   UNL     1      32.034  -9.999 -19.807  0.00  0.00    +0.005 C 
ATOM     20  C   UNL     1      30.386 -11.202 -21.287  0.00  0.00    +0.005 C 
ENDBRANCH  13  18
BRANCH  15  21
ATOM     21  O   UNL     1      35.321 -10.461 -25.274  0.00  0.00    -0.505 OA
ATOM     22  H   UNL     1      35.101 -10.832 -26.106  0.00  0.00    +0.292 HD
ENDBRANCH  15  21
BRANCH  16  23
ATOM     23  O   UNL     1      33.106  -7.878 -21.950  0.00  0.00    -0.506 OA
ATOM     24  H   UNL     1      32.664  -7.851 -21.124  0.00  0.00    +0.292 HD
ENDBRANCH  16  23
ENDBRANCH  11  12
BRANCH   4  25
ATOM     25  C   UNL     1      35.401 -19.507 -22.127  0.00  0.00    -0.050 C 
BRANCH  25  26
ATOM     26  N   UNL     1      34.917 -20.096 -20.881  0.00  0.00    +0.387 N 
ATOM     27  N   UNL     1      33.886 -22.283 -19.295  0.00  0.00    +0.383 N 
ATOM     28  C   UNL     1      33.530 -20.555 -21.026  0.00  0.00    -0.100 C 
ATOM     29  C   UNL     1      35.781 -21.206 -20.458  0.00  0.00    -0.100 C 
ATOM     30  C   UNL     1      33.022 -21.175 -19.720  0.00  0.00    -0.101 C 
ATOM     31  C   UNL     1      35.274 -21.825 -19.151  0.00  0.00    -0.101 C 
ATOM     32  C   UNL     1      33.402 -22.871 -18.048  0.00  0.00    -0.101 C 
ATOM     33  H   UNL     1      34.945 -19.376 -20.160  0.00  0.00    -0.079 HD
ATOM     34  H   UNL     1      33.859 -23.006 -20.016  0.00  0.00    -0.080 HD
ENDBRANCH  25  26
ENDBRANCH   4  25
TORSDOF 6
ENDMDL
MODEL 3
REMARK VINA RESULT:     -11.9      4.194     10.020
REMARK  Name = 11955716
REMARK  6 active torsions:
REMARK  status: ('A' for Active; 'I' for Inactive)
REMARK    1  A    between atoms: C_4  and  C_25
REMARK    2  A    between atoms: C_11  and  C_12
REMARK    3  A    between atoms: C_13  and  C_18
REMARK    4  A    between atoms: C_15  and  O_21
REMARK    5  A    between atoms: C_16  and  O_23
REMARK    6  A    between atoms: C_25  and  N_26
REMARK                            x       y       z     vdW  Elec       q    Type
REMARK                         _______ _______ _______ _____ _____    ______ ____
ROOT
ATOM      1  O   UNL     1      37.510 -18.805 -22.354  0.00  0.00    -0.269 OA
ATOM      2  N   UNL     1      35.620 -19.685 -21.324  0.00  0.00    -0.231 N 
ATOM      3  C   UNL     1      35.270 -21.325 -19.709  0.00  0.00    +0.016 C 
ATOM      4  C   UNL     1      34.223 -22.857 -18.212  0.00  0.00    -0.043 C 
ATOM      5  C   UNL     1      34.011 -20.872 -20.128  0.00  0.00    +0.016 C 
ATOM      6  C   UNL     1      36.351 -20.594 -20.433  0.00  0.00    +0.072 C 
ATOM      7  C   UNL     1      34.160 -19.802 -21.157  0.00  0.00    +0.072 C 
ATOM      8  C   UNL     1      35.391 -22.316 -18.753  0.00  0.00    -0.005 C 
ATOM      9  C   UNL     1      32.961 -22.404 -18.631  0.00  0.00    -0.006 C 
ATOM     10  C   UNL     1      32.849 -21.402 -19.597  0.00  0.00    +0.001 C 
ATOM     11  C   UNL     1      36.289 -18.882 -22.237  0.00  0.00    +0.259 C 
ENDROOT
BRANCH  11  12
ATOM     12  C   UNL     1      35.469 -18.070 -23.146  0.00  0.00    +0.088 C 
ATOM     13  C   UNL     1      34.520 -15.928 -23.722  0.00  0.00    +0.012 C 
ATOM     14  C   UNL     1      35.296 -16.716 -22.872  0.00  0.00    +0.006 C 
ATOM     15  C   UNL     1      34.871 -18.641 -24.267  0.00  0.00    +0.141 C 
ATOM     16  C   UNL     1      33.921 -16.497 -24.846  0.00  0.00    +0.133 C 
ATOM     17  C   UNL     1      34.096 -17.853 -25.118  0.00  0.00    +0.073 C 
BRANCH  13  18
ATOM     18  C   UNL     1      34.343 -14.477 -23.416  0.00  0.00    +0.025 C 
ATOM     19  C   UNL     1      34.611 -14.152 -21.936  0.00  0.00    +0.005 C 
ATOM     20  C   UNL     1      32.953 -13.956 -23.824  0.00  0.00    +0.005 C 
ENDBRANCH  13  18
BRANCH  15  21
ATOM     21  O   UNL     1      35.030 -19.965 -24.549  0.00  0.00    -0.505 OA
ATOM     22  H   UNL     1      35.836 -20.273 -24.914  0.00  0.00    +0.292 HD
ENDBRANCH  15  21
BRANCH  16  23
ATOM     23  O   UNL     1      33.159 -15.742 -25.687  0.00  0.00    -0.506 OA
ATOM     24  H   UNL     1      33.568 -15.220 -26.348  0.00  0.00    +0.292 HD
ENDBRANCH  16  23
ENDBRANCH  11  12
BRANCH   4  25
ATOM     25  C   UNL     1      34.314 -23.934 -17.176  0.00  0.00    -0.050 C 
BRANCH  25  26
ATOM     26  N   UNL     1      34.889 -23.440 -15.926  0.00  0.00    +0.387 N 
ATOM     27  N   UNL     1      36.503 -23.722 -13.545  0.00  0.00    +0.383 N 
ATOM     28  C   UNL     1      34.433 -24.247 -14.788  0.00  0.00    -0.100 C 
ATOM     29  C   UNL     1      36.355 -23.433 -15.994  0.00  0.00    -0.100 C 
ATOM     30  C   UNL     1      35.037 -23.732 -13.478  0.00  0.00    -0.101 C 
ATOM     31  C   UNL     1      36.960 -22.916 -14.684  0.00  0.00    -0.101 C 
ATOM     32  C   UNL     1      37.078 -23.226 -12.296  0.00  0.00    -0.101 C 
ATOM     33  H   UNL     1      34.570 -22.481 -15.790  0.00  0.00    -0.079 HD
ATOM     34  H   UNL     1      36.825 -24.681 -13.681  0.00  0.00    -0.080 HD
ENDBRANCH  25  26
ENDBRANCH   4  25
TORSDOF 6
ENDMDL
MODEL 4
REMARK VINA RESULT:     -11.7      3.815     10.076
REMARK  Name = 11955716
REMARK  6 active torsions:
REMARK  status: ('A' for Active; 'I' for Inactive)
REMARK    1  A    between atoms: C_4  and  C_25
REMARK    2  A    between atoms: C_11  and  C_12
REMARK    3  A    between atoms: C_13  and  C_18
REMARK    4  A    between atoms: C_15  and  O_21
REMARK    5  A    between atoms: C_16  and  O_23
REMARK    6  A    between atoms: C_25  and  N_26
REMARK                            x       y       z     vdW  Elec       q    Type
REMARK                         _______ _______ _______ _____ _____    ______ ____
ROOT
ATOM      1  O   UNL     1      37.417 -18.675 -22.463  0.00  0.00    -0.269 OA
ATOM      2  N   UNL     1      35.537 -19.598 -21.452  0.00  0.00    -0.231 N 
ATOM      3  C   UNL     1      35.209 -21.208 -19.803  0.00  0.00    +0.016 C 
ATOM      4  C   UNL     1      34.184 -22.739 -18.289  0.00  0.00    -0.043 C 
ATOM      5  C   UNL     1      33.945 -20.811 -20.260  0.00  0.00    +0.016 C 
ATOM      6  C   UNL     1      36.279 -20.457 -20.522  0.00  0.00    +0.072 C 
ATOM      7  C   UNL     1      34.079 -19.763 -21.314  0.00  0.00    +0.072 C 
ATOM      8  C   UNL     1      35.344 -22.169 -18.819  0.00  0.00    -0.005 C 
ATOM      9  C   UNL     1      32.916 -22.342 -18.747  0.00  0.00    -0.006 C 
ATOM     10  C   UNL     1      32.791 -21.369 -19.741  0.00  0.00    +0.001 C 
ATOM     11  C   UNL     1      36.198 -18.794 -22.370  0.00  0.00    +0.259 C 
ENDROOT
BRANCH  11  12
ATOM     12  C   UNL     1      35.370 -18.035 -23.318  0.00  0.00    +0.088 C 
ATOM     13  C   UNL     1      34.401 -15.933 -23.998  0.00  0.00    +0.012 C 
ATOM     14  C   UNL     1      35.184 -16.671 -23.110  0.00  0.00    +0.006 C 
ATOM     15  C   UNL     1      34.777 -18.666 -24.409  0.00  0.00    +0.141 C 
ATOM     16  C   UNL     1      33.806 -16.562 -25.092  0.00  0.00    +0.133 C 
ATOM     17  C   UNL     1      33.994 -17.928 -25.298  0.00  0.00    +0.073 C 
BRANCH  13  18
ATOM     18  C   UNL     1      34.210 -14.470 -23.763  0.00  0.00    +0.025 C 
ATOM     19  C   UNL     1      34.506 -14.065 -22.308  0.00  0.00    +0.005 C 
ATOM     20  C   UNL     1      32.803 -13.990 -24.165  0.00  0.00    +0.005 C 
ENDBRANCH  13  18
BRANCH  15  21
ATOM     21  O   UNL     1      34.949 -20.001 -24.626  0.00  0.00    -0.505 OA
ATOM     22  H   UNL     1      35.498 -20.501 -24.057  0.00  0.00    +0.292 HD
ENDBRANCH  15  21
BRANCH  16  23
ATOM     23  O   UNL     1      33.038 -15.856 -25.968  0.00  0.00    -0.506 OA
ATOM     24  H   UNL     1      32.323 -15.339 -25.654  0.00  0.00    +0.292 HD
ENDBRANCH  16  23
ENDBRANCH  11  12
BRANCH   4  25
ATOM     25  C   UNL     1      34.290 -23.785 -17.224  0.00  0.00    -0.050 C 
BRANCH  25  26
ATOM     26  N   UNL     1      33.408 -23.503 -16.094  0.00  0.00    +0.387 N 
ATOM     27  N   UNL     1      31.578 -24.285 -13.996  0.00  0.00    +0.383 N 
ATOM     28  C   UNL     1      32.029 -23.907 -16.397  0.00  0.00    -0.100 C 
ATOM     29  C   UNL     1      33.883 -24.177 -14.879  0.00  0.00    -0.100 C 
ATOM     30  C   UNL     1      31.103 -23.614 -15.211  0.00  0.00    -0.101 C 
ATOM     31  C   UNL     1      32.958 -23.882 -13.694  0.00  0.00    -0.101 C 
ATOM     32  C   UNL     1      30.696 -24.001 -12.866  0.00  0.00    -0.101 C 
ATOM     33  H   UNL     1      33.420 -22.497 -15.928  0.00  0.00    -0.079 HD
ATOM     34  H   UNL     1      31.567 -25.292 -14.160  0.00  0.00    -0.080 HD
ENDBRANCH  25  26
ENDBRANCH   4  25
TORSDOF 6
ENDMDL
MODEL 5
REMARK VINA RESULT:     -11.6      6.706     12.113
REMARK  Name = 11955716
REMARK  6 active torsions:
REMARK  status: ('A' for Active; 'I' for Inactive)
REMARK    1  A    between atoms: C_4  and  C_25
REMARK    2  A    between atoms: C_11  and  C_12
REMARK    3  A    between atoms: C_13  and  C_18
REMARK    4  A    between atoms: C_15  and  O_21
REMARK    5  A    between atoms: C_16  and  O_23
REMARK    6  A    between atoms: C_25  and  N_26
REMARK                            x       y       z     vdW  Elec       q    Type
REMARK                         _______ _______ _______ _____ _____    ______ ____
ROOT
ATOM      1  O   UNL     1      33.211 -12.032 -25.116  0.00  0.00    -0.269 OA
ATOM      2  N   UNL     1      33.832 -13.251 -23.236  0.00  0.00    -0.231 N 
ATOM      3  C   UNL     1      34.622 -15.414 -22.894  0.00  0.00    +0.016 C 
ATOM      4  C   UNL     1      35.371 -17.426 -21.856  0.00  0.00    -0.043 C 
ATOM      5  C   UNL     1      34.469 -14.819 -21.635  0.00  0.00    +0.016 C 
ATOM      6  C   UNL     1      34.239 -14.454 -23.971  0.00  0.00    +0.072 C 
ATOM      7  C   UNL     1      33.977 -13.417 -21.778  0.00  0.00    +0.072 C 
ATOM      8  C   UNL     1      35.072 -16.715 -23.020  0.00  0.00    -0.005 C 
ATOM      9  C   UNL     1      35.217 -16.830 -20.592  0.00  0.00    -0.006 C 
ATOM     10  C   UNL     1      34.762 -15.515 -20.476  0.00  0.00    +0.001 C 
ATOM     11  C   UNL     1      33.320 -12.144 -23.898  0.00  0.00    +0.259 C 
ENDROOT
BRANCH  11  12
ATOM     12  C   UNL     1      32.858 -11.020 -23.071  0.00  0.00    +0.088 C 
ATOM     13  C   UNL     1      33.026  -8.691 -22.463  0.00  0.00    +0.012 C 
ATOM     14  C   UNL     1      33.450  -9.771 -23.238  0.00  0.00    +0.006 C 
ATOM     15  C   UNL     1      31.845 -11.196 -22.133  0.00  0.00    +0.141 C 
ATOM     16  C   UNL     1      32.011  -8.865 -21.522  0.00  0.00    +0.133 C 
ATOM     17  C   UNL     1      31.420 -10.117 -21.356  0.00  0.00    +0.073 C 
BRANCH  13  18
ATOM     18  C   UNL     1      33.670  -7.357 -22.653  0.00  0.00    +0.025 C 
ATOM     19  C   UNL     1      32.788  -6.390 -23.462  0.00  0.00    +0.005 C 
ATOM     20  C   UNL     1      35.063  -7.464 -23.300  0.00  0.00    +0.005 C 
ENDBRANCH  13  18
BRANCH  15  21
ATOM     21  O   UNL     1      31.256 -12.413 -21.955  0.00  0.00    -0.505 OA
ATOM     22  H   UNL     1      30.356 -12.465 -21.702  0.00  0.00    +0.292 HD
ENDBRANCH  15  21
BRANCH  16  23
ATOM     23  O   UNL     1      31.586  -7.822 -20.756  0.00  0.00    -0.506 OA
ATOM     24  H   UNL     1      30.838  -7.322 -21.017  0.00  0.00    +0.292 HD
ENDBRANCH  16  23
ENDBRANCH  11  12
BRANCH   4  25
ATOM     25  C   UNL     1      35.859 -18.838 -21.952  0.00  0.00    -0.050 C 
BRANCH  25  26
ATOM     26  N   UNL     1      35.353 -19.664 -20.858  0.00  0.00    +0.387 N 
ATOM     27  N   UNL     1      34.464 -22.169 -19.720  0.00  0.00    +0.383 N 
ATOM     28  C   UNL     1      34.043 -20.232 -21.197  0.00  0.00    -0.100 C 
ATOM     29  C   UNL     1      36.305 -20.733 -20.529  0.00  0.00    -0.100 C 
ATOM     30  C   UNL     1      33.513 -21.102 -20.051  0.00  0.00    -0.101 C 
ATOM     31  C   UNL     1      35.776 -21.600 -19.382  0.00  0.00    -0.101 C 
ATOM     32  C   UNL     1      33.959 -22.994 -18.624  0.00  0.00    -0.101 C 
ATOM     33  H   UNL     1      35.244 -19.068 -20.038  0.00  0.00    -0.079 HD
ATOM     34  H   UNL     1      34.575 -22.766 -20.539  0.00  0.00    -0.080 HD
ENDBRANCH  25  26
ENDBRANCH   4  25
TORSDOF 6
ENDMDL
MODEL 6
REMARK VINA RESULT:     -11.4      2.381      4.313
REMARK  Name = 11955716
REMARK  6 active torsions:
REMARK  status: ('A' for Active; 'I' for Inactive)
REMARK    1  A    between atoms: C_4  and  C_25
REMARK    2  A    between atoms: C_11  and  C_12
REMARK    3  A    between atoms: C_13  and  C_18
REMARK    4  A    between atoms: C_15  and  O_21
REMARK    5  A    between atoms: C_16  and  O_23
REMARK    6  A    between atoms: C_25  and  N_26
REMARK                            x       y       z     vdW  Elec       q    Type
REMARK                         _______ _______ _______ _____ _____    ______ ____
ROOT
ATOM      1  O   UNL     1      32.242 -24.151 -15.671  0.00  0.00    -0.269 OA
ATOM      2  N   UNL     1      34.070 -23.167 -16.717  0.00  0.00    -0.231 N 
ATOM      3  C   UNL     1      34.402 -22.155 -18.786  0.00  0.00    +0.016 C 
ATOM      4  C   UNL     1      35.422 -21.097 -20.665  0.00  0.00    -0.043 C 
ATOM      5  C   UNL     1      35.639 -22.177 -18.127  0.00  0.00    +0.016 C 
ATOM      6  C   UNL     1      33.346 -22.767 -17.929  0.00  0.00    +0.072 C 
ATOM      7  C   UNL     1      35.497 -22.802 -16.779  0.00  0.00    +0.072 C 
ATOM      8  C   UNL     1      34.279 -21.618 -20.054  0.00  0.00    -0.005 C 
ATOM      9  C   UNL     1      36.662 -21.119 -20.004  0.00  0.00    -0.006 C 
ATOM     10  C   UNL     1      36.776 -21.664 -18.723  0.00  0.00    +0.001 C 
ATOM     11  C   UNL     1      33.435 -23.860 -15.696  0.00  0.00    +0.259 C 
ENDROOT
BRANCH  11  12
ATOM     12  C   UNL     1      34.262 -24.294 -14.561  0.00  0.00    +0.088 C 
ATOM     13  C   UNL     1      36.218 -25.448 -13.747  0.00  0.00    +0.012 C 
ATOM     14  C   UNL     1      35.420 -25.026 -14.810  0.00  0.00    +0.006 C 
ATOM     15  C   UNL     1      33.897 -23.981 -13.255  0.00  0.00    +0.141 C 
ATOM     16  C   UNL     1      35.855 -25.135 -12.436  0.00  0.00    +0.133 C 
ATOM     17  C   UNL     1      34.695 -24.402 -12.190  0.00  0.00    +0.073 C 
BRANCH  13  18
ATOM     18  C   UNL     1      37.457 -26.232 -14.028  0.00  0.00    +0.025 C 
ATOM     19  C   UNL     1      38.695 -25.334 -14.199  0.00  0.00    +0.005 C 
ATOM     20  C   UNL     1      37.304 -27.153 -15.254  0.00  0.00    +0.005 C 
ENDBRANCH  13  18
BRANCH  15  21
ATOM     21  O   UNL     1      32.766 -23.266 -12.994  0.00  0.00    -0.505 OA
ATOM     22  H   UNL     1      31.939 -23.702 -12.939  0.00  0.00    +0.292 HD
ENDBRANCH  15  21
BRANCH  16  23
ATOM     23  O   UNL     1      36.622 -25.540 -11.386  0.00  0.00    -0.506 OA
ATOM     24  H   UNL     1      36.381 -26.300 -10.895  0.00  0.00    +0.292 HD
ENDBRANCH  16  23
ENDBRANCH  11  12
BRANCH   4  25
ATOM     25  C   UNL     1      35.327 -20.509 -22.039  0.00  0.00    -0.050 C 
BRANCH  25  26
ATOM     26  N   UNL     1      34.865 -19.123 -22.007  0.00  0.00    +0.387 N 
ATOM     27  N   UNL     1      35.236 -16.276 -22.348  0.00  0.00    +0.383 N 
ATOM     28  C   UNL     1      35.647 -18.336 -21.045  0.00  0.00    -0.100 C 
ATOM     29  C   UNL     1      34.939 -18.519 -23.343  0.00  0.00    -0.100 C 
ATOM     30  C   UNL     1      35.165 -16.881 -21.013  0.00  0.00    -0.101 C 
ATOM     31  C   UNL     1      34.455 -17.065 -23.311  0.00  0.00    -0.101 C 
ATOM     32  C   UNL     1      34.772 -14.891 -22.317  0.00  0.00    -0.101 C 
ATOM     33  H   UNL     1      33.891 -19.123 -21.708  0.00  0.00    -0.079 HD
ATOM     34  H   UNL     1      36.211 -16.276 -22.650  0.00  0.00    -0.080 HD
ENDBRANCH  25  26
ENDBRANCH   4  25
TORSDOF 6
ENDMDL
MODEL 7
REMARK VINA RESULT:     -10.8      1.601      2.340
REMARK  Name = 11955716
REMARK  6 active torsions:
REMARK  status: ('A' for Active; 'I' for Inactive)
REMARK    1  A    between atoms: C_4  and  C_25
REMARK    2  A    between atoms: C_11  and  C_12
REMARK    3  A    between atoms: C_13  and  C_18
REMARK    4  A    between atoms: C_15  and  O_21
REMARK    5  A    between atoms: C_16  and  O_23
REMARK    6  A    between atoms: C_25  and  N_26
REMARK                            x       y       z     vdW  Elec       q    Type
REMARK                         _______ _______ _______ _____ _____    ______ ____
ROOT
ATOM      1  O   UNL     1      37.710 -22.541 -16.435  0.00  0.00    -0.269 OA
ATOM      2  N   UNL     1      36.009 -22.043 -17.940  0.00  0.00    -0.231 N 
ATOM      3  C   UNL     1      35.912 -20.865 -19.946  0.00  0.00    +0.016 C 
ATOM      4  C   UNL     1      35.111 -19.801 -21.924  0.00  0.00    -0.043 C 
ATOM      5  C   UNL     1      34.608 -21.274 -19.636  0.00  0.00    +0.016 C 
ATOM      6  C   UNL     1      36.866 -21.337 -18.900  0.00  0.00    +0.072 C 
ATOM      7  C   UNL     1      34.596 -22.053 -18.363  0.00  0.00    +0.072 C 
ATOM      8  C   UNL     1      36.179 -20.129 -21.085  0.00  0.00    -0.005 C 
ATOM      9  C   UNL     1      33.803 -20.211 -21.614  0.00  0.00    -0.006 C 
ATOM     10  C   UNL     1      33.545 -20.954 -20.461  0.00  0.00    +0.001 C 
ATOM     11  C   UNL     1      36.526 -22.563 -16.762  0.00  0.00    +0.259 C 
ENDROOT
BRANCH  11  12
ATOM     12  C   UNL     1      35.575 -23.176 -15.824  0.00  0.00    +0.088 C 
ATOM     13  C   UNL     1      33.334 -23.930 -15.343  0.00  0.00    +0.012 C 
ATOM     14  C   UNL     1      34.252 -23.350 -16.220  0.00  0.00    +0.006 C 
ATOM     15  C   UNL     1      35.987 -23.579 -14.556  0.00  0.00    +0.141 C 
ATOM     16  C   UNL     1      33.744 -24.334 -14.073  0.00  0.00    +0.133 C 
ATOM     17  C   UNL     1      35.070 -24.159 -13.679  0.00  0.00    +0.073 C 
BRANCH  13  18
ATOM     18  C   UNL     1      31.918 -24.110 -15.781  0.00  0.00    +0.025 C 
ATOM     19  C   UNL     1      31.486 -23.060 -16.821  0.00  0.00    +0.005 C 
ATOM     20  C   UNL     1      30.933 -24.113 -14.598  0.00  0.00    +0.005 C 
ENDBRANCH  13  18
BRANCH  15  21
ATOM     21  O   UNL     1      37.279 -23.415 -14.152  0.00  0.00    -0.505 OA
ATOM     22  H   UNL     1      37.558 -22.593 -13.801  0.00  0.00    +0.292 HD
ENDBRANCH  15  21
BRANCH  16  23
ATOM     23  O   UNL     1      32.861 -24.901 -13.204  0.00  0.00    -0.506 OA
ATOM     24  H   UNL     1      32.945 -24.749 -12.284  0.00  0.00    +0.292 HD
ENDBRANCH  16  23
ENDBRANCH  11  12
BRANCH   4  25
ATOM     25  C   UNL     1      35.361 -19.004 -23.166  0.00  0.00    -0.050 C 
BRANCH  25  26
ATOM     26  N   UNL     1      34.700 -17.701 -23.119  0.00  0.00    +0.387 N 
ATOM     27  N   UNL     1      34.629 -14.834 -23.483  0.00  0.00    +0.383 N 
ATOM     28  C   UNL     1      35.396 -16.798 -22.193  0.00  0.00    -0.100 C 
ATOM     29  C   UNL     1      34.626 -17.104 -24.458  0.00  0.00    -0.100 C 
ATOM     30  C   UNL     1      34.705 -15.431 -22.144  0.00  0.00    -0.101 C 
ATOM     31  C   UNL     1      33.934 -15.738 -24.409  0.00  0.00    -0.101 C 
ATOM     32  C   UNL     1      33.967 -13.532 -23.435  0.00  0.00    -0.101 C 
ATOM     33  H   UNL     1      33.750 -17.843 -22.777  0.00  0.00    -0.079 HD
ATOM     34  H   UNL     1      35.580 -14.692 -23.826  0.00  0.00    -0.080 HD
ENDBRANCH  25  26
ENDBRANCH   4  25
TORSDOF 6
ENDMDL
MODEL 8
REMARK VINA RESULT:     -10.7      1.810      3.752
REMARK  Name = 11955716
REMARK  6 active torsions:
REMARK  status: ('A' for Active; 'I' for Inactive)
REMARK    1  A    between atoms: C_4  and  C_25
REMARK    2  A    between atoms: C_11  and  C_12
REMARK    3  A    between atoms: C_13  and  C_18
REMARK    4  A    between atoms: C_15  and  O_21
REMARK    5  A    between atoms: C_16  and  O_23
REMARK    6  A    between atoms: C_25  and  N_26
REMARK                            x       y       z     vdW  Elec       q    Type
REMARK                         _______ _______ _______ _____ _____    ______ ____
ROOT
ATOM      1  O   UNL     1      31.434 -22.816 -17.690  0.00  0.00    -0.269 OA
ATOM      2  N   UNL     1      33.451 -22.004 -18.513  0.00  0.00    -0.231 N 
ATOM      3  C   UNL     1      34.062 -20.809 -20.414  0.00  0.00    +0.016 C 
ATOM      4  C   UNL     1      35.345 -19.698 -22.090  0.00  0.00    -0.043 C 
ATOM      5  C   UNL     1      35.236 -21.103 -19.709  0.00  0.00    +0.016 C 
ATOM      6  C   UNL     1      32.874 -21.352 -19.694  0.00  0.00    +0.072 C 
ATOM      7  C   UNL     1      34.918 -21.859 -18.462  0.00  0.00    +0.072 C 
ATOM      8  C   UNL     1      34.101 -20.107 -21.605  0.00  0.00    -0.005 C 
ATOM      9  C   UNL     1      36.523 -19.992 -21.382  0.00  0.00    -0.006 C 
ATOM     10  C   UNL     1      36.473 -20.701 -20.180  0.00  0.00    +0.001 C 
ATOM     11  C   UNL     1      32.656 -22.712 -17.623  0.00  0.00    +0.259 C 
ENDROOT
BRANCH  11  12
ATOM     12  C   UNL     1      33.335 -23.404 -16.518  0.00  0.00    +0.088 C 
ATOM     13  C   UNL     1      35.379 -23.924 -15.345  0.00  0.00    +0.012 C 
ATOM     14  C   UNL     1      34.715 -23.274 -16.386  0.00  0.00    +0.006 C 
ATOM     15  C   UNL     1      32.614 -24.180 -15.615  0.00  0.00    +0.141 C 
ATOM     16  C   UNL     1      34.659 -24.702 -14.438  0.00  0.00    +0.133 C 
ATOM     17  C   UNL     1      33.277 -24.831 -14.573  0.00  0.00    +0.073 C 
BRANCH  13  18
ATOM     18  C   UNL     1      36.859 -23.775 -15.215  0.00  0.00    +0.025 C 
ATOM     19  C   UNL     1      37.284 -23.340 -13.802  0.00  0.00    +0.005 C 
ATOM     20  C   UNL     1      37.446 -22.808 -16.261  0.00  0.00    +0.005 C 
ENDBRANCH  13  18
BRANCH  15  21
ATOM     21  O   UNL     1      31.263 -24.319 -15.731  0.00  0.00    -0.505 OA
ATOM     22  H   UNL     1      30.894 -24.671 -16.517  0.00  0.00    +0.292 HD
ENDBRANCH  15  21
BRANCH  16  23
ATOM     23  O   UNL     1      35.290 -25.344 -13.416  0.00  0.00    -0.506 OA
ATOM     24  H   UNL     1      35.007 -26.196 -13.151  0.00  0.00    +0.292 HD
ENDBRANCH  16  23
ENDBRANCH  11  12
BRANCH   4  25
ATOM     25  C   UNL     1      35.428 -18.938 -23.377  0.00  0.00    -0.050 C 
BRANCH  25  26
ATOM     26  N   UNL     1      34.724 -17.659 -23.301  0.00  0.00    +0.387 N 
ATOM     27  N   UNL     1      34.549 -14.792 -23.629  0.00  0.00    +0.383 N 
ATOM     28  C   UNL     1      35.408 -16.744 -22.379  0.00  0.00    -0.100 C 
ATOM     29  C   UNL     1      34.604 -17.050 -24.631  0.00  0.00    -0.100 C 
ATOM     30  C   UNL     1      34.673 -15.401 -22.299  0.00  0.00    -0.101 C 
ATOM     31  C   UNL     1      33.867 -15.709 -24.552  0.00  0.00    -0.101 C 
ATOM     32  C   UNL     1      33.844 -13.514 -23.552  0.00  0.00    -0.101 C 
ATOM     33  H   UNL     1      33.786 -17.837 -22.943  0.00  0.00    -0.079 HD
ATOM     34  H   UNL     1      35.487 -14.614 -23.989  0.00  0.00    -0.080 HD
ENDBRANCH  25  26
ENDBRANCH   4  25
TORSDOF 6
ENDMDL
MODEL 9
REMARK VINA RESULT:     -10.6      4.179      9.873
REMARK  Name = 11955716
REMARK  6 active torsions:
REMARK  status: ('A' for Active; 'I' for Inactive)
REMARK    1  A    between atoms: C_4  and  C_25
REMARK    2  A    between atoms: C_11  and  C_12
REMARK    3  A    between atoms: C_13  and  C_18
REMARK    4  A    between atoms: C_15  and  O_21
REMARK    5  A    between atoms: C_16  and  O_23
REMARK    6  A    between atoms: C_25  and  N_26
REMARK                            x       y       z     vdW  Elec       q    Type
REMARK                         _______ _______ _______ _____ _____    ______ ____
ROOT
ATOM      1  O   UNL     1      37.597 -18.667 -21.704  0.00  0.00    -0.269 OA
ATOM      2  N   UNL     1      35.729 -19.774 -20.871  0.00  0.00    -0.231 N 
ATOM      3  C   UNL     1      35.406 -21.421 -19.258  0.00  0.00    +0.016 C 
ATOM      4  C   UNL     1      34.398 -23.055 -17.845  0.00  0.00    -0.043 C 
ATOM      5  C   UNL     1      34.158 -21.144 -19.831  0.00  0.00    +0.016 C 
ATOM      6  C   UNL     1      36.461 -20.565 -19.875  0.00  0.00    +0.072 C 
ATOM      7  C   UNL     1      34.287 -20.079 -20.869  0.00  0.00    +0.072 C 
ATOM      8  C   UNL     1      35.541 -22.372 -18.265  0.00  0.00    -0.005 C 
ATOM      9  C   UNL     1      33.145 -22.778 -18.419  0.00  0.00    -0.006 C 
ATOM     10  C   UNL     1      33.019 -21.814 -19.421  0.00  0.00    +0.001 C 
ATOM     11  C   UNL     1      36.392 -18.903 -21.725  0.00  0.00    +0.259 C 
ENDROOT
BRANCH  11  12
ATOM     12  C   UNL     1      35.586 -18.220 -22.746  0.00  0.00    +0.088 C 
ATOM     13  C   UNL     1      34.281 -18.335 -24.773  0.00  0.00    +0.012 C 
ATOM     14  C   UNL     1      35.048 -18.965 -23.793  0.00  0.00    +0.006 C 
ATOM     15  C   UNL     1      35.361 -16.847 -22.674  0.00  0.00    +0.141 C 
ATOM     16  C   UNL     1      34.054 -16.960 -24.703  0.00  0.00    +0.133 C 
ATOM     17  C   UNL     1      34.594 -16.216 -23.654  0.00  0.00    +0.073 C 
BRANCH  13  18
ATOM     18  C   UNL     1      33.711 -19.146 -25.889  0.00  0.00    +0.025 C 
ATOM     19  C   UNL     1      32.171 -19.152 -25.884  0.00  0.00    +0.005 C 
ATOM     20  C   UNL     1      34.240 -20.593 -25.894  0.00  0.00    +0.005 C 
ENDBRANCH  13  18
BRANCH  15  21
ATOM     21  O   UNL     1      35.881 -16.103 -21.657  0.00  0.00    -0.505 OA
ATOM     22  H   UNL     1      36.597 -16.436 -21.153  0.00  0.00    +0.292 HD
ENDBRANCH  15  21
BRANCH  16  23
ATOM     23  O   UNL     1      33.308 -16.329 -25.652  0.00  0.00    -0.506 OA
ATOM     24  H   UNL     1      33.709 -16.037 -26.446  0.00  0.00    +0.292 HD
ENDBRANCH  16  23
ENDBRANCH  11  12
BRANCH   4  25
ATOM     25  C   UNL     1      34.505 -24.095 -16.773  0.00  0.00    -0.050 C 
BRANCH  25  26
ATOM     26  N   UNL     1      35.104 -23.559 -15.552  0.00  0.00    +0.387 N 
ATOM     27  N   UNL     1      36.682 -23.790 -13.142  0.00  0.00    +0.383 N 
ATOM     28  C   UNL     1      34.589 -24.258 -14.369  0.00  0.00    -0.100 C 
ATOM     29  C   UNL     1      36.568 -23.652 -15.606  0.00  0.00    -0.100 C 
ATOM     30  C   UNL     1      35.219 -23.699 -13.088  0.00  0.00    -0.101 C 
ATOM     31  C   UNL     1      37.198 -23.091 -14.326  0.00  0.00    -0.101 C 
ATOM     32  C   UNL     1      37.282 -23.252 -11.922  0.00  0.00    -0.101 C 
ATOM     33  H   UNL     1      34.847 -22.574 -15.482  0.00  0.00    -0.079 HD
ATOM     34  H   UNL     1      36.941 -24.775 -13.212  0.00  0.00    -0.080 HD
ENDBRANCH  25  26
ENDBRANCH   4  25
TORSDOF 6
ENDMDL
