MODEL 1
REMARK VINA RESULT:     -12.7      0.000      0.000
REMARK  Name = 11840906
REMARK  7 active torsions:
REMARK  status: ('A' for Active; 'I' for Inactive)
REMARK    1  A    between atoms: O_1  and  C_3
REMARK    2  A    between atoms: O_1  and  C_18
REMARK    3  A    between atoms: C_5  and  C_9
REMARK    4  A    between atoms: C_18  and  C_19
REMARK    5  A    between atoms: C_19  and  N_20
REMARK    6  A    between atoms: C_19  and  C_24
REMARK    7  A    between atoms: C_24  and  C_26
REMARK                            x       y       z     vdW  Elec       q    Type
REMARK                         _______ _______ _______ _____ _____    ______ ____
ROOT
ATOM      1  O   UNL     1      35.307 -15.354 -23.379  0.00  0.00    -0.476 OA
ENDROOT
BRANCH   1   3
ATOM      2  N   UNL     1      34.366 -18.552 -24.854  0.00  0.00    -0.239 NA
ATOM      3  C   UNL     1      35.064 -16.699 -23.488  0.00  0.00    +0.158 C 
ATOM      4  C   UNL     1      35.256 -17.538 -22.405  0.00  0.00    +0.040 C 
ATOM      5  C   UNL     1      35.001 -18.897 -22.547  0.00  0.00    +0.022 C 
ATOM      6  C   UNL     1      34.624 -17.236 -24.679  0.00  0.00    +0.136 C 
ATOM      7  C   UNL     1      34.561 -19.350 -23.780  0.00  0.00    +0.099 C 
BRANCH   5   9
ATOM      8  N   UNL     1      34.641 -23.104 -17.636  0.00  0.00    -0.242 NA
ATOM      9  C   UNL     1      35.188 -19.808 -21.442  0.00  0.00    +0.002 C 
ATOM     10  C   UNL     1      34.252 -21.334 -19.791  0.00  0.00    +0.003 C 
ATOM     11  C   UNL     1      34.085 -20.446 -20.867  0.00  0.00    +0.000 C 
ATOM     12  C   UNL     1      35.549 -21.576 -19.295  0.00  0.00    +0.019 C 
ATOM     13  C   UNL     1      36.469 -20.051 -20.947  0.00  0.00    +0.000 C 
ATOM     14  C   UNL     1      36.651 -20.930 -19.879  0.00  0.00    +0.002 C 
ATOM     15  C   UNL     1      33.166 -21.987 -19.195  0.00  0.00    +0.021 C 
ATOM     16  C   UNL     1      35.676 -22.464 -18.226  0.00  0.00    +0.099 C 
ATOM     17  C   UNL     1      33.413 -22.849 -18.138  0.00  0.00    +0.099 C 
ENDBRANCH   5   9
ENDBRANCH   1   3
BRANCH   1  18
ATOM     18  C   UNL     1      34.247 -14.551 -22.876  0.00  0.00    +0.184 C 
BRANCH  18  19
ATOM     19  C   UNL     1      33.798 -13.553 -23.949  0.00  0.00    -0.021 C 
BRANCH  19  20
ATOM     20  N   UNL     1      32.792 -14.195 -24.794  0.00  0.00    +0.384 N 
ATOM     21  H   UNL     1      32.216 -13.480 -25.241  0.00  0.00    -0.089 HD
ATOM     22  H   UNL     1      32.200 -14.798 -24.221  0.00  0.00    -0.089 HD
ATOM     23  H   UNL     1      33.255 -14.755 -25.510  0.00  0.00    -0.089 HD
ENDBRANCH  19  20
BRANCH  19  24
ATOM     24  C   UNL     1      33.247 -12.256 -23.318  0.00  0.00    -0.012 C 
BRANCH  24  26
ATOM     25  N   UNL     1      35.267  -9.746 -24.569  0.00  0.00    -0.270 NA
ATOM     26  C   UNL     1      33.293 -11.055 -24.243  0.00  0.00    +0.046 C 
ATOM     27  C   UNL     1      33.176  -9.741 -23.540  0.00  0.00    -0.007 C 
ATOM     28  C   UNL     1      34.686 -10.877 -24.837  0.00  0.00    +0.130 C 
ATOM     29  C   UNL     1      34.357  -9.027 -23.774  0.00  0.00    +0.071 C 
ATOM     30  C   UNL     1      32.147  -9.214 -22.784  0.00  0.00    -0.024 C 
ATOM     31  C   UNL     1      34.536  -7.760 -23.244  0.00  0.00    +0.014 C 
ATOM     32  C   UNL     1      32.320  -7.937 -22.246  0.00  0.00    +0.052 C 
ATOM     33  C   UNL     1      33.504  -7.216 -22.474  0.00  0.00    -0.020 C 
ENDBRANCH  24  26
ENDBRANCH  19  24
ENDBRANCH  18  19
ENDBRANCH   1  18
TORSDOF 7
ENDMDL
MODEL 2
REMARK VINA RESULT:     -12.1      1.515     10.670
REMARK  Name = 11840906
REMARK  7 active torsions:
REMARK  status: ('A' for Active; 'I' for Inactive)
REMARK    1  A    between atoms: O_1  and  C_3
REMARK    2  A    between atoms: O_1  and  C_18
REMARK    3  A    between atoms: C_5  and  C_9
REMARK    4  A    between atoms: C_18  and  C_19
REMARK    5  A    between atoms: C_19  and  N_20
REMARK    6  A    between atoms: C_19  and  C_24
REMARK    7  A    between atoms: C_24  and  C_26
REMARK                            x       y       z     vdW  Elec       q    Type
REMARK                         _______ _______ _______ _____ _____    ______ ____
ROOT
ATOM      1  O   UNL     1      34.463 -15.837 -23.147  0.00  0.00    -0.476 OA
ENDROOT
BRANCH   1   3
ATOM      2  N   UNL     1      33.120 -14.135 -26.078  0.00  0.00    -0.239 NA
ATOM      3  C   UNL     1      34.040 -14.820 -23.963  0.00  0.00    +0.158 C 
ATOM      4  C   UNL     1      34.095 -13.506 -23.534  0.00  0.00    +0.040 C 
ATOM      5  C   UNL     1      33.659 -12.496 -24.384  0.00  0.00    +0.022 C 
ATOM      6  C   UNL     1      33.553 -15.090 -25.224  0.00  0.00    +0.136 C 
ATOM      7  C   UNL     1      33.185 -12.860 -25.634  0.00  0.00    +0.099 C 
BRANCH   5   9
ATOM      8  N   UNL     1      32.846  -6.556 -21.935  0.00  0.00    -0.242 NA
ATOM      9  C   UNL     1      33.700 -11.111 -23.977  0.00  0.00    +0.002 C 
ATOM     10  C   UNL     1      32.747  -9.260 -22.714  0.00  0.00    +0.003 C 
ATOM     11  C   UNL     1      32.720 -10.605 -23.118  0.00  0.00    +0.000 C 
ATOM     12  C   UNL     1      33.777  -8.422 -23.186  0.00  0.00    +0.019 C 
ATOM     13  C   UNL     1      34.716 -10.277 -24.441  0.00  0.00    +0.000 C 
ATOM     14  C   UNL     1      34.757  -8.939 -24.049  0.00  0.00    +0.002 C 
ATOM     15  C   UNL     1      31.779  -8.726 -21.854  0.00  0.00    +0.021 C 
ATOM     16  C   UNL     1      33.771  -7.092 -22.763  0.00  0.00    +0.099 C 
ATOM     17  C   UNL     1      31.875  -7.389 -21.502  0.00  0.00    +0.099 C 
ENDBRANCH   5   9
ENDBRANCH   1   3
BRANCH   1  18
ATOM     18  C   UNL     1      35.251 -16.855 -23.750  0.00  0.00    +0.184 C 
BRANCH  18  19
ATOM     19  C   UNL     1      34.472 -18.175 -23.766  0.00  0.00    -0.021 C 
BRANCH  19  20
ATOM     20  N   UNL     1      34.180 -18.529 -25.155  0.00  0.00    +0.384 N 
ATOM     21  H   UNL     1      33.198 -18.795 -25.239  0.00  0.00    -0.089 HD
ATOM     22  H   UNL     1      34.769 -19.313 -25.437  0.00  0.00    -0.089 HD
ATOM     23  H   UNL     1      34.368 -17.728 -25.758  0.00  0.00    -0.089 HD
ENDBRANCH  19  20
BRANCH  19  24
ATOM     24  C   UNL     1      35.255 -19.301 -23.059  0.00  0.00    -0.012 C 
BRANCH  24  26
ATOM     25  N   UNL     1      36.958 -20.311 -20.226  0.00  0.00    -0.270 NA
ATOM     26  C   UNL     1      35.365 -19.124 -21.556  0.00  0.00    +0.046 C 
ATOM     27  C   UNL     1      34.694 -20.200 -20.766  0.00  0.00    -0.007 C 
ATOM     28  C   UNL     1      36.798 -19.350 -21.084  0.00  0.00    +0.130 C 
ATOM     29  C   UNL     1      35.678 -20.850 -20.010  0.00  0.00    +0.071 C 
ATOM     30  C   UNL     1      33.365 -20.572 -20.700  0.00  0.00    -0.024 C 
ATOM     31  C   UNL     1      35.347 -21.899 -19.170  0.00  0.00    +0.014 C 
ATOM     32  C   UNL     1      33.024 -21.630 -19.855  0.00  0.00    +0.052 C 
ATOM     33  C   UNL     1      34.006 -22.288 -19.097  0.00  0.00    -0.020 C 
ENDBRANCH  24  26
ENDBRANCH  19  24
ENDBRANCH  18  19
ENDBRANCH   1  18
TORSDOF 7
ENDMDL
MODEL 3
REMARK VINA RESULT:     -11.9      1.833     10.495
REMARK  Name = 11840906
REMARK  7 active torsions:
REMARK  status: ('A' for Active; 'I' for Inactive)
REMARK    1  A    between atoms: O_1  and  C_3
REMARK    2  A    between atoms: O_1  and  C_18
REMARK    3  A    between atoms: C_5  and  C_9
REMARK    4  A    between atoms: C_18  and  C_19
REMARK    5  A    between atoms: C_19  and  N_20
REMARK    6  A    between atoms: C_19  and  C_24
REMARK    7  A    between atoms: C_24  and  C_26
REMARK                            x       y       z     vdW  Elec       q    Type
REMARK                         _______ _______ _______ _____ _____    ______ ____
ROOT
ATOM      1  O   UNL     1      35.632 -17.895 -23.190  0.00  0.00    -0.476 OA
ENDROOT
BRANCH   1   3
ATOM      2  N   UNL     1      33.690 -16.650 -26.013  0.00  0.00    -0.239 NA
ATOM      3  C   UNL     1      34.886 -17.043 -23.963  0.00  0.00    +0.158 C 
ATOM      4  C   UNL     1      34.578 -15.772 -23.511  0.00  0.00    +0.040 C 
ATOM      5  C   UNL     1      33.820 -14.931 -24.317  0.00  0.00    +0.022 C 
ATOM      6  C   UNL     1      34.429 -17.439 -25.201  0.00  0.00    +0.136 C 
ATOM      7  C   UNL     1      33.405 -15.412 -25.547  0.00  0.00    +0.099 C 
BRANCH   5   9
ATOM      8  N   UNL     1      31.739  -9.505 -21.459  0.00  0.00    -0.242 NA
ATOM      9  C   UNL     1      33.477 -13.596 -23.885  0.00  0.00    +0.002 C 
ATOM     10  C   UNL     1      32.397 -12.116 -22.281  0.00  0.00    +0.003 C 
ATOM     11  C   UNL     1      32.739 -13.408 -22.713  0.00  0.00    +0.000 C 
ATOM     12  C   UNL     1      32.809 -11.006 -23.045  0.00  0.00    +0.019 C 
ATOM     13  C   UNL     1      33.881 -12.494 -24.637  0.00  0.00    +0.000 C 
ATOM     14  C   UNL     1      33.550 -11.204 -24.221  0.00  0.00    +0.002 C 
ATOM     15  C   UNL     1      31.659 -11.898 -21.111  0.00  0.00    +0.021 C 
ATOM     16  C   UNL     1      32.452  -9.737 -22.584  0.00  0.00    +0.099 C 
ATOM     17  C   UNL     1      31.362 -10.592 -20.752  0.00  0.00    +0.099 C 
ENDBRANCH   5   9
ENDBRANCH   1   3
BRANCH   1  18
ATOM     18  C   UNL     1      35.053 -19.158 -22.889  0.00  0.00    +0.184 C 
BRANCH  18  19
ATOM     19  C   UNL     1      35.536 -19.637 -21.516  0.00  0.00    -0.021 C 
BRANCH  19  20
ATOM     20  N   UNL     1      36.251 -18.540 -20.863  0.00  0.00    +0.384 N 
ATOM     21  H   UNL     1      37.257 -18.706 -20.925  0.00  0.00    -0.089 HD
ATOM     22  H   UNL     1      35.975 -18.490 -19.883  0.00  0.00    -0.089 HD
ATOM     23  H   UNL     1      36.023 -17.661 -21.327  0.00  0.00    -0.089 HD
ENDBRANCH  19  20
BRANCH  19  24
ATOM     24  C   UNL     1      34.360 -20.128 -20.645  0.00  0.00    -0.012 C 
BRANCH  24  26
ATOM     25  N   UNL     1      33.005 -22.622 -18.671  0.00  0.00    -0.270 NA
ATOM     26  C   UNL     1      34.416 -21.608 -20.314  0.00  0.00    +0.046 C 
ATOM     27  C   UNL     1      35.192 -21.926 -19.077  0.00  0.00    -0.007 C 
ATOM     28  C   UNL     1      33.050 -22.119 -19.868  0.00  0.00    +0.130 C 
ATOM     29  C   UNL     1      34.312 -22.518 -18.163  0.00  0.00    +0.071 C 
ATOM     30  C   UNL     1      36.526 -21.732 -18.778  0.00  0.00    -0.024 C 
ATOM     31  C   UNL     1      34.754 -22.926 -16.916  0.00  0.00    +0.014 C 
ATOM     32  C   UNL     1      36.980 -22.141 -17.522  0.00  0.00    +0.052 C 
ATOM     33  C   UNL     1      36.102 -22.732 -16.599  0.00  0.00    -0.020 C 
ENDBRANCH  24  26
ENDBRANCH  19  24
ENDBRANCH  18  19
ENDBRANCH   1  18
TORSDOF 7
ENDMDL
MODEL 4
REMARK VINA RESULT:     -11.8      1.496      2.261
REMARK  Name = 11840906
REMARK  7 active torsions:
REMARK  status: ('A' for Active; 'I' for Inactive)
REMARK    1  A    between atoms: O_1  and  C_3
REMARK    2  A    between atoms: O_1  and  C_18
REMARK    3  A    between atoms: C_5  and  C_9
REMARK    4  A    between atoms: C_18  and  C_19
REMARK    5  A    between atoms: C_19  and  N_20
REMARK    6  A    between atoms: C_19  and  C_24
REMARK    7  A    between atoms: C_24  and  C_26
REMARK                            x       y       z     vdW  Elec       q    Type
REMARK                         _______ _______ _______ _____ _____    ______ ____
ROOT
ATOM      1  O   UNL     1      34.531 -13.908 -23.239  0.00  0.00    -0.476 OA
ENDROOT
BRANCH   1   3
ATOM      2  N   UNL     1      34.181 -16.936 -25.237  0.00  0.00    -0.239 NA
ATOM      3  C   UNL     1      34.552 -15.237 -23.575  0.00  0.00    +0.158 C 
ATOM      4  C   UNL     1      34.943 -16.189 -22.652  0.00  0.00    +0.040 C 
ATOM      5  C   UNL     1      34.954 -17.529 -23.024  0.00  0.00    +0.022 C 
ATOM      6  C   UNL     1      34.184 -15.644 -24.840  0.00  0.00    +0.136 C 
ATOM      7  C   UNL     1      34.567 -17.847 -24.315  0.00  0.00    +0.099 C 
BRANCH   5   9
ATOM      8  N   UNL     1      35.579 -22.418 -18.822  0.00  0.00    -0.242 NA
ATOM      9  C   UNL     1      35.354 -18.556 -22.091  0.00  0.00    +0.002 C 
ATOM     10  C   UNL     1      34.774 -20.424 -20.641  0.00  0.00    +0.003 C 
ATOM     11  C   UNL     1      34.399 -19.422 -21.550  0.00  0.00    +0.000 C 
ATOM     12  C   UNL     1      36.130 -20.549 -20.277  0.00  0.00    +0.019 C 
ATOM     13  C   UNL     1      36.694 -18.684 -21.727  0.00  0.00    +0.000 C 
ATOM     14  C   UNL     1      37.083 -19.675 -20.825  0.00  0.00    +0.002 C 
ATOM     15  C   UNL     1      33.840 -21.306 -20.084  0.00  0.00    +0.021 C 
ATOM     16  C   UNL     1      36.466 -21.557 -19.372  0.00  0.00    +0.099 C 
ATOM     17  C   UNL     1      34.289 -22.269 -19.195  0.00  0.00    +0.099 C 
ENDBRANCH   5   9
ENDBRANCH   1   3
BRANCH   1  18
ATOM     18  C   UNL     1      33.598 -13.087 -23.930  0.00  0.00    +0.184 C 
BRANCH  18  19
ATOM     19  C   UNL     1      34.093 -11.636 -23.943  0.00  0.00    -0.021 C 
BRANCH  19  20
ATOM     20  N   UNL     1      34.918 -11.434 -25.134  0.00  0.00    +0.384 N 
ATOM     21  H   UNL     1      34.540 -11.983 -25.907  0.00  0.00    -0.089 HD
ATOM     22  H   UNL     1      35.874 -11.735 -24.941  0.00  0.00    -0.089 HD
ATOM     23  H   UNL     1      34.916 -10.446 -25.386  0.00  0.00    -0.089 HD
ENDBRANCH  19  20
BRANCH  19  24
ATOM     24  C   UNL     1      32.916 -10.639 -23.909  0.00  0.00    -0.012 C 
BRANCH  24  26
ATOM     25  N   UNL     1      31.299  -8.017 -22.341  0.00  0.00    -0.270 NA
ATOM     26  C   UNL     1      33.049  -9.566 -22.845  0.00  0.00    +0.046 C 
ATOM     27  C   UNL     1      33.374  -8.211 -23.384  0.00  0.00    -0.007 C 
ATOM     28  C   UNL     1      31.696  -9.248 -22.219  0.00  0.00    +0.130 C 
ATOM     29  C   UNL     1      32.316  -7.355 -23.052  0.00  0.00    +0.071 C 
ATOM     30  C   UNL     1      34.479  -7.762 -24.082  0.00  0.00    -0.024 C 
ATOM     31  C   UNL     1      32.341  -6.021 -23.422  0.00  0.00    +0.014 C 
ATOM     32  C   UNL     1      34.511  -6.417 -24.459  0.00  0.00    +0.052 C 
ATOM     33  C   UNL     1      33.451  -5.555 -24.132  0.00  0.00    -0.020 C 
ENDBRANCH  24  26
ENDBRANCH  19  24
ENDBRANCH  18  19
ENDBRANCH   1  18
TORSDOF 7
ENDMDL
MODEL 5
REMARK VINA RESULT:     -11.8      3.344     11.615
REMARK  Name = 11840906
REMARK  7 active torsions:
REMARK  status: ('A' for Active; 'I' for Inactive)
REMARK    1  A    between atoms: O_1  and  C_3
REMARK    2  A    between atoms: O_1  and  C_18
REMARK    3  A    between atoms: C_5  and  C_9
REMARK    4  A    between atoms: C_18  and  C_19
REMARK    5  A    between atoms: C_19  and  N_20
REMARK    6  A    between atoms: C_19  and  C_24
REMARK    7  A    between atoms: C_24  and  C_26
REMARK                            x       y       z     vdW  Elec       q    Type
REMARK                         _______ _______ _______ _____ _____    ______ ____
ROOT
ATOM      1  O   UNL     1      34.948 -22.016 -20.155  0.00  0.00    -0.476 OA
ENDROOT
BRANCH   1   3
ATOM      2  N   UNL     1      37.479 -19.415 -20.490  0.00  0.00    -0.239 NA
ATOM      3  C   UNL     1      35.578 -20.884 -20.603  0.00  0.00    +0.158 C 
ATOM      4  C   UNL     1      34.993 -20.092 -21.574  0.00  0.00    +0.040 C 
ATOM      5  C   UNL     1      35.656 -18.950 -22.008  0.00  0.00    +0.022 C 
ATOM      6  C   UNL     1      36.805 -20.518 -20.093  0.00  0.00    +0.136 C 
ATOM      7  C   UNL     1      36.885 -18.658 -21.440  0.00  0.00    +0.099 C 
BRANCH   5   9
ATOM      8  N   UNL     1      33.235 -14.237 -25.732  0.00  0.00    -0.242 NA
ATOM      9  C   UNL     1      35.081 -18.094 -23.019  0.00  0.00    +0.002 C 
ATOM     10  C   UNL     1      34.362 -15.884 -23.746  0.00  0.00    +0.003 C 
ATOM     11  C   UNL     1      34.921 -16.728 -22.772  0.00  0.00    +0.000 C 
ATOM     12  C   UNL     1      33.961 -16.433 -24.981  0.00  0.00    +0.019 C 
ATOM     13  C   UNL     1      34.681 -18.631 -24.243  0.00  0.00    +0.000 C 
ATOM     14  C   UNL     1      34.124 -17.807 -25.221  0.00  0.00    +0.002 C 
ATOM     15  C   UNL     1      34.191 -14.512 -23.527  0.00  0.00    +0.021 C 
ATOM     16  C   UNL     1      33.410 -15.564 -25.924  0.00  0.00    +0.099 C 
ATOM     17  C   UNL     1      33.632 -13.746 -24.538  0.00  0.00    +0.099 C 
ENDBRANCH   5   9
ENDBRANCH   1   3
BRANCH   1  18
ATOM     18  C   UNL     1      35.115 -22.340 -18.781  0.00  0.00    +0.184 C 
BRANCH  18  19
ATOM     19  C   UNL     1      33.748 -22.398 -18.091  0.00  0.00    -0.021 C 
BRANCH  19  20
ATOM     20  N   UNL     1      32.707 -22.442 -19.119  0.00  0.00    +0.384 N 
ATOM     21  H   UNL     1      32.644 -23.387 -19.499  0.00  0.00    -0.089 HD
ATOM     22  H   UNL     1      32.940 -21.789 -19.867  0.00  0.00    -0.089 HD
ATOM     23  H   UNL     1      31.811 -22.181 -18.707  0.00  0.00    -0.089 HD
ENDBRANCH  19  20
BRANCH  19  24
ATOM     24  C   UNL     1      33.644 -23.614 -17.146  0.00  0.00    -0.012 C 
BRANCH  24  26
ATOM     25  N   UNL     1      32.677 -24.948 -14.107  0.00  0.00    -0.270 NA
ATOM     26  C   UNL     1      32.979 -23.305 -15.817  0.00  0.00    +0.046 C 
ATOM     27  C   UNL     1      31.548 -23.728 -15.740  0.00  0.00    -0.007 C 
ATOM     28  C   UNL     1      33.542 -24.187 -14.708  0.00  0.00    +0.130 C 
ATOM     29  C   UNL     1      31.441 -24.683 -14.722  0.00  0.00    +0.071 C 
ATOM     30  C   UNL     1      30.449 -23.320 -16.471  0.00  0.00    -0.024 C 
ATOM     31  C   UNL     1      30.219 -25.258 -14.416  0.00  0.00    +0.014 C 
ATOM     32  C   UNL     1      29.213 -23.896 -16.168  0.00  0.00    +0.052 C 
ATOM     33  C   UNL     1      29.099 -24.857 -15.150  0.00  0.00    -0.020 C 
ENDBRANCH  24  26
ENDBRANCH  19  24
ENDBRANCH  18  19
ENDBRANCH   1  18
TORSDOF 7
ENDMDL
MODEL 6
REMARK VINA RESULT:     -11.8      4.847     12.446
REMARK  Name = 11840906
REMARK  7 active torsions:
REMARK  status: ('A' for Active; 'I' for Inactive)
REMARK    1  A    between atoms: O_1  and  C_3
REMARK    2  A    between atoms: O_1  and  C_18
REMARK    3  A    between atoms: C_5  and  C_9
REMARK    4  A    between atoms: C_18  and  C_19
REMARK    5  A    between atoms: C_19  and  N_20
REMARK    6  A    between atoms: C_19  and  C_24
REMARK    7  A    between atoms: C_24  and  C_26
REMARK                            x       y       z     vdW  Elec       q    Type
REMARK                         _______ _______ _______ _____ _____    ______ ____
ROOT
ATOM      1  O   UNL     1      33.262 -22.741 -18.637  0.00  0.00    -0.476 OA
ENDROOT
BRANCH   1   3
ATOM      2  N   UNL     1      36.705 -21.616 -19.055  0.00  0.00    -0.239 NA
ATOM      3  C   UNL     1      34.338 -22.043 -19.122  0.00  0.00    +0.158 C 
ATOM      4  C   UNL     1      34.172 -21.101 -20.121  0.00  0.00    +0.040 C 
ATOM      5  C   UNL     1      35.282 -20.409 -20.593  0.00  0.00    +0.022 C 
ATOM      6  C   UNL     1      35.603 -22.269 -18.623  0.00  0.00    +0.136 C 
ATOM      7  C   UNL     1      36.514 -20.700 -20.032  0.00  0.00    +0.099 C 
BRANCH   5   9
ATOM      8  N   UNL     1      34.125 -16.827 -25.863  0.00  0.00    -0.242 NA
ATOM      9  C   UNL     1      35.153 -19.416 -21.634  0.00  0.00    +0.002 C 
ATOM     10  C   UNL     1      34.363 -18.778 -23.847  0.00  0.00    +0.003 C 
ATOM     11  C   UNL     1      34.495 -19.733 -22.825  0.00  0.00    +0.000 C 
ATOM     12  C   UNL     1      34.903 -17.491 -23.657  0.00  0.00    +0.019 C 
ATOM     13  C   UNL     1      35.686 -18.141 -21.451  0.00  0.00    +0.000 C 
ATOM     14  C   UNL     1      35.563 -17.180 -22.456  0.00  0.00    +0.002 C 
ATOM     15  C   UNL     1      33.709 -19.068 -25.051  0.00  0.00    +0.021 C 
ATOM     16  C   UNL     1      34.753 -16.568 -24.693  0.00  0.00    +0.099 C 
ATOM     17  C   UNL     1      33.620 -18.071 -26.010  0.00  0.00    +0.099 C 
ENDBRANCH   5   9
ENDBRANCH   1   3
BRANCH   1  18
ATOM     18  C   UNL     1      33.535 -23.742 -17.665  0.00  0.00    +0.184 C 
BRANCH  18  19
ATOM     19  C   UNL     1      33.161 -23.226 -16.271  0.00  0.00    -0.021 C 
BRANCH  19  20
ATOM     20  N   UNL     1      32.046 -24.024 -15.761  0.00  0.00    +0.384 N 
ATOM     21  H   UNL     1      32.406 -24.767 -15.161  0.00  0.00    -0.089 HD
ATOM     22  H   UNL     1      31.537 -24.436 -16.543  0.00  0.00    -0.089 HD
ATOM     23  H   UNL     1      31.418 -23.427 -15.223  0.00  0.00    -0.089 HD
ENDBRANCH  19  20
BRANCH  19  24
ATOM     24  C   UNL     1      34.367 -23.279 -15.308  0.00  0.00    -0.012 C 
BRANCH  24  26
ATOM     25  N   UNL     1      34.864 -24.550 -12.132  0.00  0.00    -0.270 NA
ATOM     26  C   UNL     1      34.441 -24.552 -14.486  0.00  0.00    +0.046 C 
ATOM     27  C   UNL     1      35.834 -25.012 -14.200  0.00  0.00    -0.007 C 
ATOM     28  C   UNL     1      33.981 -24.302 -13.053  0.00  0.00    +0.130 C 
ATOM     29  C   UNL     1      36.013 -24.991 -12.812  0.00  0.00    +0.071 C 
ATOM     30  C   UNL     1      36.840 -25.418 -15.056  0.00  0.00    -0.024 C 
ATOM     31  C   UNL     1      37.218 -25.374 -12.248  0.00  0.00    +0.014 C 
ATOM     32  C   UNL     1      38.058 -25.805 -14.494  0.00  0.00    +0.052 C 
ATOM     33  C   UNL     1      38.246 -25.783 -13.102  0.00  0.00    -0.020 C 
ENDBRANCH  24  26
ENDBRANCH  19  24
ENDBRANCH  18  19
ENDBRANCH   1  18
TORSDOF 7
ENDMDL
MODEL 7
REMARK VINA RESULT:     -11.6      1.631     10.726
REMARK  Name = 11840906
REMARK  7 active torsions:
REMARK  status: ('A' for Active; 'I' for Inactive)
REMARK    1  A    between atoms: O_1  and  C_3
REMARK    2  A    between atoms: O_1  and  C_18
REMARK    3  A    between atoms: C_5  and  C_9
REMARK    4  A    between atoms: C_18  and  C_19
REMARK    5  A    between atoms: C_19  and  N_20
REMARK    6  A    between atoms: C_19  and  C_24
REMARK    7  A    between atoms: C_24  and  C_26
REMARK                            x       y       z     vdW  Elec       q    Type
REMARK                         _______ _______ _______ _____ _____    ______ ____
ROOT
ATOM      1  O   UNL     1      35.667 -17.841 -23.169  0.00  0.00    -0.476 OA
ENDROOT
BRANCH   1   3
ATOM      2  N   UNL     1      33.759 -16.444 -25.943  0.00  0.00    -0.239 NA
ATOM      3  C   UNL     1      34.913 -16.956 -23.896  0.00  0.00    +0.158 C 
ATOM      4  C   UNL     1      34.553 -15.733 -23.358  0.00  0.00    +0.040 C 
ATOM      5  C   UNL     1      33.789 -14.856 -24.120  0.00  0.00    +0.022 C 
ATOM      6  C   UNL     1      34.502 -17.270 -25.173  0.00  0.00    +0.136 C 
ATOM      7  C   UNL     1      33.421 -15.255 -25.394  0.00  0.00    +0.099 C 
BRANCH   5   9
ATOM      8  N   UNL     1      32.796  -8.645 -22.580  0.00  0.00    -0.242 NA
ATOM      9  C   UNL     1      33.392 -13.569 -23.598  0.00  0.00    +0.002 C 
ATOM     10  C   UNL     1      33.584 -11.142 -23.615  0.00  0.00    +0.003 C 
ATOM     11  C   UNL     1      33.959 -12.400 -24.114  0.00  0.00    +0.000 C 
ATOM     12  C   UNL     1      32.625 -11.070 -22.584  0.00  0.00    +0.019 C 
ATOM     13  C   UNL     1      32.445 -13.492 -22.578  0.00  0.00    +0.000 C 
ATOM     14  C   UNL     1      32.061 -12.250 -22.072  0.00  0.00    +0.002 C 
ATOM     15  C   UNL     1      34.134  -9.954 -24.112  0.00  0.00    +0.021 C 
ATOM     16  C   UNL     1      32.276  -9.803 -22.114  0.00  0.00    +0.099 C 
ATOM     17  C   UNL     1      33.710  -8.752 -23.568  0.00  0.00    +0.099 C 
ENDBRANCH   5   9
ENDBRANCH   1   3
BRANCH   1  18
ATOM     18  C   UNL     1      35.067 -19.095 -22.869  0.00  0.00    +0.184 C 
BRANCH  18  19
ATOM     19  C   UNL     1      35.533 -19.576 -21.491  0.00  0.00    -0.021 C 
BRANCH  19  20
ATOM     20  N   UNL     1      36.239 -18.480 -20.826  0.00  0.00    +0.384 N 
ATOM     21  H   UNL     1      36.875 -18.035 -21.489  0.00  0.00    -0.089 HD
ATOM     22  H   UNL     1      36.772 -18.847 -20.038  0.00  0.00    -0.089 HD
ATOM     23  H   UNL     1      35.563 -17.794 -20.491  0.00  0.00    -0.089 HD
ENDBRANCH  19  20
BRANCH  19  24
ATOM     24  C   UNL     1      34.347 -20.070 -20.635  0.00  0.00    -0.012 C 
BRANCH  24  26
ATOM     25  N   UNL     1      32.999 -22.567 -18.661  0.00  0.00    -0.270 NA
ATOM     26  C   UNL     1      34.393 -21.553 -20.318  0.00  0.00    +0.046 C 
ATOM     27  C   UNL     1      35.186 -21.890 -19.097  0.00  0.00    -0.007 C 
ATOM     28  C   UNL     1      33.029 -22.054 -19.854  0.00  0.00    +0.130 C 
ATOM     29  C   UNL     1      34.315 -22.481 -18.173  0.00  0.00    +0.071 C 
ATOM     30  C   UNL     1      36.527 -21.713 -18.819  0.00  0.00    -0.024 C 
ATOM     31  C   UNL     1      34.774 -22.904 -16.938  0.00  0.00    +0.014 C 
ATOM     32  C   UNL     1      36.997 -22.137 -17.575  0.00  0.00    +0.052 C 
ATOM     33  C   UNL     1      36.128 -22.727 -16.642  0.00  0.00    -0.020 C 
ENDBRANCH  24  26
ENDBRANCH  19  24
ENDBRANCH  18  19
ENDBRANCH   1  18
TORSDOF 7
ENDMDL
MODEL 8
REMARK VINA RESULT:     -11.5      3.295      6.452
REMARK  Name = 11840906
REMARK  7 active torsions:
REMARK  status: ('A' for Active; 'I' for Inactive)
REMARK    1  A    between atoms: O_1  and  C_3
REMARK    2  A    between atoms: O_1  and  C_18
REMARK    3  A    between atoms: C_5  and  C_9
REMARK    4  A    between atoms: C_18  and  C_19
REMARK    5  A    between atoms: C_19  and  N_20
REMARK    6  A    between atoms: C_19  and  C_24
REMARK    7  A    between atoms: C_24  and  C_26
REMARK                            x       y       z     vdW  Elec       q    Type
REMARK                         _______ _______ _______ _____ _____    ______ ____
ROOT
ATOM      1  O   UNL     1      31.657 -10.232 -21.795  0.00  0.00    -0.476 OA
ENDROOT
BRANCH   1   3
ATOM      2  N   UNL     1      34.017 -10.284 -24.573  0.00  0.00    -0.239 NA
ATOM      3  C   UNL     1      32.505 -10.723 -22.755  0.00  0.00    +0.158 C 
ATOM      4  C   UNL     1      32.707 -12.085 -22.883  0.00  0.00    +0.040 C 
ATOM      5  C   UNL     1      33.573 -12.553 -23.866  0.00  0.00    +0.022 C 
ATOM      6  C   UNL     1      33.169  -9.867 -23.606  0.00  0.00    +0.136 C 
ATOM      7  C   UNL     1      34.197 -11.620 -24.677  0.00  0.00    +0.099 C 
BRANCH   5   9
ATOM      8  N   UNL     1      35.204 -18.812 -23.559  0.00  0.00    -0.242 NA
ATOM      9  C   UNL     1      33.812 -13.967 -24.035  0.00  0.00    +0.002 C 
ATOM     10  C   UNL     1      34.748 -16.056 -23.206  0.00  0.00    +0.003 C 
ATOM     11  C   UNL     1      34.507 -14.681 -23.055  0.00  0.00    +0.000 C 
ATOM     12  C   UNL     1      34.280 -16.712 -24.363  0.00  0.00    +0.019 C 
ATOM     13  C   UNL     1      33.352 -14.620 -25.177  0.00  0.00    +0.000 C 
ATOM     14  C   UNL     1      33.583 -15.986 -25.343  0.00  0.00    +0.002 C 
ATOM     15  C   UNL     1      35.440 -16.798 -22.241  0.00  0.00    +0.021 C 
ATOM     16  C   UNL     1      34.537 -18.079 -24.479  0.00  0.00    +0.099 C 
ATOM     17  C   UNL     1      35.637 -18.151 -22.464  0.00  0.00    +0.099 C 
ENDBRANCH   5   9
ENDBRANCH   1   3
BRANCH   1  18
ATOM     18  C   UNL     1      32.254  -9.776 -20.588  0.00  0.00    +0.184 C 
BRANCH  18  19
ATOM     19  C   UNL     1      32.001  -8.274 -20.420  0.00  0.00    -0.021 C 
BRANCH  19  20
ATOM     20  N   UNL     1      33.208  -7.655 -19.871  0.00  0.00    +0.384 N 
ATOM     21  H   UNL     1      32.945  -6.925 -19.208  0.00  0.00    -0.089 HD
ATOM     22  H   UNL     1      33.754  -7.244 -20.628  0.00  0.00    -0.089 HD
ATOM     23  H   UNL     1      33.766  -8.362 -19.394  0.00  0.00    -0.089 HD
ENDBRANCH  19  20
BRANCH  19  24
ATOM     24  C   UNL     1      31.600  -7.616 -21.758  0.00  0.00    -0.012 C 
BRANCH  24  26
ATOM     25  N   UNL     1      30.811  -4.555 -23.157  0.00  0.00    -0.270 NA
ATOM     26  C   UNL     1      32.035  -6.168 -21.885  0.00  0.00    +0.046 C 
ATOM     27  C   UNL     1      32.744  -5.856 -23.163  0.00  0.00    -0.007 C 
ATOM     28  C   UNL     1      30.830  -5.250 -22.059  0.00  0.00    +0.130 C 
ATOM     29  C   UNL     1      31.980  -4.908 -23.854  0.00  0.00    +0.071 C 
ATOM     30  C   UNL     1      33.935  -6.337 -23.671  0.00  0.00    -0.024 C 
ATOM     31  C   UNL     1      32.395  -4.422 -25.082  0.00  0.00    +0.014 C 
ATOM     32  C   UNL     1      34.360  -5.852 -24.910  0.00  0.00    +0.052 C 
ATOM     33  C   UNL     1      33.597  -4.903 -25.610  0.00  0.00    -0.020 C 
ENDBRANCH  24  26
ENDBRANCH  19  24
ENDBRANCH  18  19
ENDBRANCH   1  18
TORSDOF 7
ENDMDL
MODEL 9
REMARK VINA RESULT:     -11.5      3.690      7.139
REMARK  Name = 11840906
REMARK  7 active torsions:
REMARK  status: ('A' for Active; 'I' for Inactive)
REMARK    1  A    between atoms: O_1  and  C_3
REMARK    2  A    between atoms: O_1  and  C_18
REMARK    3  A    between atoms: C_5  and  C_9
REMARK    4  A    between atoms: C_18  and  C_19
REMARK    5  A    between atoms: C_19  and  N_20
REMARK    6  A    between atoms: C_19  and  C_24
REMARK    7  A    between atoms: C_24  and  C_26
REMARK                            x       y       z     vdW  Elec       q    Type
REMARK                         _______ _______ _______ _____ _____    ______ ____
ROOT
ATOM      1  O   UNL     1      35.525 -21.264 -20.028  0.00  0.00    -0.476 OA
ENDROOT
BRANCH   1   3
ATOM      2  N   UNL     1      33.051 -23.106 -18.086  0.00  0.00    -0.239 NA
ATOM      3  C   UNL     1      34.971 -21.982 -18.999  0.00  0.00    +0.158 C 
ATOM      4  C   UNL     1      35.720 -22.301 -17.882  0.00  0.00    +0.040 C 
ATOM      5  C   UNL     1      35.130 -23.030 -16.855  0.00  0.00    +0.022 C 
ATOM      6  C   UNL     1      33.658 -22.397 -19.063  0.00  0.00    +0.136 C 
ATOM      7  C   UNL     1      33.805 -23.405 -17.004  0.00  0.00    +0.099 C 
BRANCH   5   9
ATOM      8  N   UNL     1      37.395 -24.646 -11.007  0.00  0.00    -0.242 NA
ATOM      9  C   UNL     1      35.876 -23.384 -15.670  0.00  0.00    +0.002 C 
ATOM     10  C   UNL     1      35.919 -23.959 -13.304  0.00  0.00    +0.003 C 
ATOM     11  C   UNL     1      35.207 -23.616 -14.465  0.00  0.00    +0.000 C 
ATOM     12  C   UNL     1      37.323 -24.069 -13.368  0.00  0.00    +0.019 C 
ATOM     13  C   UNL     1      37.265 -23.492 -15.726  0.00  0.00    +0.000 C 
ATOM     14  C   UNL     1      37.987 -23.833 -14.582  0.00  0.00    +0.002 C 
ATOM     15  C   UNL     1      35.275 -24.198 -12.084  0.00  0.00    +0.021 C 
ATOM     16  C   UNL     1      37.997 -24.412 -12.195  0.00  0.00    +0.099 C 
ATOM     17  C   UNL     1      36.049 -24.534 -10.984  0.00  0.00    +0.099 C 
ENDBRANCH   5   9
ENDBRANCH   1   3
BRANCH   1  18
ATOM     18  C   UNL     1      34.634 -20.492 -20.822  0.00  0.00    +0.184 C 
BRANCH  18  19
ATOM     19  C   UNL     1      35.263 -19.129 -21.130  0.00  0.00    -0.021 C 
BRANCH  19  20
ATOM     20  N   UNL     1      36.707 -19.221 -20.918  0.00  0.00    +0.384 N 
ATOM     21  H   UNL     1      37.142 -19.666 -21.727  0.00  0.00    -0.089 HD
ATOM     22  H   UNL     1      36.894 -19.777 -20.083  0.00  0.00    -0.089 HD
ATOM     23  H   UNL     1      37.094 -18.285 -20.797  0.00  0.00    -0.089 HD
ENDBRANCH  19  20
BRANCH  19  24
ATOM     24  C   UNL     1      34.942 -18.672 -22.570  0.00  0.00    -0.012 C 
BRANCH  24  26
ATOM     25  N   UNL     1      34.688 -15.268 -22.029  0.00  0.00    -0.270 NA
ATOM     26  C   UNL     1      35.525 -17.319 -22.930  0.00  0.00    +0.046 C 
ATOM     27  C   UNL     1      34.740 -16.573 -23.959  0.00  0.00    -0.007 C 
ATOM     28  C   UNL     1      35.379 -16.337 -21.771  0.00  0.00    +0.130 C 
ATOM     29  C   UNL     1      34.285 -15.386 -23.371  0.00  0.00    +0.071 C 
ATOM     30  C   UNL     1      34.457 -16.884 -25.275  0.00  0.00    -0.024 C 
ATOM     31  C   UNL     1      33.525 -14.483 -24.094  0.00  0.00    +0.014 C 
ATOM     32  C   UNL     1      33.691 -15.978 -26.011  0.00  0.00    +0.052 C 
ATOM     33  C   UNL     1      33.229 -14.788 -25.425  0.00  0.00    -0.020 C 
ENDBRANCH  24  26
ENDBRANCH  19  24
ENDBRANCH  18  19
ENDBRANCH   1  18
TORSDOF 7
ENDMDL
