MODEL 1
REMARK VINA RESULT:     -11.7      0.000      0.000
REMARK  Name = 3168
REMARK  6 active torsions:
REMARK  status: ('A' for Active; 'I' for Inactive)
REMARK    1  A    between atoms: N_1  and  C_19
REMARK    2  A    between atoms: C_5  and  N_9
REMARK    3  A    between atoms: C_19  and  C_20
REMARK    4  A    between atoms: C_20  and  C_21
REMARK    5  A    between atoms: C_21  and  C_23
REMARK    6  A    between atoms: C_23  and  C_25
REMARK                            x       y       z     vdW  Elec       q    Type
REMARK                         _______ _______ _______ _____ _____    ______ ____
ROOT
ATOM      1  N   UNL     1      34.045 -16.404 -24.263  0.00  0.00    +0.390 N 
ATOM      2  C   UNL     1      35.041 -15.714 -23.434  0.00  0.00    -0.071 C 
ATOM      3  C   UNL     1      34.394 -14.529 -22.700  0.00  0.00    +0.021 C 
ATOM      4  C   UNL     1      33.523 -15.510 -25.309  0.00  0.00    -0.049 C 
ATOM      5  C   UNL     1      33.517 -13.701 -23.597  0.00  0.00    +0.037 C 
ATOM      6  C   UNL     1      33.132 -14.149 -24.802  0.00  0.00    -0.036 C 
ATOM      7  H   UNL     1      33.271 -16.676 -23.658  0.00  0.00    -0.079 HD
ENDROOT
BRANCH   5   9
ATOM      8  O   UNL     1      31.487 -13.021 -21.507  0.00  0.00    -0.246 OA
ATOM      9  N   UNL     1      33.145 -12.470 -23.141  0.00  0.00    -0.263 N 
ATOM     10  N   UNL     1      32.112 -10.796 -21.988  0.00  0.00    -0.305 N 
ATOM     11  C   UNL     1      33.662 -11.236 -23.579  0.00  0.00    +0.083 A 
ATOM     12  C   UNL     1      32.160 -12.211 -22.131  0.00  0.00    +0.332 A 
ATOM     13  C   UNL     1      33.025 -10.220 -22.869  0.00  0.00    +0.076 A 
ATOM     14  C   UNL     1      34.623 -10.949 -24.528  0.00  0.00    +0.019 C 
ATOM     15  C   UNL     1      33.308  -8.887 -23.065  0.00  0.00    +0.019 C 
ATOM     16  C   UNL     1      34.928  -9.601 -24.746  0.00  0.00    +0.002 C 
ATOM     17  C   UNL     1      34.278  -8.581 -24.022  0.00  0.00    +0.002 C 
ATOM     18  H   UNL     1      31.528 -10.303 -21.367  0.00  0.00    +0.170 HD
ENDBRANCH   5   9
BRANCH   1  19
ATOM     19  C   UNL     1      34.604 -17.620 -24.853  0.00  0.00    -0.076 C 
BRANCH  19  20
ATOM     20  C   UNL     1      34.227 -18.838 -24.008  0.00  0.00    -0.015 C 
BRANCH  20  21
ATOM     21  C   UNL     1      35.406 -19.359 -23.181  0.00  0.00    +0.067 C 
BRANCH  21  23
ATOM     22  O   UNL     1      35.446 -18.010 -21.179  0.00  0.00    -0.291 OA
ATOM     23  C   UNL     1      35.251 -19.112 -21.687  0.00  0.00    +0.173 C 
BRANCH  23  25
ATOM     24  F   UNL     1      33.664 -23.353 -18.420  0.00  0.00    -0.204 F 
ATOM     25  C   UNL     1      34.828 -20.246 -20.816  0.00  0.00    +0.035 C 
ATOM     26  C   UNL     1      33.482 -20.480 -20.644  0.00  0.00    +0.005 C 
ATOM     27  C   UNL     1      35.798 -21.015 -20.213  0.00  0.00    +0.005 C 
ATOM     28  C   UNL     1      33.085 -21.539 -19.827  0.00  0.00    +0.030 C 
ATOM     29  C   UNL     1      35.402 -22.074 -19.396  0.00  0.00    +0.030 C 
ATOM     30  C   UNL     1      34.045 -22.336 -19.203  0.00  0.00    +0.140 C 
ENDBRANCH  23  25
ENDBRANCH  21  23
ENDBRANCH  20  21
ENDBRANCH  19  20
ENDBRANCH   1  19
TORSDOF 6
ENDMDL
MODEL 2
REMARK VINA RESULT:     -11.7      3.814      9.960
REMARK  Name = 3168
REMARK  6 active torsions:
REMARK  status: ('A' for Active; 'I' for Inactive)
REMARK    1  A    between atoms: N_1  and  C_19
REMARK    2  A    between atoms: C_5  and  N_9
REMARK    3  A    between atoms: C_19  and  C_20
REMARK    4  A    between atoms: C_20  and  C_21
REMARK    5  A    between atoms: C_21  and  C_23
REMARK    6  A    between atoms: C_23  and  C_25
REMARK                            x       y       z     vdW  Elec       q    Type
REMARK                         _______ _______ _______ _____ _____    ______ ____
ROOT
ATOM      1  N   UNL     1      34.192 -16.178 -23.974  0.00  0.00    +0.390 N 
ATOM      2  C   UNL     1      34.831 -17.329 -24.624  0.00  0.00    -0.071 C 
ATOM      3  C   UNL     1      34.872 -18.528 -23.663  0.00  0.00    +0.021 C 
ATOM      4  C   UNL     1      34.970 -15.740 -22.803  0.00  0.00    -0.049 C 
ATOM      5  C   UNL     1      35.325 -18.148 -22.282  0.00  0.00    +0.037 C 
ATOM      6  C   UNL     1      35.384 -16.865 -21.895  0.00  0.00    -0.036 C 
ATOM      7  H   UNL     1      33.270 -16.473 -23.654  0.00  0.00    -0.079 HD
ENDROOT
BRANCH   5   9
ATOM      8  O   UNL     1      38.066 -18.908 -21.353  0.00  0.00    -0.246 OA
ATOM      9  N   UNL     1      35.690 -19.163 -21.445  0.00  0.00    -0.263 N 
ATOM     10  N   UNL     1      36.920 -20.600 -20.172  0.00  0.00    -0.305 N 
ATOM     11  C   UNL     1      34.817 -20.083 -20.833  0.00  0.00    +0.083 A 
ATOM     12  C   UNL     1      37.029 -19.475 -21.037  0.00  0.00    +0.332 A 
ATOM     13  C   UNL     1      35.578 -20.956 -20.059  0.00  0.00    +0.076 A 
ATOM     14  C   UNL     1      33.444 -20.206 -20.906  0.00  0.00    +0.019 C 
ATOM     15  C   UNL     1      35.018 -21.980 -19.327  0.00  0.00    +0.019 C 
ATOM     16  C   UNL     1      32.851 -21.239 -20.172  0.00  0.00    +0.002 C 
ATOM     17  C   UNL     1      33.630 -22.117 -19.391  0.00  0.00    +0.002 C 
ATOM     18  H   UNL     1      37.672 -21.053 -19.726  0.00  0.00    +0.170 HD
ENDBRANCH   5   9
BRANCH   1  19
ATOM     19  C   UNL     1      34.012 -15.076 -24.918  0.00  0.00    -0.076 C 
BRANCH  19  20
ATOM     20  C   UNL     1      33.094 -14.011 -24.316  0.00  0.00    -0.015 C 
BRANCH  20  21
ATOM     21  C   UNL     1      33.878 -12.865 -23.670  0.00  0.00    +0.067 C 
BRANCH  21  23
ATOM     22  O   UNL     1      34.141 -11.674 -25.753  0.00  0.00    -0.291 OA
ATOM     23  C   UNL     1      33.952 -11.618 -24.540  0.00  0.00    +0.173 C 
BRANCH  23  25
ATOM     24  F   UNL     1      33.274  -6.630 -22.123  0.00  0.00    -0.204 F 
ATOM     25  C   UNL     1      33.770 -10.286 -23.895  0.00  0.00    +0.035 C 
ATOM     26  C   UNL     1      34.740  -9.326 -24.078  0.00  0.00    +0.005 C 
ATOM     27  C   UNL     1      32.640 -10.065 -23.141  0.00  0.00    +0.005 C 
ATOM     28  C   UNL     1      34.571  -8.080 -23.474  0.00  0.00    +0.030 C 
ATOM     29  C   UNL     1      32.471  -8.820 -22.536  0.00  0.00    +0.030 C 
ATOM     30  C   UNL     1      33.437  -7.826 -22.703  0.00  0.00    +0.140 C 
ENDBRANCH  23  25
ENDBRANCH  21  23
ENDBRANCH  20  21
ENDBRANCH  19  20
ENDBRANCH   1  19
TORSDOF 6
ENDMDL
MODEL 3
REMARK VINA RESULT:     -11.6      1.411      2.143
REMARK  Name = 3168
REMARK  6 active torsions:
REMARK  status: ('A' for Active; 'I' for Inactive)
REMARK    1  A    between atoms: N_1  and  C_19
REMARK    2  A    between atoms: C_5  and  N_9
REMARK    3  A    between atoms: C_19  and  C_20
REMARK    4  A    between atoms: C_20  and  C_21
REMARK    5  A    between atoms: C_21  and  C_23
REMARK    6  A    between atoms: C_23  and  C_25
REMARK                            x       y       z     vdW  Elec       q    Type
REMARK                         _______ _______ _______ _____ _____    ______ ____
ROOT
ATOM      1  N   UNL     1      33.865 -16.370 -24.332  0.00  0.00    +0.390 N 
ATOM      2  C   UNL     1      34.932 -15.696 -23.582  0.00  0.00    -0.071 C 
ATOM      3  C   UNL     1      34.430 -14.351 -23.033  0.00  0.00    +0.021 C 
ATOM      4  C   UNL     1      33.464 -15.573 -25.503  0.00  0.00    -0.049 C 
ATOM      5  C   UNL     1      33.667 -13.557 -24.056  0.00  0.00    +0.037 C 
ATOM      6  C   UNL     1      33.239 -14.117 -25.197  0.00  0.00    -0.036 C 
ATOM      7  H   UNL     1      33.058 -16.460 -23.714  0.00  0.00    -0.079 HD
ENDROOT
BRANCH   5   9
ATOM      8  O   UNL     1      34.727 -11.149 -25.481  0.00  0.00    -0.246 OA
ATOM      9  N   UNL     1      33.445 -12.238 -23.781  0.00  0.00    -0.263 N 
ATOM     10  N   UNL     1      33.485  -9.960 -23.864  0.00  0.00    -0.305 N 
ATOM     11  C   UNL     1      32.645 -11.736 -22.737  0.00  0.00    +0.083 A 
ATOM     12  C   UNL     1      33.986 -11.126 -24.507  0.00  0.00    +0.332 A 
ATOM     13  C   UNL     1      32.676 -10.344 -22.797  0.00  0.00    +0.076 A 
ATOM     14  C   UNL     1      31.914 -12.392 -21.768  0.00  0.00    +0.019 C 
ATOM     15  C   UNL     1      31.990  -9.547 -21.906  0.00  0.00    +0.019 C 
ATOM     16  C   UNL     1      31.209 -11.605 -20.851  0.00  0.00    +0.002 C 
ATOM     17  C   UNL     1      31.247 -10.197 -20.920  0.00  0.00    +0.002 C 
ATOM     18  H   UNL     1      33.678  -9.032 -24.131  0.00  0.00    +0.170 HD
ENDBRANCH   5   9
BRANCH   1  19
ATOM     19  C   UNL     1      34.275 -17.713 -24.736  0.00  0.00    -0.076 C 
BRANCH  19  20
ATOM     20  C   UNL     1      35.304 -18.270 -23.751  0.00  0.00    -0.015 C 
BRANCH  20  21
ATOM     21  C   UNL     1      34.735 -19.408 -22.897  0.00  0.00    +0.067 C 
BRANCH  21  23
ATOM     22  O   UNL     1      36.079 -18.588 -21.067  0.00  0.00    -0.291 OA
ATOM     23  C   UNL     1      35.283 -19.430 -21.477  0.00  0.00    +0.173 C 
BRANCH  23  25
ATOM     24  F   UNL     1      33.546 -23.437 -17.999  0.00  0.00    -0.204 F 
ATOM     25  C   UNL     1      34.820 -20.501 -20.550  0.00  0.00    +0.035 C 
ATOM     26  C   UNL     1      33.467 -20.710 -20.406  0.00  0.00    +0.005 C 
ATOM     27  C   UNL     1      35.761 -21.240 -19.869  0.00  0.00    +0.005 C 
ATOM     28  C   UNL     1      33.032 -21.711 -19.536  0.00  0.00    +0.030 C 
ATOM     29  C   UNL     1      35.328 -22.240 -18.999  0.00  0.00    +0.030 C 
ATOM     30  C   UNL     1      33.963 -22.476 -18.833  0.00  0.00    +0.140 C 
ENDBRANCH  23  25
ENDBRANCH  21  23
ENDBRANCH  20  21
ENDBRANCH  19  20
ENDBRANCH   1  19
TORSDOF 6
ENDMDL
MODEL 4
REMARK VINA RESULT:     -11.4      3.704      9.537
REMARK  Name = 3168
REMARK  6 active torsions:
REMARK  status: ('A' for Active; 'I' for Inactive)
REMARK    1  A    between atoms: N_1  and  C_19
REMARK    2  A    between atoms: C_5  and  N_9
REMARK    3  A    between atoms: C_19  and  C_20
REMARK    4  A    between atoms: C_20  and  C_21
REMARK    5  A    between atoms: C_21  and  C_23
REMARK    6  A    between atoms: C_23  and  C_25
REMARK                            x       y       z     vdW  Elec       q    Type
REMARK                         _______ _______ _______ _____ _____    ______ ____
ROOT
ATOM      1  N   UNL     1      34.249 -15.982 -23.413  0.00  0.00    +0.390 N 
ATOM      2  C   UNL     1      35.027 -16.982 -24.155  0.00  0.00    -0.071 C 
ATOM      3  C   UNL     1      35.066 -18.309 -23.380  0.00  0.00    +0.021 C 
ATOM      4  C   UNL     1      34.881 -15.683 -22.117  0.00  0.00    -0.049 C 
ATOM      5  C   UNL     1      35.361 -18.118 -21.919  0.00  0.00    +0.037 C 
ATOM      6  C   UNL     1      35.291 -16.907 -21.346  0.00  0.00    -0.036 C 
ATOM      7  H   UNL     1      33.325 -16.375 -23.235  0.00  0.00    -0.079 HD
ENDROOT
BRANCH   5   9
ATOM      8  O   UNL     1      38.105 -19.045 -21.168  0.00  0.00    -0.246 OA
ATOM      9  N   UNL     1      35.721 -19.226 -21.207  0.00  0.00    -0.263 N 
ATOM     10  N   UNL     1      36.945 -20.821 -20.134  0.00  0.00    -0.305 N 
ATOM     11  C   UNL     1      34.839 -20.181 -20.666  0.00  0.00    +0.083 A 
ATOM     12  C   UNL     1      37.061 -19.615 -20.879  0.00  0.00    +0.332 A 
ATOM     13  C   UNL     1      35.597 -21.151 -20.014  0.00  0.00    +0.076 A 
ATOM     14  C   UNL     1      33.461 -20.258 -20.706  0.00  0.00    +0.019 C 
ATOM     15  C   UNL     1      35.028 -22.232 -19.376  0.00  0.00    +0.019 C 
ATOM     16  C   UNL     1      32.860 -21.347 -20.065  0.00  0.00    +0.002 C 
ATOM     17  C   UNL     1      33.636 -22.324 -19.407  0.00  0.00    +0.002 C 
ATOM     18  H   UNL     1      37.696 -21.340 -19.763  0.00  0.00    +0.170 HD
ENDBRANCH   5   9
BRANCH   1  19
ATOM     19  C   UNL     1      34.076 -14.762 -24.199  0.00  0.00    -0.076 C 
BRANCH  19  20
ATOM     20  C   UNL     1      33.995 -13.546 -23.275  0.00  0.00    -0.015 C 
BRANCH  20  21
ATOM     21  C   UNL     1      32.568 -13.006 -23.147  0.00  0.00    +0.067 C 
BRANCH  21  23
ATOM     22  O   UNL     1      31.850 -13.764 -20.971  0.00  0.00    -0.291 OA
ATOM     23  C   UNL     1      32.121 -12.816 -21.705  0.00  0.00    +0.173 C 
BRANCH  23  25
ATOM     24  F   UNL     1      31.780  -7.626 -19.674  0.00  0.00    -0.204 F 
ATOM     25  C   UNL     1      32.028 -11.431 -21.162  0.00  0.00    +0.035 C 
ATOM     26  C   UNL     1      32.006 -10.376 -22.046  0.00  0.00    +0.005 C 
ATOM     27  C   UNL     1      31.970 -11.257 -19.798  0.00  0.00    +0.005 C 
ATOM     28  C   UNL     1      31.922  -9.079 -21.539  0.00  0.00    +0.030 C 
ATOM     29  C   UNL     1      31.886  -9.961 -19.290  0.00  0.00    +0.030 C 
ATOM     30  C   UNL     1      31.861  -8.871 -20.161  0.00  0.00    +0.140 C 
ENDBRANCH  23  25
ENDBRANCH  21  23
ENDBRANCH  20  21
ENDBRANCH  19  20
ENDBRANCH   1  19
TORSDOF 6
ENDMDL
MODEL 5
REMARK VINA RESULT:     -11.0      3.207      5.376
REMARK  Name = 3168
REMARK  6 active torsions:
REMARK  status: ('A' for Active; 'I' for Inactive)
REMARK    1  A    between atoms: N_1  and  C_19
REMARK    2  A    between atoms: C_5  and  N_9
REMARK    3  A    between atoms: C_19  and  C_20
REMARK    4  A    between atoms: C_20  and  C_21
REMARK    5  A    between atoms: C_21  and  C_23
REMARK    6  A    between atoms: C_23  and  C_25
REMARK                            x       y       z     vdW  Elec       q    Type
REMARK                         _______ _______ _______ _____ _____    ______ ____
ROOT
ATOM      1  N   UNL     1      36.001 -19.537 -20.862  0.00  0.00    +0.390 N 
ATOM      2  C   UNL     1      36.981 -18.953 -21.785  0.00  0.00    -0.071 C 
ATOM      3  C   UNL     1      36.352 -17.785 -22.561  0.00  0.00    +0.021 C 
ATOM      4  C   UNL     1      34.859 -20.102 -21.600  0.00  0.00    -0.049 C 
ATOM      5  C   UNL     1      34.983 -18.111 -23.089  0.00  0.00    +0.037 C 
ATOM      6  C   UNL     1      34.306 -19.186 -22.656  0.00  0.00    -0.036 C 
ATOM      7  H   UNL     1      35.655 -18.790 -20.260  0.00  0.00    -0.079 HD
ENDROOT
BRANCH   5   9
ATOM      8  O   UNL     1      34.126 -18.763 -25.880  0.00  0.00    -0.246 OA
ATOM      9  N   UNL     1      34.466 -17.277 -24.038  0.00  0.00    -0.263 N 
ATOM     10  N   UNL     1      33.598 -16.465 -25.983  0.00  0.00    -0.305 N 
ATOM     11  C   UNL     1      34.227 -15.898 -23.883  0.00  0.00    +0.083 A 
ATOM     12  C   UNL     1      34.074 -17.655 -25.364  0.00  0.00    +0.332 A 
ATOM     13  C   UNL     1      33.697 -15.412 -25.077  0.00  0.00    +0.076 A 
ATOM     14  C   UNL     1      34.434 -15.064 -22.803  0.00  0.00    +0.019 C 
ATOM     15  C   UNL     1      33.352 -14.089 -25.252  0.00  0.00    +0.019 C 
ATOM     16  C   UNL     1      34.093 -13.716 -22.956  0.00  0.00    +0.002 C 
ATOM     17  C   UNL     1      33.557 -13.234 -24.168  0.00  0.00    +0.002 C 
ATOM     18  H   UNL     1      33.255 -16.397 -26.904  0.00  0.00    +0.170 HD
ENDBRANCH   5   9
BRANCH   1  19
ATOM     19  C   UNL     1      36.621 -20.552 -20.011  0.00  0.00    -0.076 C 
BRANCH  19  20
ATOM     20  C   UNL     1      35.795 -21.839 -20.037  0.00  0.00    -0.015 C 
BRANCH  20  21
ATOM     21  C   UNL     1      35.318 -22.252 -18.641  0.00  0.00    +0.067 C 
BRANCH  21  23
ATOM     22  O   UNL     1      33.108 -22.525 -19.573  0.00  0.00    -0.291 OA
ATOM     23  C   UNL     1      33.838 -22.601 -18.587  0.00  0.00    +0.173 C 
BRANCH  23  25
ATOM     24  F   UNL     1      31.682 -24.366 -13.748  0.00  0.00    -0.204 F 
ATOM     25  C   UNL     1      33.261 -23.071 -17.295  0.00  0.00    +0.035 C 
ATOM     26  C   UNL     1      34.116 -23.538 -16.322  0.00  0.00    +0.005 C 
ATOM     27  C   UNL     1      31.897 -23.022 -17.122  0.00  0.00    +0.005 C 
ATOM     28  C   UNL     1      33.578 -23.980 -15.113  0.00  0.00    +0.030 C 
ATOM     29  C   UNL     1      31.357 -23.463 -15.914  0.00  0.00    +0.030 C 
ATOM     30  C   UNL     1      32.199 -23.943 -14.909  0.00  0.00    +0.140 C 
ENDBRANCH  23  25
ENDBRANCH  21  23
ENDBRANCH  20  21
ENDBRANCH  19  20
ENDBRANCH   1  19
TORSDOF 6
ENDMDL
MODEL 6
REMARK VINA RESULT:     -10.8      5.360     11.386
REMARK  Name = 3168
REMARK  6 active torsions:
REMARK  status: ('A' for Active; 'I' for Inactive)
REMARK    1  A    between atoms: N_1  and  C_19
REMARK    2  A    between atoms: C_5  and  N_9
REMARK    3  A    between atoms: C_19  and  C_20
REMARK    4  A    between atoms: C_20  and  C_21
REMARK    5  A    between atoms: C_21  and  C_23
REMARK    6  A    between atoms: C_23  and  C_25
REMARK                            x       y       z     vdW  Elec       q    Type
REMARK                         _______ _______ _______ _____ _____    ______ ____
ROOT
ATOM      1  N   UNL     1      35.098 -21.457 -19.267  0.00  0.00    +0.390 N 
ATOM      2  C   UNL     1      34.210 -22.601 -19.500  0.00  0.00    -0.071 C 
ATOM      3  C   UNL     1      33.595 -23.077 -18.174  0.00  0.00    +0.021 C 
ATOM      4  C   UNL     1      36.229 -21.838 -18.405  0.00  0.00    -0.049 C 
ATOM      5  C   UNL     1      34.609 -23.175 -17.068  0.00  0.00    +0.037 C 
ATOM      6  C   UNL     1      35.823 -22.618 -17.185  0.00  0.00    -0.036 C 
ATOM      7  H   UNL     1      34.560 -20.735 -18.789  0.00  0.00    -0.079 HD
ENDROOT
BRANCH   5   9
ATOM      8  O   UNL     1      36.252 -25.061 -15.426  0.00  0.00    -0.246 OA
ATOM      9  N   UNL     1      34.245 -23.869 -15.950  0.00  0.00    -0.263 N 
ATOM     10  N   UNL     1      34.285 -25.247 -14.135  0.00  0.00    -0.305 N 
ATOM     11  C   UNL     1      32.982 -23.831 -15.330  0.00  0.00    +0.083 A 
ATOM     12  C   UNL     1      35.085 -24.762 -15.207  0.00  0.00    +0.332 A 
ATOM     13  C   UNL     1      33.017 -24.676 -14.222  0.00  0.00    +0.076 A 
ATOM     14  C   UNL     1      31.839 -23.130 -15.657  0.00  0.00    +0.019 C 
ATOM     15  C   UNL     1      31.930 -24.862 -13.396  0.00  0.00    +0.019 C 
ATOM     16  C   UNL     1      30.721 -23.303 -14.834  0.00  0.00    +0.002 C 
ATOM     17  C   UNL     1      30.767 -24.160 -13.715  0.00  0.00    +0.002 C 
ATOM     18  H   UNL     1      34.579 -25.883 -13.443  0.00  0.00    +0.170 HD
ENDBRANCH   5   9
BRANCH   1  19
ATOM     19  C   UNL     1      35.577 -20.898 -20.531  0.00  0.00    -0.076 C 
BRANCH  19  20
ATOM     20  C   UNL     1      34.471 -20.079 -21.199  0.00  0.00    -0.015 C 
BRANCH  20  21
ATOM     21  C   UNL     1      34.916 -19.486 -22.539  0.00  0.00    +0.067 C 
BRANCH  21  23
ATOM     22  O   UNL     1      37.072 -18.431 -22.287  0.00  0.00    -0.291 OA
ATOM     23  C   UNL     1      35.855 -18.297 -22.391  0.00  0.00    +0.173 C 
BRANCH  23  25
ATOM     24  F   UNL     1      33.689 -13.151 -22.396  0.00  0.00    -0.204 F 
ATOM     25  C   UNL     1      35.275 -16.924 -22.391  0.00  0.00    +0.035 C 
ATOM     26  C   UNL     1      34.930 -16.354 -23.596  0.00  0.00    +0.005 C 
ATOM     27  C   UNL     1      35.108 -16.276 -21.188  0.00  0.00    +0.005 C 
ATOM     28  C   UNL     1      34.389 -15.067 -23.598  0.00  0.00    +0.030 C 
ATOM     29  C   UNL     1      34.568 -14.990 -21.189  0.00  0.00    +0.030 C 
ATOM     30  C   UNL     1      34.208 -14.386 -22.395  0.00  0.00    +0.140 C 
ENDBRANCH  23  25
ENDBRANCH  21  23
ENDBRANCH  20  21
ENDBRANCH  19  20
ENDBRANCH   1  19
TORSDOF 6
ENDMDL
MODEL 7
REMARK VINA RESULT:     -10.7      5.420     11.438
REMARK  Name = 3168
REMARK  6 active torsions:
REMARK  status: ('A' for Active; 'I' for Inactive)
REMARK    1  A    between atoms: N_1  and  C_19
REMARK    2  A    between atoms: C_5  and  N_9
REMARK    3  A    between atoms: C_19  and  C_20
REMARK    4  A    between atoms: C_20  and  C_21
REMARK    5  A    between atoms: C_21  and  C_23
REMARK    6  A    between atoms: C_23  and  C_25
REMARK                            x       y       z     vdW  Elec       q    Type
REMARK                         _______ _______ _______ _____ _____    ______ ____
ROOT
ATOM      1  N   UNL     1      35.491 -21.666 -18.990  0.00  0.00    +0.390 N 
ATOM      2  C   UNL     1      34.603 -22.789 -19.314  0.00  0.00    -0.071 C 
ATOM      3  C   UNL     1      33.768 -23.180 -18.085  0.00  0.00    +0.021 C 
ATOM      4  C   UNL     1      36.454 -22.045 -17.942  0.00  0.00    -0.049 C 
ATOM      5  C   UNL     1      34.589 -23.261 -16.829  0.00  0.00    +0.037 C 
ATOM      6  C   UNL     1      35.829 -22.752 -16.772  0.00  0.00    -0.036 C 
ATOM      7  H   UNL     1      34.913 -20.905 -18.633  0.00  0.00    -0.079 HD
ENDROOT
BRANCH   5   9
ATOM      8  O   UNL     1      35.912 -24.971 -14.759  0.00  0.00    -0.246 OA
ATOM      9  N   UNL     1      34.026 -23.890 -15.755  0.00  0.00    -0.263 N 
ATOM     10  N   UNL     1      33.732 -25.136 -13.870  0.00  0.00    -0.305 N 
ATOM     11  C   UNL     1      32.664 -23.854 -15.400  0.00  0.00    +0.083 A 
ATOM     12  C   UNL     1      34.720 -24.699 -14.796  0.00  0.00    +0.332 A 
ATOM     13  C   UNL     1      32.495 -24.618 -14.247  0.00  0.00    +0.076 A 
ATOM     14  C   UNL     1      31.594 -23.218 -15.997  0.00  0.00    +0.019 C 
ATOM     15  C   UNL     1      31.270 -24.786 -13.640  0.00  0.00    +0.019 C 
ATOM     16  C   UNL     1      30.338 -23.373 -15.400  0.00  0.00    +0.002 C 
ATOM     17  C   UNL     1      30.179 -24.149 -14.233  0.00  0.00    +0.002 C 
ATOM     18  H   UNL     1      33.896 -25.713 -13.088  0.00  0.00    +0.170 HD
ENDBRANCH   5   9
BRANCH   1  19
ATOM     19  C   UNL     1      36.186 -21.184 -20.182  0.00  0.00    -0.076 C 
BRANCH  19  20
ATOM     20  C   UNL     1      35.358 -20.099 -20.873  0.00  0.00    -0.015 C 
BRANCH  20  21
ATOM     21  C   UNL     1      36.230 -18.976 -21.443  0.00  0.00    +0.067 C 
BRANCH  21  23
ATOM     22  O   UNL     1      35.357 -16.918 -20.532  0.00  0.00    -0.291 OA
ATOM     23  C   UNL     1      35.515 -17.635 -21.518  0.00  0.00    +0.173 C 
BRANCH  23  25
ATOM     24  F   UNL     1      33.607 -15.890 -26.467  0.00  0.00    -0.204 F 
ATOM     25  C   UNL     1      35.007 -17.169 -22.840  0.00  0.00    +0.035 C 
ATOM     26  C   UNL     1      34.709 -15.835 -23.000  0.00  0.00    +0.005 C 
ATOM     27  C   UNL     1      34.853 -18.091 -23.851  0.00  0.00    +0.005 C 
ATOM     28  C   UNL     1      34.232 -15.399 -24.237  0.00  0.00    +0.030 C 
ATOM     29  C   UNL     1      34.375 -17.656 -25.087  0.00  0.00    +0.030 C 
ATOM     30  C   UNL     1      34.065 -16.309 -25.280  0.00  0.00    +0.140 C 
ENDBRANCH  23  25
ENDBRANCH  21  23
ENDBRANCH  20  21
ENDBRANCH  19  20
ENDBRANCH   1  19
TORSDOF 6
ENDMDL
MODEL 8
REMARK VINA RESULT:     -10.7      6.238     12.333
REMARK  Name = 3168
REMARK  6 active torsions:
REMARK  status: ('A' for Active; 'I' for Inactive)
REMARK    1  A    between atoms: N_1  and  C_19
REMARK    2  A    between atoms: C_5  and  N_9
REMARK    3  A    between atoms: C_19  and  C_20
REMARK    4  A    between atoms: C_20  and  C_21
REMARK    5  A    between atoms: C_21  and  C_23
REMARK    6  A    between atoms: C_23  and  C_25
REMARK                            x       y       z     vdW  Elec       q    Type
REMARK                         _______ _______ _______ _____ _____    ______ ____
ROOT
ATOM      1  N   UNL     1      34.260 -23.012 -18.242  0.00  0.00    +0.390 N 
ATOM      2  C   UNL     1      35.346 -22.290 -17.568  0.00  0.00    -0.071 C 
ATOM      3  C   UNL     1      35.928 -23.145 -16.431  0.00  0.00    +0.021 C 
ATOM      4  C   UNL     1      33.147 -23.271 -17.313  0.00  0.00    -0.049 C 
ATOM      5  C   UNL     1      34.863 -23.783 -15.584  0.00  0.00    +0.037 C 
ATOM      6  C   UNL     1      33.584 -23.825 -15.985  0.00  0.00    -0.036 C 
ATOM      7  H   UNL     1      34.630 -23.908 -18.557  0.00  0.00    -0.079 HD
ENDROOT
BRANCH   5   9
ATOM      8  O   UNL     1      33.300 -23.976 -13.040  0.00  0.00    -0.246 OA
ATOM      9  N   UNL     1      35.252 -24.302 -14.382  0.00  0.00    -0.263 N 
ATOM     10  N   UNL     1      35.266 -24.981 -12.206  0.00  0.00    -0.305 N 
ATOM     11  C   UNL     1      36.509 -24.868 -14.095  0.00  0.00    +0.083 A 
ATOM     12  C   UNL     1      34.450 -24.364 -13.195  0.00  0.00    +0.332 A 
ATOM     13  C   UNL     1      36.507 -25.279 -12.764  0.00  0.00    +0.076 A 
ATOM     14  C   UNL     1      37.621 -25.043 -14.894  0.00  0.00    +0.019 C 
ATOM     15  C   UNL     1      37.597 -25.877 -12.170  0.00  0.00    +0.019 C 
ATOM     16  C   UNL     1      38.741 -25.648 -14.314  0.00  0.00    +0.002 C 
ATOM     17  C   UNL     1      38.729 -26.060 -12.966  0.00  0.00    +0.002 C 
ATOM     18  H   UNL     1      34.997 -25.167 -11.277  0.00  0.00    +0.170 HD
ENDBRANCH   5   9
BRANCH   1  19
ATOM     19  C   UNL     1      33.793 -22.278 -19.417  0.00  0.00    -0.076 C 
BRANCH  19  20
ATOM     20  C   UNL     1      34.855 -21.277 -19.872  0.00  0.00    -0.015 C 
BRANCH  20  21
ATOM     21  C   UNL     1      34.320 -20.297 -20.920  0.00  0.00    +0.067 C 
BRANCH  21  23
ATOM     22  O   UNL     1      36.406 -19.093 -20.766  0.00  0.00    -0.291 OA
ATOM     23  C   UNL     1      35.349 -19.268 -21.367  0.00  0.00    +0.173 C 
BRANCH  23  25
ATOM     24  F   UNL     1      34.292 -16.239 -25.937  0.00  0.00    -0.204 F 
ATOM     25  C   UNL     1      35.068 -18.460 -22.588  0.00  0.00    +0.035 C 
ATOM     26  C   UNL     1      35.376 -17.118 -22.577  0.00  0.00    +0.005 C 
ATOM     27  C   UNL     1      34.509 -19.085 -23.680  0.00  0.00    +0.005 C 
ATOM     28  C   UNL     1      35.111 -16.361 -23.719  0.00  0.00    +0.030 C 
ATOM     29  C   UNL     1      34.244 -18.328 -24.822  0.00  0.00    +0.030 C 
ATOM     30  C   UNL     1      34.546 -16.965 -24.841  0.00  0.00    +0.140 C 
ENDBRANCH  23  25
ENDBRANCH  21  23
ENDBRANCH  20  21
ENDBRANCH  19  20
ENDBRANCH   1  19
TORSDOF 6
ENDMDL
MODEL 9
REMARK VINA RESULT:     -10.6      4.345      7.204
REMARK  Name = 3168
REMARK  6 active torsions:
REMARK  status: ('A' for Active; 'I' for Inactive)
REMARK    1  A    between atoms: N_1  and  C_19
REMARK    2  A    between atoms: C_5  and  N_9
REMARK    3  A    between atoms: C_19  and  C_20
REMARK    4  A    between atoms: C_20  and  C_21
REMARK    5  A    between atoms: C_21  and  C_23
REMARK    6  A    between atoms: C_23  and  C_25
REMARK                            x       y       z     vdW  Elec       q    Type
REMARK                         _______ _______ _______ _____ _____    ______ ____
ROOT
ATOM      1  N   UNL     1      32.291  -9.516 -21.219  0.00  0.00    +0.390 N 
ATOM      2  C   UNL     1      31.218  -9.405 -22.214  0.00  0.00    -0.071 C 
ATOM      3  C   UNL     1      31.499  -8.238 -23.173  0.00  0.00    +0.021 C 
ATOM      4  C   UNL     1      32.358  -8.306 -20.383  0.00  0.00    -0.049 C 
ATOM      5  C   UNL     1      31.936  -6.992 -22.455  0.00  0.00    +0.037 C 
ATOM      6  C   UNL     1      32.315  -7.024 -21.169  0.00  0.00    -0.036 C 
ATOM      7  H   UNL     1      33.174  -9.607 -21.721  0.00  0.00    -0.079 HD
ENDROOT
BRANCH   5   9
ATOM      8  O   UNL     1      30.074  -4.667 -22.167  0.00  0.00    -0.246 OA
ATOM      9  N   UNL     1      31.915  -5.825 -23.164  0.00  0.00    -0.263 N 
ATOM     10  N   UNL     1      31.351  -3.753 -23.930  0.00  0.00    -0.305 N 
ATOM     11  C   UNL     1      32.796  -5.475 -24.204  0.00  0.00    +0.083 A 
ATOM     12  C   UNL     1      30.990  -4.745 -22.975  0.00  0.00    +0.332 A 
ATOM     13  C   UNL     1      32.443  -4.208 -24.666  0.00  0.00    +0.076 A 
ATOM     14  C   UNL     1      33.853  -6.167 -24.760  0.00  0.00    +0.019 C 
ATOM     15  C   UNL     1      33.116  -3.576 -25.688  0.00  0.00    +0.019 C 
ATOM     16  C   UNL     1      34.553  -5.547 -25.801  0.00  0.00    +0.002 C 
ATOM     17  C   UNL     1      34.188  -4.264 -26.259  0.00  0.00    +0.002 C 
ATOM     18  H   UNL     1      30.901  -2.885 -24.051  0.00  0.00    +0.170 HD
ENDBRANCH   5   9
BRANCH   1  19
ATOM     19  C   UNL     1      32.119 -10.708 -20.390  0.00  0.00    -0.076 C 
BRANCH  19  20
ATOM     20  C   UNL     1      31.408 -11.805 -21.185  0.00  0.00    -0.015 C 
BRANCH  20  21
ATOM     21  C   UNL     1      32.324 -12.996 -21.481  0.00  0.00    +0.067 C 
BRANCH  21  23
ATOM     22  O   UNL     1      33.252 -11.799 -23.360  0.00  0.00    -0.291 OA
ATOM     23  C   UNL     1      33.054 -12.880 -22.811  0.00  0.00    +0.173 C 
BRANCH  23  25
ATOM     24  F   UNL     1      34.947 -17.541 -25.234  0.00  0.00    -0.204 F 
ATOM     25  C   UNL     1      33.561 -14.124 -23.458  0.00  0.00    +0.035 C 
ATOM     26  C   UNL     1      33.126 -14.433 -24.727  0.00  0.00    +0.005 C 
ATOM     27  C   UNL     1      34.444 -14.919 -22.762  0.00  0.00    +0.005 C 
ATOM     28  C   UNL     1      33.598 -15.598 -25.333  0.00  0.00    +0.030 C 
ATOM     29  C   UNL     1      34.916 -16.084 -23.367  0.00  0.00    +0.030 C 
ATOM     30  C   UNL     1      34.493 -16.423 -24.653  0.00  0.00    +0.140 C 
ENDBRANCH  23  25
ENDBRANCH  21  23
ENDBRANCH  20  21
ENDBRANCH  19  20
ENDBRANCH   1  19
TORSDOF 6
ENDMDL
