MODEL 1
REMARK VINA RESULT:     -11.2      0.000      0.000
REMARK  Name = 24963036
REMARK  7 active torsions:
REMARK  status: ('A' for Active; 'I' for Inactive)
REMARK    1  A    between atoms: N_2  and  C_20
REMARK    2  A    between atoms: C_3  and  C_7
REMARK    3  A    between atoms: C_11  and  C_12
REMARK    4  A    between atoms: C_12  and  O_13
REMARK    5  A    between atoms: O_13  and  C_14
REMARK    6  A    between atoms: C_20  and  C_21
REMARK    7  A    between atoms: C_26  and  C_29
REMARK                            x       y       z     vdW  Elec       q    Type
REMARK                         _______ _______ _______ _____ _____    ______ ____
ROOT
ATOM      1  O   UNL     1      32.409 -25.154 -13.257  0.00  0.00    -0.273 OA
ATOM      2  N   UNL     1      34.357 -23.882 -13.174  0.00  0.00    -0.299 N 
ATOM      3  C   UNL     1      33.058 -24.158 -13.565  0.00  0.00    +0.241 C 
ATOM      4  H   UNL     1      34.773 -23.047 -13.487  0.00  0.00    +0.150 HD
ENDROOT
BRANCH   3   7
ATOM      5  O   UNL     1      34.886 -23.058 -15.985  0.00  0.00    -0.272 OA
ATOM      6  N   UNL     1      32.620 -23.490 -15.806  0.00  0.00    -0.271 N 
ATOM      7  C   UNL     1      32.479 -23.070 -14.419  0.00  0.00    +0.152 C 
ATOM      8  C   UNL     1      30.976 -22.925 -14.208  0.00  0.00    +0.031 C 
ATOM      9  C   UNL     1      30.382 -23.935 -15.187  0.00  0.00    +0.024 C 
ATOM     10  C   UNL     1      31.329 -23.867 -16.376  0.00  0.00    +0.094 C 
ATOM     11  C   UNL     1      33.814 -23.379 -16.501  0.00  0.00    +0.256 C 
BRANCH  11  12
ATOM     12  C   UNL     1      33.741 -23.694 -17.974  0.00  0.00    +0.227 C 
BRANCH  12  13
ATOM     13  O   UNL     1      34.907 -23.164 -18.557  0.00  0.00    -0.347 OA
BRANCH  13  14
ATOM     14  C   UNL     1      34.689 -21.870 -19.106  0.00  0.00    +0.116 C 
ATOM     15  C   UNL     1      35.839 -21.514 -20.049  0.00  0.00    +0.030 C 
ATOM     16  C   UNL     1      33.342 -21.838 -19.826  0.00  0.00    +0.030 C 
ATOM     17  C   UNL     1      35.604 -20.174 -20.740  0.00  0.00    +0.002 C 
ATOM     18  C   UNL     1      33.106 -20.498 -20.517  0.00  0.00    +0.002 C 
ATOM     19  C   UNL     1      34.256 -20.141 -21.456  0.00  0.00    +0.000 C 
ENDBRANCH  13  14
ENDBRANCH  12  13
ENDBRANCH  11  12
ENDBRANCH   3   7
BRANCH   2  20
ATOM     20  C   UNL     1      35.132 -24.762 -12.328  0.00  0.00    +0.116 C 
BRANCH  20  21
ATOM     21  C   UNL     1      36.434 -25.151 -12.966  0.00  0.00    -0.003 C 
ATOM     22  C   UNL     1      37.635 -24.913 -12.297  0.00  0.00    -0.003 C 
ATOM     23  C   UNL     1      36.443 -25.747 -14.226  0.00  0.00    -0.003 C 
ATOM     24  C   UNL     1      38.846 -25.274 -12.890  0.00  0.00    +0.002 C 
ATOM     25  C   UNL     1      37.653 -26.108 -14.819  0.00  0.00    +0.002 C 
ATOM     26  C   UNL     1      38.854 -25.871 -14.151  0.00  0.00    +0.031 C 
BRANCH  26  29
ATOM     27  N   UNL     1      41.076 -26.977 -14.071  0.00  0.00    -0.343 N 
ATOM     28  N   UNL     1      40.371 -25.889 -16.015  0.00  0.00    -0.285 NA
ATOM     29  C   UNL     1      40.116 -26.246 -14.769  0.00  0.00    +0.117 C 
ATOM     30  H   UNL     1      41.924 -27.221 -14.509  0.00  0.00    +0.144 HD
ATOM     31  H   UNL     1      40.906 -27.250 -13.140  0.00  0.00    +0.144 HD
ATOM     32  H   UNL     1      41.224 -26.142 -16.435  0.00  0.00    +0.188 HD
ENDBRANCH  26  29
ENDBRANCH  20  21
ENDBRANCH   2  20
TORSDOF 7
ENDMDL
MODEL 2
REMARK VINA RESULT:     -11.0      2.139      6.456
REMARK  Name = 24963036
REMARK  7 active torsions:
REMARK  status: ('A' for Active; 'I' for Inactive)
REMARK    1  A    between atoms: N_2  and  C_20
REMARK    2  A    between atoms: C_3  and  C_7
REMARK    3  A    between atoms: C_11  and  C_12
REMARK    4  A    between atoms: C_12  and  O_13
REMARK    5  A    between atoms: O_13  and  C_14
REMARK    6  A    between atoms: C_20  and  C_21
REMARK    7  A    between atoms: C_26  and  C_29
REMARK                            x       y       z     vdW  Elec       q    Type
REMARK                         _______ _______ _______ _____ _____    ______ ____
ROOT
ATOM      1  O   UNL     1      34.963 -24.068 -12.694  0.00  0.00    -0.273 OA
ATOM      2  N   UNL     1      33.445 -25.194 -14.054  0.00  0.00    -0.299 N 
ATOM      3  C   UNL     1      34.699 -24.733 -13.694  0.00  0.00    +0.241 C 
ATOM      4  H   UNL     1      33.359 -25.720 -14.882  0.00  0.00    +0.150 HD
ENDROOT
BRANCH   3   7
ATOM      5  O   UNL     1      34.252 -23.956 -16.793  0.00  0.00    -0.272 OA
ATOM      6  N   UNL     1      36.129 -23.979 -15.439  0.00  0.00    -0.271 N 
ATOM      7  C   UNL     1      35.760 -25.156 -14.664  0.00  0.00    +0.152 C 
ATOM      8  C   UNL     1      37.044 -25.570 -13.953  0.00  0.00    +0.031 C 
ATOM      9  C   UNL     1      37.798 -24.252 -13.787  0.00  0.00    +0.024 C 
ATOM     10  C   UNL     1      37.451 -23.489 -15.057  0.00  0.00    +0.094 C 
ATOM     11  C   UNL     1      35.365 -23.516 -16.499  0.00  0.00    +0.256 C 
BRANCH  11  12
ATOM     12  C   UNL     1      35.978 -22.398 -17.303  0.00  0.00    +0.227 C 
BRANCH  12  13
ATOM     13  O   UNL     1      35.612 -22.617 -18.643  0.00  0.00    -0.347 OA
BRANCH  13  14
ATOM     14  C   UNL     1      35.035 -21.459 -19.236  0.00  0.00    +0.116 C 
ATOM     15  C   UNL     1      35.954 -20.936 -20.339  0.00  0.00    +0.030 C 
ATOM     16  C   UNL     1      33.646 -21.797 -19.776  0.00  0.00    +0.030 C 
ATOM     17  C   UNL     1      35.334 -19.750 -21.073  0.00  0.00    +0.002 C 
ATOM     18  C   UNL     1      33.025 -20.612 -20.509  0.00  0.00    +0.002 C 
ATOM     19  C   UNL     1      33.945 -20.088 -21.609  0.00  0.00    +0.000 C 
ENDBRANCH  13  14
ENDBRANCH  12  13
ENDBRANCH  11  12
ENDBRANCH   3   7
BRANCH   2  20
ATOM     20  C   UNL     1      32.255 -24.942 -13.273  0.00  0.00    +0.116 C 
BRANCH  20  21
ATOM     21  C   UNL     1      31.105 -24.498 -14.129  0.00  0.00    -0.003 C 
ATOM     22  C   UNL     1      30.093 -25.400 -14.459  0.00  0.00    -0.003 C 
ATOM     23  C   UNL     1      31.049 -23.185 -14.597  0.00  0.00    -0.003 C 
ATOM     24  C   UNL     1      29.024 -24.988 -15.256  0.00  0.00    +0.002 C 
ATOM     25  C   UNL     1      29.980 -22.773 -15.393  0.00  0.00    +0.002 C 
ATOM     26  C   UNL     1      28.968 -23.675 -15.723  0.00  0.00    +0.031 C 
BRANCH  26  29
ATOM     27  N   UNL     1      26.846 -22.428 -16.048  0.00  0.00    -0.343 N 
ATOM     28  N   UNL     1      27.785 -23.635 -17.814  0.00  0.00    -0.285 NA
ATOM     29  C   UNL     1      27.855 -23.246 -16.554  0.00  0.00    +0.117 C 
ATOM     30  H   UNL     1      26.101 -22.149 -16.629  0.00  0.00    +0.144 HD
ATOM     31  H   UNL     1      26.877 -22.130 -15.110  0.00  0.00    +0.144 HD
ATOM     32  H   UNL     1      27.033 -23.346 -18.379  0.00  0.00    +0.188 HD
ENDBRANCH  26  29
ENDBRANCH  20  21
ENDBRANCH   2  20
TORSDOF 7
ENDMDL
MODEL 3
REMARK VINA RESULT:      -9.8     10.060     15.219
REMARK  Name = 24963036
REMARK  7 active torsions:
REMARK  status: ('A' for Active; 'I' for Inactive)
REMARK    1  A    between atoms: N_2  and  C_20
REMARK    2  A    between atoms: C_3  and  C_7
REMARK    3  A    between atoms: C_11  and  C_12
REMARK    4  A    between atoms: C_12  and  O_13
REMARK    5  A    between atoms: O_13  and  C_14
REMARK    6  A    between atoms: C_20  and  C_21
REMARK    7  A    between atoms: C_26  and  C_29
REMARK                            x       y       z     vdW  Elec       q    Type
REMARK                         _______ _______ _______ _____ _____    ______ ____
ROOT
ATOM      1  O   UNL     1      33.479 -13.055 -25.717  0.00  0.00    -0.273 OA
ATOM      2  N   UNL     1      34.022 -11.918 -23.760  0.00  0.00    -0.299 N 
ATOM      3  C   UNL     1      33.528 -12.984 -24.492  0.00  0.00    +0.241 C 
ATOM      4  H   UNL     1      34.008 -11.978 -22.777  0.00  0.00    +0.150 HD
ENDROOT
BRANCH   3   7
ATOM      5  O   UNL     1      33.358 -15.917 -25.825  0.00  0.00    -0.272 OA
ATOM      6  N   UNL     1      34.033 -15.183 -23.737  0.00  0.00    -0.271 N 
ATOM      7  C   UNL     1      33.059 -14.106 -23.615  0.00  0.00    +0.152 C 
ATOM      8  C   UNL     1      33.087 -13.722 -22.141  0.00  0.00    +0.031 C 
ATOM      9  C   UNL     1      34.514 -14.058 -21.714  0.00  0.00    +0.024 C 
ATOM     10  C   UNL     1      34.837 -15.305 -22.523  0.00  0.00    +0.094 C 
ATOM     11  C   UNL     1      34.052 -16.052 -24.816  0.00  0.00    +0.256 C 
BRANCH  11  12
ATOM     12  C   UNL     1      35.008 -17.213 -24.699  0.00  0.00    +0.227 C 
BRANCH  12  13
ATOM     13  O   UNL     1      34.281 -18.278 -24.138  0.00  0.00    -0.347 OA
BRANCH  13  14
ATOM     14  C   UNL     1      35.078 -19.071 -23.267  0.00  0.00    +0.116 C 
ATOM     15  C   UNL     1      36.296 -18.266 -22.813  0.00  0.00    +0.030 C 
ATOM     16  C   UNL     1      34.236 -19.534 -22.079  0.00  0.00    +0.030 C 
ATOM     17  C   UNL     1      37.134 -19.038 -21.799  0.00  0.00    +0.002 C 
ATOM     18  C   UNL     1      35.073 -20.307 -21.065  0.00  0.00    +0.002 C 
ATOM     19  C   UNL     1      36.291 -19.504 -20.613  0.00  0.00    +0.000 C 
ENDBRANCH  13  14
ENDBRANCH  12  13
ENDBRANCH  11  12
ENDBRANCH   3   7
BRANCH   2  20
ATOM     20  C   UNL     1      34.557 -10.721 -24.368  0.00  0.00    +0.116 C 
BRANCH  20  21
ATOM     21  C   UNL     1      33.967  -9.476 -23.772  0.00  0.00    -0.003 C 
ATOM     22  C   UNL     1      34.655  -8.266 -23.865  0.00  0.00    -0.003 C 
ATOM     23  C   UNL     1      32.734  -9.529 -23.122  0.00  0.00    -0.003 C 
ATOM     24  C   UNL     1      34.108  -7.108 -23.310  0.00  0.00    +0.002 C 
ATOM     25  C   UNL     1      32.188  -8.373 -22.567  0.00  0.00    +0.002 C 
ATOM     26  C   UNL     1      32.874  -7.163 -22.660  0.00  0.00    +0.031 C 
BRANCH  26  29
ATOM     27  N   UNL     1      32.030  -5.867 -20.717  0.00  0.00    -0.343 N 
ATOM     28  N   UNL     1      32.035  -4.919 -22.853  0.00  0.00    -0.285 NA
ATOM     29  C   UNL     1      32.305  -5.957 -22.081  0.00  0.00    +0.117 C 
ATOM     30  H   UNL     1      31.645  -5.040 -20.346  0.00  0.00    +0.144 HD
ATOM     31  H   UNL     1      32.221  -6.631 -20.126  0.00  0.00    +0.144 HD
ATOM     32  H   UNL     1      31.650  -4.102 -22.463  0.00  0.00    +0.188 HD
ENDBRANCH  26  29
ENDBRANCH  20  21
ENDBRANCH   2  20
TORSDOF 7
ENDMDL
MODEL 4
REMARK VINA RESULT:      -9.7     11.546     16.625
REMARK  Name = 24963036
REMARK  7 active torsions:
REMARK  status: ('A' for Active; 'I' for Inactive)
REMARK    1  A    between atoms: N_2  and  C_20
REMARK    2  A    between atoms: C_3  and  C_7
REMARK    3  A    between atoms: C_11  and  C_12
REMARK    4  A    between atoms: C_12  and  O_13
REMARK    5  A    between atoms: O_13  and  C_14
REMARK    6  A    between atoms: C_20  and  C_21
REMARK    7  A    between atoms: C_26  and  C_29
REMARK                            x       y       z     vdW  Elec       q    Type
REMARK                         _______ _______ _______ _____ _____    ______ ____
ROOT
ATOM      1  O   UNL     1      32.040 -12.254 -22.516  0.00  0.00    -0.273 OA
ATOM      2  N   UNL     1      32.710 -10.046 -22.831  0.00  0.00    -0.299 N 
ATOM      3  C   UNL     1      32.820 -11.419 -22.968  0.00  0.00    +0.241 C 
ATOM      4  H   UNL     1      33.401  -9.478 -23.240  0.00  0.00    +0.150 HD
ENDROOT
BRANCH   3   7
ATOM      5  O   UNL     1      34.597 -13.872 -21.858  0.00  0.00    -0.272 OA
ATOM      6  N   UNL     1      33.939 -13.254 -23.989  0.00  0.00    -0.271 N 
ATOM      7  C   UNL     1      34.018 -11.815 -23.777  0.00  0.00    +0.152 C 
ATOM      8  C   UNL     1      33.980 -11.214 -25.178  0.00  0.00    +0.031 C 
ATOM      9  C   UNL     1      33.171 -12.233 -25.978  0.00  0.00    +0.024 C 
ATOM     10  C   UNL     1      33.590 -13.564 -25.373  0.00  0.00    +0.094 C 
ATOM     11  C   UNL     1      34.309 -14.171 -23.018  0.00  0.00    +0.256 C 
BRANCH  11  12
ATOM     12  C   UNL     1      34.333 -15.613 -23.461  0.00  0.00    +0.227 C 
BRANCH  12  13
ATOM     13  O   UNL     1      35.667 -16.045 -23.353  0.00  0.00    -0.347 OA
BRANCH  13  14
ATOM     14  C   UNL     1      35.757 -17.416 -22.985  0.00  0.00    +0.116 C 
ATOM     15  C   UNL     1      35.505 -17.562 -21.485  0.00  0.00    +0.030 C 
ATOM     16  C   UNL     1      34.760 -18.234 -23.805  0.00  0.00    +0.030 C 
ATOM     17  C   UNL     1      35.495 -19.027 -21.056  0.00  0.00    +0.002 C 
ATOM     18  C   UNL     1      34.749 -19.699 -23.377  0.00  0.00    +0.002 C 
ATOM     19  C   UNL     1      34.500 -19.844 -21.878  0.00  0.00    +0.000 C 
ENDBRANCH  13  14
ENDBRANCH  12  13
ENDBRANCH  11  12
ENDBRANCH   3   7
BRANCH   2  20
ATOM     20  C   UNL     1      31.628  -9.408 -22.115  0.00  0.00    +0.116 C 
BRANCH  20  21
ATOM     21  C   UNL     1      31.548  -7.939 -22.413  0.00  0.00    -0.003 C 
ATOM     22  C   UNL     1      31.123  -7.505 -23.669  0.00  0.00    -0.003 C 
ATOM     23  C   UNL     1      31.899  -7.008 -21.436  0.00  0.00    -0.003 C 
ATOM     24  C   UNL     1      31.048  -6.139 -23.947  0.00  0.00    +0.002 C 
ATOM     25  C   UNL     1      31.825  -5.643 -21.713  0.00  0.00    +0.002 C 
ATOM     26  C   UNL     1      31.400  -5.209 -22.968  0.00  0.00    +0.031 C 
BRANCH  26  29
ATOM     27  N   UNL     1      30.547  -2.929 -22.481  0.00  0.00    -0.343 N 
ATOM     28  N   UNL     1      31.997  -3.285 -24.278  0.00  0.00    -0.285 NA
ATOM     29  C   UNL     1      31.324  -3.786 -23.258  0.00  0.00    +0.117 C 
ATOM     30  H   UNL     1      30.510  -1.968 -22.695  0.00  0.00    +0.144 HD
ATOM     31  H   UNL     1      30.035  -3.284 -21.718  0.00  0.00    +0.144 HD
ATOM     32  H   UNL     1      31.947  -2.322 -24.476  0.00  0.00    +0.188 HD
ENDBRANCH  26  29
ENDBRANCH  20  21
ENDBRANCH   2  20
TORSDOF 7
ENDMDL
MODEL 5
REMARK VINA RESULT:      -9.6      2.521      7.219
REMARK  Name = 24963036
REMARK  7 active torsions:
REMARK  status: ('A' for Active; 'I' for Inactive)
REMARK    1  A    between atoms: N_2  and  C_20
REMARK    2  A    between atoms: C_3  and  C_7
REMARK    3  A    between atoms: C_11  and  C_12
REMARK    4  A    between atoms: C_12  and  O_13
REMARK    5  A    between atoms: O_13  and  C_14
REMARK    6  A    between atoms: C_20  and  C_21
REMARK    7  A    between atoms: C_26  and  C_29
REMARK                            x       y       z     vdW  Elec       q    Type
REMARK                         _______ _______ _______ _____ _____    ______ ____
ROOT
ATOM      1  O   UNL     1      38.323 -24.136 -14.997  0.00  0.00    -0.273 OA
ATOM      2  N   UNL     1      36.892 -22.563 -15.943  0.00  0.00    -0.299 N 
ATOM      3  C   UNL     1      37.397 -23.334 -14.911  0.00  0.00    +0.241 C 
ATOM      4  H   UNL     1      36.144 -21.953 -15.750  0.00  0.00    +0.150 HD
ENDROOT
BRANCH   3   7
ATOM      5  O   UNL     1      34.205 -22.877 -15.028  0.00  0.00    -0.272 OA
ATOM      6  N   UNL     1      35.574 -23.996 -13.534  0.00  0.00    -0.271 N 
ATOM      7  C   UNL     1      36.697 -23.072 -13.611  0.00  0.00    +0.152 C 
ATOM      8  C   UNL     1      37.573 -23.425 -12.415  0.00  0.00    +0.031 C 
ATOM      9  C   UNL     1      37.298 -24.912 -12.201  0.00  0.00    +0.024 C 
ATOM     10  C   UNL     1      35.824 -25.049 -12.552  0.00  0.00    +0.094 C 
ATOM     11  C   UNL     1      34.380 -23.777 -14.205  0.00  0.00    +0.256 C 
BRANCH  11  12
ATOM     12  C   UNL     1      33.264 -24.737 -13.876  0.00  0.00    +0.227 C 
BRANCH  12  13
ATOM     13  O   UNL     1      32.325 -24.017 -13.116  0.00  0.00    -0.347 OA
BRANCH  13  14
ATOM     14  C   UNL     1      31.010 -24.127 -13.647  0.00  0.00    +0.116 C 
ATOM     15  C   UNL     1      30.786 -23.037 -14.695  0.00  0.00    +0.030 C 
ATOM     16  C   UNL     1      30.810 -25.523 -14.237  0.00  0.00    +0.030 C 
ATOM     17  C   UNL     1      29.423 -23.172 -15.365  0.00  0.00    +0.002 C 
ATOM     18  C   UNL     1      29.445 -25.659 -14.906  0.00  0.00    +0.002 C 
ATOM     19  C   UNL     1      29.222 -24.568 -15.951  0.00  0.00    +0.000 C 
ENDBRANCH  13  14
ENDBRANCH  12  13
ENDBRANCH  11  12
ENDBRANCH   3   7
BRANCH   2  20
ATOM     20  C   UNL     1      37.410 -22.611 -17.292  0.00  0.00    +0.116 C 
BRANCH  20  21
ATOM     21  C   UNL     1      36.442 -22.038 -18.286  0.00  0.00    -0.003 C 
ATOM     22  C   UNL     1      36.897 -21.173 -19.282  0.00  0.00    -0.003 C 
ATOM     23  C   UNL     1      35.089 -22.367 -18.213  0.00  0.00    -0.003 C 
ATOM     24  C   UNL     1      35.997 -20.639 -20.206  0.00  0.00    +0.002 C 
ATOM     25  C   UNL     1      34.190 -21.833 -19.136  0.00  0.00    +0.002 C 
ATOM     26  C   UNL     1      34.644 -20.969 -20.132  0.00  0.00    +0.031 C 
BRANCH  26  29
ATOM     27  N   UNL     1      32.329 -20.537 -20.921  0.00  0.00    -0.343 N 
ATOM     28  N   UNL     1      34.157 -19.775 -22.159  0.00  0.00    -0.285 NA
ATOM     29  C   UNL     1      33.707 -20.412 -21.094  0.00  0.00    +0.117 C 
ATOM     30  H   UNL     1      31.712 -20.151 -21.584  0.00  0.00    +0.144 HD
ATOM     31  H   UNL     1      31.973 -21.011 -20.134  0.00  0.00    +0.144 HD
ATOM     32  H   UNL     1      33.525 -19.396 -22.811  0.00  0.00    +0.188 HD
ENDBRANCH  26  29
ENDBRANCH  20  21
ENDBRANCH   2  20
TORSDOF 7
ENDMDL
MODEL 6
REMARK VINA RESULT:      -9.6      5.260      8.476
REMARK  Name = 24963036
REMARK  7 active torsions:
REMARK  status: ('A' for Active; 'I' for Inactive)
REMARK    1  A    between atoms: N_2  and  C_20
REMARK    2  A    between atoms: C_3  and  C_7
REMARK    3  A    between atoms: C_11  and  C_12
REMARK    4  A    between atoms: C_12  and  O_13
REMARK    5  A    between atoms: O_13  and  C_14
REMARK    6  A    between atoms: C_20  and  C_21
REMARK    7  A    between atoms: C_26  and  C_29
REMARK                            x       y       z     vdW  Elec       q    Type
REMARK                         _______ _______ _______ _____ _____    ______ ____
ROOT
ATOM      1  O   UNL     1      36.898 -18.687 -21.240  0.00  0.00    -0.273 OA
ATOM      2  N   UNL     1      35.655 -20.482 -20.432  0.00  0.00    -0.299 N 
ATOM      3  C   UNL     1      35.843 -19.308 -21.141  0.00  0.00    +0.241 C 
ATOM      4  H   UNL     1      34.758 -20.887 -20.427  0.00  0.00    +0.150 HD
ENDROOT
BRANCH   3   7
ATOM      5  O   UNL     1      34.863 -16.289 -20.559  0.00  0.00    -0.272 OA
ATOM      6  N   UNL     1      34.893 -17.584 -22.477  0.00  0.00    -0.271 N 
ATOM      7  C   UNL     1      34.590 -18.852 -21.827  0.00  0.00    +0.152 C 
ATOM      8  C   UNL     1      34.197 -19.787 -22.965  0.00  0.00    +0.031 C 
ATOM      9  C   UNL     1      34.983 -19.245 -24.157  0.00  0.00    +0.024 C 
ATOM     10  C   UNL     1      34.973 -17.741 -23.927  0.00  0.00    +0.094 C 
ATOM     11  C   UNL     1      34.934 -16.383 -21.786  0.00  0.00    +0.256 C 
BRANCH  11  12
ATOM     12  C   UNL     1      35.086 -15.148 -22.637  0.00  0.00    +0.227 C 
BRANCH  12  13
ATOM     13  O   UNL     1      34.020 -14.294 -22.302  0.00  0.00    -0.347 OA
BRANCH  13  14
ATOM     14  C   UNL     1      33.425 -13.704 -23.452  0.00  0.00    +0.116 C 
ATOM     15  C   UNL     1      34.111 -12.374 -23.759  0.00  0.00    +0.030 C 
ATOM     16  C   UNL     1      33.520 -14.671 -24.632  0.00  0.00    +0.030 C 
ATOM     17  C   UNL     1      33.574 -11.747 -25.042  0.00  0.00    +0.002 C 
ATOM     18  C   UNL     1      32.982 -14.045 -25.915  0.00  0.00    +0.002 C 
ATOM     19  C   UNL     1      33.666 -12.714 -26.220  0.00  0.00    +0.000 C 
ENDBRANCH  13  14
ENDBRANCH  12  13
ENDBRANCH  11  12
ENDBRANCH   3   7
BRANCH   2  20
ATOM     20  C   UNL     1      36.712 -21.141 -19.700  0.00  0.00    +0.116 C 
BRANCH  20  21
ATOM     21  C   UNL     1      36.190 -21.882 -18.504  0.00  0.00    -0.003 C 
ATOM     22  C   UNL     1      34.896 -22.403 -18.517  0.00  0.00    -0.003 C 
ATOM     23  C   UNL     1      36.997 -22.048 -17.378  0.00  0.00    -0.003 C 
ATOM     24  C   UNL     1      34.409 -23.090 -17.404  0.00  0.00    +0.002 C 
ATOM     25  C   UNL     1      36.511 -22.735 -16.266  0.00  0.00    +0.002 C 
ATOM     26  C   UNL     1      35.217 -23.256 -16.279  0.00  0.00    +0.031 C 
BRANCH  26  29
ATOM     27  N   UNL     1      33.802 -23.381 -14.243  0.00  0.00    -0.343 N 
ATOM     28  N   UNL     1      35.112 -25.207 -14.880  0.00  0.00    -0.285 NA
ATOM     29  C   UNL     1      34.710 -23.972 -15.120  0.00  0.00    +0.117 C 
ATOM     30  H   UNL     1      33.470 -23.884 -13.464  0.00  0.00    +0.144 HD
ATOM     31  H   UNL     1      33.492 -22.459 -14.402  0.00  0.00    +0.144 HD
ATOM     32  H   UNL     1      34.770 -25.693 -14.096  0.00  0.00    +0.188 HD
ENDBRANCH  26  29
ENDBRANCH  20  21
ENDBRANCH   2  20
TORSDOF 7
ENDMDL
MODEL 7
REMARK VINA RESULT:      -9.6      8.865     12.362
REMARK  Name = 24963036
REMARK  7 active torsions:
REMARK  status: ('A' for Active; 'I' for Inactive)
REMARK    1  A    between atoms: N_2  and  C_20
REMARK    2  A    between atoms: C_3  and  C_7
REMARK    3  A    between atoms: C_11  and  C_12
REMARK    4  A    between atoms: C_12  and  O_13
REMARK    5  A    between atoms: O_13  and  C_14
REMARK    6  A    between atoms: C_20  and  C_21
REMARK    7  A    between atoms: C_26  and  C_29
REMARK                            x       y       z     vdW  Elec       q    Type
REMARK                         _______ _______ _______ _____ _____    ______ ____
ROOT
ATOM      1  O   UNL     1      33.535 -14.970 -24.217  0.00  0.00    -0.273 OA
ATOM      2  N   UNL     1      35.035 -15.987 -22.756  0.00  0.00    -0.299 N 
ATOM      3  C   UNL     1      34.251 -14.945 -23.218  0.00  0.00    +0.241 C 
ATOM      4  H   UNL     1      35.568 -15.847 -21.940  0.00  0.00    +0.150 HD
ENDROOT
BRANCH   3   7
ATOM      5  O   UNL     1      34.707 -12.101 -24.671  0.00  0.00    -0.272 OA
ATOM      6  N   UNL     1      33.406 -12.748 -22.870  0.00  0.00    -0.271 N 
ATOM      7  C   UNL     1      34.337 -13.735 -22.338  0.00  0.00    +0.152 C 
ATOM      8  C   UNL     1      33.832 -14.023 -20.928  0.00  0.00    +0.031 C 
ATOM      9  C   UNL     1      32.329 -13.774 -21.032  0.00  0.00    +0.024 C 
ATOM     10  C   UNL     1      32.234 -12.611 -22.008  0.00  0.00    +0.094 C 
ATOM     11  C   UNL     1      33.707 -11.955 -23.966  0.00  0.00    +0.256 C 
BRANCH  11  12
ATOM     12  C   UNL     1      32.709 -10.868 -24.275  0.00  0.00    +0.227 C 
BRANCH  12  13
ATOM     13  O   UNL     1      33.268  -9.664 -23.810  0.00  0.00    -0.347 OA
BRANCH  13  14
ATOM     14  C   UNL     1      32.345  -8.912 -23.030  0.00  0.00    +0.116 C 
ATOM     15  C   UNL     1      33.042  -8.390 -21.774  0.00  0.00    +0.030 C 
ATOM     16  C   UNL     1      31.773  -7.771 -23.870  0.00  0.00    +0.030 C 
ATOM     17  C   UNL     1      32.121  -7.495 -20.951  0.00  0.00    +0.002 C 
ATOM     18  C   UNL     1      30.851  -6.876 -23.048  0.00  0.00    +0.002 C 
ATOM     19  C   UNL     1      31.547  -6.357 -21.792  0.00  0.00    +0.000 C 
ENDBRANCH  13  14
ENDBRANCH  12  13
ENDBRANCH  11  12
ENDBRANCH   3   7
BRANCH   2  20
ATOM     20  C   UNL     1      35.110 -17.272 -23.413  0.00  0.00    +0.116 C 
BRANCH  20  21
ATOM     21  C   UNL     1      35.283 -18.396 -22.432  0.00  0.00    -0.003 C 
ATOM     22  C   UNL     1      36.477 -18.523 -21.722  0.00  0.00    -0.003 C 
ATOM     23  C   UNL     1      34.251 -19.313 -22.232  0.00  0.00    -0.003 C 
ATOM     24  C   UNL     1      36.638 -19.568 -20.811  0.00  0.00    +0.002 C 
ATOM     25  C   UNL     1      34.412 -20.356 -21.321  0.00  0.00    +0.002 C 
ATOM     26  C   UNL     1      35.605 -20.484 -20.611  0.00  0.00    +0.031 C 
BRANCH  26  29
ATOM     27  N   UNL     1      36.726 -21.508 -18.646  0.00  0.00    -0.343 N 
ATOM     28  N   UNL     1      35.018 -22.652 -19.757  0.00  0.00    -0.285 NA
ATOM     29  C   UNL     1      35.774 -21.573 -19.662  0.00  0.00    +0.117 C 
ATOM     30  H   UNL     1      36.823 -22.257 -18.014  0.00  0.00    +0.144 HD
ATOM     31  H   UNL     1      37.301 -20.714 -18.561  0.00  0.00    +0.144 HD
ATOM     32  H   UNL     1      35.130 -23.390 -19.115  0.00  0.00    +0.188 HD
ENDBRANCH  26  29
ENDBRANCH  20  21
ENDBRANCH   2  20
TORSDOF 7
ENDMDL
MODEL 8
REMARK VINA RESULT:      -9.6      5.263      8.334
REMARK  Name = 24963036
REMARK  7 active torsions:
REMARK  status: ('A' for Active; 'I' for Inactive)
REMARK    1  A    between atoms: N_2  and  C_20
REMARK    2  A    between atoms: C_3  and  C_7
REMARK    3  A    between atoms: C_11  and  C_12
REMARK    4  A    between atoms: C_12  and  O_13
REMARK    5  A    between atoms: O_13  and  C_14
REMARK    6  A    between atoms: C_20  and  C_21
REMARK    7  A    between atoms: C_26  and  C_29
REMARK                            x       y       z     vdW  Elec       q    Type
REMARK                         _______ _______ _______ _____ _____    ______ ____
ROOT
ATOM      1  O   UNL     1      36.853 -18.719 -20.887  0.00  0.00    -0.273 OA
ATOM      2  N   UNL     1      35.617 -20.619 -20.354  0.00  0.00    -0.299 N 
ATOM      3  C   UNL     1      35.814 -19.374 -20.928  0.00  0.00    +0.241 C 
ATOM      4  H   UNL     1      34.736 -21.046 -20.456  0.00  0.00    +0.150 HD
ENDROOT
BRANCH   3   7
ATOM      5  O   UNL     1      34.853 -16.354 -20.325  0.00  0.00    -0.272 OA
ATOM      6  N   UNL     1      34.948 -17.609 -22.267  0.00  0.00    -0.271 N 
ATOM      7  C   UNL     1      34.600 -18.886 -21.658  0.00  0.00    +0.152 C 
ATOM      8  C   UNL     1      34.243 -19.791 -22.832  0.00  0.00    +0.031 C 
ATOM      9  C   UNL     1      35.088 -19.236 -23.977  0.00  0.00    +0.024 C 
ATOM     10  C   UNL     1      35.089 -17.737 -23.715  0.00  0.00    +0.094 C 
ATOM     11  C   UNL     1      34.976 -16.424 -21.549  0.00  0.00    +0.256 C 
BRANCH  11  12
ATOM     12  C   UNL     1      35.182 -15.173 -22.366  0.00  0.00    +0.227 C 
BRANCH  12  13
ATOM     13  O   UNL     1      33.907 -14.745 -22.775  0.00  0.00    -0.347 OA
BRANCH  13  14
ATOM     14  C   UNL     1      33.572 -13.471 -22.237  0.00  0.00    +0.116 C 
ATOM     15  C   UNL     1      33.183 -12.522 -23.370  0.00  0.00    +0.030 C 
ATOM     16  C   UNL     1      32.443 -13.624 -21.220  0.00  0.00    +0.030 C 
ATOM     17  C   UNL     1      32.721 -11.169 -22.837  0.00  0.00    +0.002 C 
ATOM     18  C   UNL     1      31.981 -12.271 -20.685  0.00  0.00    +0.002 C 
ATOM     19  C   UNL     1      31.594 -11.323 -21.818  0.00  0.00    +0.000 C 
ENDBRANCH  13  14
ENDBRANCH  12  13
ENDBRANCH  11  12
ENDBRANCH   3   7
BRANCH   2  20
ATOM     20  C   UNL     1      36.641 -21.320 -19.614  0.00  0.00    +0.116 C 
BRANCH  20  21
ATOM     21  C   UNL     1      36.085 -22.012 -18.403  0.00  0.00    -0.003 C 
ATOM     22  C   UNL     1      36.877 -22.170 -17.266  0.00  0.00    -0.003 C 
ATOM     23  C   UNL     1      34.778 -22.497 -18.416  0.00  0.00    -0.003 C 
ATOM     24  C   UNL     1      36.361 -22.815 -16.141  0.00  0.00    +0.002 C 
ATOM     25  C   UNL     1      34.262 -23.141 -17.292  0.00  0.00    +0.002 C 
ATOM     26  C   UNL     1      35.053 -23.300 -16.154  0.00  0.00    +0.031 C 
BRANCH  26  29
ATOM     27  N   UNL     1      34.940 -25.249 -14.620  0.00  0.00    -0.343 N 
ATOM     28  N   UNL     1      33.603 -23.371 -14.239  0.00  0.00    -0.285 NA
ATOM     29  C   UNL     1      34.515 -23.972 -14.982  0.00  0.00    +0.117 C 
ATOM     30  H   UNL     1      34.563 -25.685 -13.822  0.00  0.00    +0.144 HD
ATOM     31  H   UNL     1      35.616 -25.715 -15.163  0.00  0.00    +0.144 HD
ATOM     32  H   UNL     1      33.239 -23.823 -13.445  0.00  0.00    +0.188 HD
ENDBRANCH  26  29
ENDBRANCH  20  21
ENDBRANCH   2  20
TORSDOF 7
ENDMDL
MODEL 9
REMARK VINA RESULT:      -9.3      9.987     15.048
REMARK  Name = 24963036
REMARK  7 active torsions:
REMARK  status: ('A' for Active; 'I' for Inactive)
REMARK    1  A    between atoms: N_2  and  C_20
REMARK    2  A    between atoms: C_3  and  C_7
REMARK    3  A    between atoms: C_11  and  C_12
REMARK    4  A    between atoms: C_12  and  O_13
REMARK    5  A    between atoms: O_13  and  C_14
REMARK    6  A    between atoms: C_20  and  C_21
REMARK    7  A    between atoms: C_26  and  C_29
REMARK                            x       y       z     vdW  Elec       q    Type
REMARK                         _______ _______ _______ _____ _____    ______ ____
ROOT
ATOM      1  O   UNL     1      32.691 -14.004 -21.687  0.00  0.00    -0.273 OA
ATOM      2  N   UNL     1      32.710 -11.851 -22.572  0.00  0.00    -0.299 N 
ATOM      3  C   UNL     1      33.116 -13.171 -22.484  0.00  0.00    +0.241 C 
ATOM      4  H   UNL     1      33.126 -11.278 -23.256  0.00  0.00    +0.150 HD
ENDROOT
BRANCH   3   7
ATOM      5  O   UNL     1      35.336 -15.360 -21.655  0.00  0.00    -0.272 OA
ATOM      6  N   UNL     1      34.180 -14.970 -23.621  0.00  0.00    -0.271 N 
ATOM      7  C   UNL     1      34.150 -13.517 -23.512  0.00  0.00    +0.152 C 
ATOM      8  C   UNL     1      33.752 -13.032 -24.901  0.00  0.00    +0.031 C 
ATOM      9  C   UNL     1      32.904 -14.179 -25.448  0.00  0.00    +0.024 C 
ATOM     10  C   UNL     1      33.580 -15.416 -24.876  0.00  0.00    +0.094 C 
ATOM     11  C   UNL     1      34.841 -15.773 -22.705  0.00  0.00    +0.256 C 
BRANCH  11  12
ATOM     12  C   UNL     1      34.922 -17.235 -23.062  0.00  0.00    +0.227 C 
BRANCH  12  13
ATOM     13  O   UNL     1      36.093 -17.732 -22.461  0.00  0.00    -0.347 OA
BRANCH  13  14
ATOM     14  C   UNL     1      35.807 -18.610 -21.378  0.00  0.00    +0.116 C 
ATOM     15  C   UNL     1      34.659 -19.542 -21.763  0.00  0.00    +0.030 C 
ATOM     16  C   UNL     1      37.065 -19.392 -21.005  0.00  0.00    +0.030 C 
ATOM     17  C   UNL     1      34.378 -20.569 -20.669  0.00  0.00    +0.002 C 
ATOM     18  C   UNL     1      36.785 -20.418 -19.911  0.00  0.00    +0.002 C 
ATOM     19  C   UNL     1      35.637 -21.348 -20.295  0.00  0.00    +0.000 C 
ENDBRANCH  13  14
ENDBRANCH  12  13
ENDBRANCH  11  12
ENDBRANCH   3   7
BRANCH   2  20
ATOM     20  C   UNL     1      31.705 -11.273 -21.709  0.00  0.00    +0.116 C 
BRANCH  20  21
ATOM     21  C   UNL     1      31.672  -9.776 -21.808  0.00  0.00    -0.003 C 
ATOM     22  C   UNL     1      32.034  -8.997 -20.709  0.00  0.00    -0.003 C 
ATOM     23  C   UNL     1      31.279  -9.163 -22.998  0.00  0.00    -0.003 C 
ATOM     24  C   UNL     1      32.003  -7.604 -20.800  0.00  0.00    +0.002 C 
ATOM     25  C   UNL     1      31.248  -7.772 -23.089  0.00  0.00    +0.002 C 
ATOM     26  C   UNL     1      31.609  -6.993 -21.991  0.00  0.00    +0.031 C 
BRANCH  26  29
ATOM     27  N   UNL     1      30.702  -4.784 -21.309  0.00  0.00    -0.343 N 
ATOM     28  N   UNL     1      32.385  -4.918 -22.924  0.00  0.00    -0.285 NA
ATOM     29  C   UNL     1      31.576  -5.542 -22.086  0.00  0.00    +0.117 C 
ATOM     30  H   UNL     1      30.696  -3.803 -21.389  0.00  0.00    +0.144 HD
ATOM     31  H   UNL     1      30.089  -5.231 -20.681  0.00  0.00    +0.144 HD
ATOM     32  H   UNL     1      32.365  -3.937 -22.989  0.00  0.00    +0.188 HD
ENDBRANCH  26  29
ENDBRANCH  20  21
ENDBRANCH   2  20
TORSDOF 7
ENDMDL
