MODEL 1
REMARK VINA RESULT:     -11.1      0.000      0.000
REMARK  Name = 445018
REMARK  7 active torsions:
REMARK  status: ('A' for Active; 'I' for Inactive)
REMARK    1  A    between atoms: N_2  and  S_14
REMARK    2  A    between atoms: N_3  and  C_25
REMARK    3  A    between atoms: C_4  and  C_10
REMARK    4  A    between atoms: N_9  and  O_12
REMARK    5  A    between atoms: S_14  and  C_17
REMARK    6  A    between atoms: C_22  and  O_23
REMARK    7  A    between atoms: C_25  and  C_26
REMARK                            x       y       z     vdW  Elec       q    Type
REMARK                         _______ _______ _______ _____ _____    ______ ____
ROOT
ATOM      1  O   UNL     1      36.387 -22.823 -17.235  0.00  0.00    -0.275 OA
ATOM      2  N   UNL     1      33.292 -24.101 -14.886  0.00  0.00    -0.128 NA
ATOM      3  N   UNL     1      34.134 -23.388 -17.057  0.00  0.00    -0.260 N 
ATOM      4  C   UNL     1      34.561 -23.662 -14.249  0.00  0.00    +0.168 C 
ATOM      5  C   UNL     1      32.981 -23.429 -16.170  0.00  0.00    +0.192 C 
ATOM      6  C   UNL     1      35.349 -22.658 -15.081  0.00  0.00    +0.112 C 
ATOM      7  C   UNL     1      35.368 -22.974 -16.566  0.00  0.00    +0.229 C 
ENDROOT
BRANCH   4  10
ATOM      8  O   UNL     1      35.569 -25.692 -14.973  0.00  0.00    -0.272 OA
ATOM      9  N   UNL     1      35.757 -25.089 -12.750  0.00  0.00    -0.196 N 
ATOM     10  C   UNL     1      35.341 -24.920 -14.044  0.00  0.00    +0.261 C 
ATOM     11  H   UNL     1      35.545 -24.438 -12.043  0.00  0.00    +0.182 HD
BRANCH   9  12
ATOM     12  O   UNL     1      36.505 -26.246 -12.496  0.00  0.00    -0.295 OA
ATOM     13  H   UNL     1      37.413 -26.121 -12.811  0.00  0.00    +0.241 HD
ENDBRANCH   9  12
ENDBRANCH   4  10
BRANCH   2  14
ATOM     14  S   UNL     1      31.967 -24.404 -13.851  0.00  0.00    +0.065 S 
ATOM     15  O   UNL     1      31.901 -23.363 -12.847  0.00  0.00    -0.153 OA
ATOM     16  O   UNL     1      31.969 -25.802 -13.473  0.00  0.00    -0.153 OA
BRANCH  14  17
ATOM     17  C   UNL     1      30.629 -24.151 -14.976  0.00  0.00    +0.122 C 
ATOM     18  C   UNL     1      30.139 -22.870 -15.169  0.00  0.00    +0.023 C 
ATOM     19  C   UNL     1      30.092 -25.238 -15.645  0.00  0.00    +0.023 C 
ATOM     20  C   UNL     1      29.081 -22.669 -16.056  0.00  0.00    +0.038 C 
ATOM     21  C   UNL     1      29.034 -25.038 -16.534  0.00  0.00    +0.038 C 
ATOM     22  C   UNL     1      28.529 -23.754 -16.739  0.00  0.00    +0.139 C 
BRANCH  22  23
ATOM     23  O   UNL     1      27.498 -23.558 -17.606  0.00  0.00    -0.471 OA
ATOM     24  C   UNL     1      26.808 -22.313 -17.522  0.00  0.00    +0.252 C 
ENDBRANCH  22  23
ENDBRANCH  14  17
ENDBRANCH   2  14
BRANCH   3  25
ATOM     25  C   UNL     1      33.925 -23.655 -18.470  0.00  0.00    +0.121 C 
BRANCH  25  26
ATOM     26  C   UNL     1      34.033 -22.407 -19.299  0.00  0.00    -0.002 C 
ATOM     27  C   UNL     1      32.884 -21.693 -19.620  0.00  0.00    -0.003 C 
ATOM     28  C   UNL     1      35.280 -21.977 -19.738  0.00  0.00    -0.003 C 
ATOM     29  C   UNL     1      32.983 -20.534 -20.389  0.00  0.00    -0.000 C 
ATOM     30  C   UNL     1      35.379 -20.819 -20.508  0.00  0.00    -0.000 C 
ATOM     31  C   UNL     1      34.231 -20.097 -20.834  0.00  0.00    -0.000 C 
ENDBRANCH  25  26
ENDBRANCH   3  25
TORSDOF 7
ENDMDL
MODEL 2
REMARK VINA RESULT:      -8.5      2.017      2.922
REMARK  Name = 445018
REMARK  7 active torsions:
REMARK  status: ('A' for Active; 'I' for Inactive)
REMARK    1  A    between atoms: N_2  and  S_14
REMARK    2  A    between atoms: N_3  and  C_25
REMARK    3  A    between atoms: C_4  and  C_10
REMARK    4  A    between atoms: N_9  and  O_12
REMARK    5  A    between atoms: S_14  and  C_17
REMARK    6  A    between atoms: C_22  and  O_23
REMARK    7  A    between atoms: C_25  and  C_26
REMARK                            x       y       z     vdW  Elec       q    Type
REMARK                         _______ _______ _______ _____ _____    ______ ____
ROOT
ATOM      1  O   UNL     1      37.954 -20.551 -17.076  0.00  0.00    -0.275 OA
ATOM      2  N   UNL     1      36.061 -23.935 -15.775  0.00  0.00    -0.128 NA
ATOM      3  N   UNL     1      36.434 -22.263 -17.505  0.00  0.00    -0.260 N 
ATOM      4  C   UNL     1      36.814 -23.099 -14.804  0.00  0.00    +0.168 C 
ATOM      5  C   UNL     1      35.477 -23.185 -16.912  0.00  0.00    +0.192 C 
ATOM      6  C   UNL     1      36.915 -21.633 -15.207  0.00  0.00    +0.112 C 
ATOM      7  C   UNL     1      37.180 -21.422 -16.686  0.00  0.00    +0.229 C 
ENDROOT
BRANCH   4  10
ATOM      8  O   UNL     1      38.980 -23.619 -15.640  0.00  0.00    -0.272 OA
ATOM      9  N   UNL     1      38.376 -24.408 -13.553  0.00  0.00    -0.196 N 
ATOM     10  C   UNL     1      38.167 -23.730 -14.725  0.00  0.00    +0.261 C 
ATOM     11  H   UNL     1      37.687 -24.466 -12.852  0.00  0.00    +0.182 HD
BRANCH   9  12
ATOM     12  O   UNL     1      39.633 -25.012 -13.414  0.00  0.00    -0.295 OA
ATOM     13  H   UNL     1      40.068 -24.675 -12.616  0.00  0.00    +0.241 HD
ENDBRANCH   9  12
ENDBRANCH   4  10
BRANCH   2  14
ATOM     14  S   UNL     1      35.108 -25.201 -15.135  0.00  0.00    +0.065 S 
ATOM     15  O   UNL     1      35.529 -25.472 -13.776  0.00  0.00    -0.153 OA
ATOM     16  O   UNL     1      35.017 -26.266 -16.111  0.00  0.00    -0.153 OA
BRANCH  14  17
ATOM     17  C   UNL     1      33.535 -24.400 -15.060  0.00  0.00    +0.122 C 
ATOM     18  C   UNL     1      32.889 -24.065 -16.238  0.00  0.00    +0.023 C 
ATOM     19  C   UNL     1      32.976 -24.121 -13.825  0.00  0.00    +0.023 C 
ATOM     20  C   UNL     1      31.647 -23.433 -16.180  0.00  0.00    +0.038 C 
ATOM     21  C   UNL     1      31.733 -23.488 -13.765  0.00  0.00    +0.038 C 
ATOM     22  C   UNL     1      31.069 -23.144 -14.943  0.00  0.00    +0.139 C 
BRANCH  22  23
ATOM     23  O   UNL     1      29.857 -22.528 -14.886  0.00  0.00    -0.471 OA
ATOM     24  C   UNL     1      28.852 -22.989 -15.787  0.00  0.00    +0.252 C 
ENDBRANCH  22  23
ENDBRANCH  14  17
ENDBRANCH   2  14
BRANCH   3  25
ATOM     25  C   UNL     1      36.481 -22.157 -18.954  0.00  0.00    +0.121 C 
BRANCH  25  26
ATOM     26  C   UNL     1      35.204 -21.602 -19.518  0.00  0.00    -0.002 C 
ATOM     27  C   UNL     1      33.983 -22.072 -19.047  0.00  0.00    -0.003 C 
ATOM     28  C   UNL     1      35.255 -20.626 -20.506  0.00  0.00    -0.003 C 
ATOM     29  C   UNL     1      32.797 -21.557 -19.571  0.00  0.00    -0.000 C 
ATOM     30  C   UNL     1      34.069 -20.111 -21.029  0.00  0.00    -0.000 C 
ATOM     31  C   UNL     1      32.840 -20.577 -20.562  0.00  0.00    -0.000 C 
ENDBRANCH  25  26
ENDBRANCH   3  25
TORSDOF 7
ENDMDL
