MODEL 1
REMARK VINA RESULT:     -12.5      0.000      0.000
REMARK  Name = 448407
REMARK  4 active torsions:
REMARK  status: ('A' for Active; 'I' for Inactive)
REMARK    1  A    between atoms: C_1  and  N_8
REMARK    2  A    between atoms: C_2  and  C_23
REMARK    3  A    between atoms: N_22  and  C_25
REMARK    4  A    between atoms: C_25  and  C_28
REMARK                            x       y       z     vdW  Elec       q    Type
REMARK                         _______ _______ _______ _____ _____    ______ ____
ROOT
ATOM      1  C   UNL     1      35.796 -19.214 -21.457  0.00  0.00    +0.090 C 
ATOM      2  C   UNL     1      34.795 -20.968 -20.097  0.00  0.00    +0.055 C 
ATOM      3  C   UNL     1      34.663 -19.904 -20.990  0.00  0.00    +0.023 C 
ATOM      4  C   UNL     1      37.063 -19.621 -21.004  0.00  0.00    +0.018 C 
ATOM      5  C   UNL     1      36.059 -21.358 -19.658  0.00  0.00    +0.005 C 
ATOM      6  C   UNL     1      37.194 -20.684 -20.112  0.00  0.00    +0.002 C 
ENDROOT
BRANCH   1   8
ATOM      7  O   UNL     1      34.632 -14.161 -21.777  0.00  0.00    -0.207 OA
ATOM      8  N   UNL     1      35.665 -18.155 -22.347  0.00  0.00    -0.137 N 
ATOM      9  N   UNL     1      35.170 -18.261 -23.609  0.00  0.00    -0.215 N 
ATOM     10  N   UNL     1      35.475 -16.875 -21.831  0.00  0.00    -0.143 NA
ATOM     11  N   UNL     1      34.052 -16.553 -24.981  0.00  0.00    -0.309 NA
ATOM     12  N   UNL     1      33.806 -14.394 -23.930  0.00  0.00    -0.251 NA
ATOM     13  N   UNL     1      33.017 -14.742 -26.076  0.00  0.00    -0.283 N 
ATOM     14  C   UNL     1      34.640 -17.063 -23.963  0.00  0.00    +0.243 C 
ATOM     15  C   UNL     1      34.871 -16.225 -22.777  0.00  0.00    +0.241 C 
ATOM     16  C   UNL     1      34.424 -14.825 -22.781  0.00  0.00    +0.239 C 
ATOM     17  C   UNL     1      33.641 -15.218 -24.946  0.00  0.00    +0.208 C 
ATOM     18  H   UNL     1      35.191 -19.069 -24.170  0.00  0.00    +0.175 HD
ATOM     19  H   UNL     1      32.880 -15.335 -26.851  0.00  0.00    +0.156 HD
ATOM     20  H   UNL     1      32.705 -13.809 -26.110  0.00  0.00    +0.156 HD
ENDBRANCH   1   8
BRANCH   2  23
ATOM     21  O   UNL     1      32.558 -21.647 -20.286  0.00  0.00    -0.270 OA
ATOM     22  N   UNL     1      33.732 -22.383 -18.426  0.00  0.00    -0.297 N 
ATOM     23  C   UNL     1      33.613 -21.672 -19.626  0.00  0.00    +0.246 C 
ATOM     24  H   UNL     1      34.596 -22.358 -17.955  0.00  0.00    +0.150 HD
BRANCH  22  25
ATOM     25  C   UNL     1      32.656 -23.149 -17.841  0.00  0.00    +0.117 C 
BRANCH  25  28
ATOM     26 CL   UNL     1      36.106 -23.829 -14.010  0.00  0.00    -0.082 Cl
ATOM     27 CL   UNL     1      30.820 -24.523 -13.175  0.00  0.00    -0.082 Cl
ATOM     28  C   UNL     1      32.928 -23.496 -16.406  0.00  0.00    -0.001 C 
ATOM     29  C   UNL     1      31.870 -23.810 -15.561  0.00  0.00    +0.009 C 
ATOM     30  C   UNL     1      34.236 -23.500 -15.936  0.00  0.00    +0.009 C 
ATOM     31  C   UNL     1      34.490 -23.822 -14.603  0.00  0.00    +0.058 C 
ATOM     32  C   UNL     1      32.122 -24.133 -14.228  0.00  0.00    +0.058 C 
ATOM     33  C   UNL     1      33.433 -24.138 -13.748  0.00  0.00    +0.023 C 
ENDBRANCH  25  28
ENDBRANCH  22  25
ENDBRANCH   2  23
TORSDOF 4
ENDMDL
MODEL 2
REMARK VINA RESULT:     -12.3      4.890     10.587
REMARK  Name = 448407
REMARK  4 active torsions:
REMARK  status: ('A' for Active; 'I' for Inactive)
REMARK    1  A    between atoms: C_1  and  N_8
REMARK    2  A    between atoms: C_2  and  C_23
REMARK    3  A    between atoms: N_22  and  C_25
REMARK    4  A    between atoms: C_25  and  C_28
REMARK                            x       y       z     vdW  Elec       q    Type
REMARK                         _______ _______ _______ _____ _____    ______ ____
ROOT
ATOM      1  C   UNL     1      34.979 -22.933 -17.355  0.00  0.00    +0.090 C 
ATOM      2  C   UNL     1      35.326 -21.564 -19.338  0.00  0.00    +0.055 C 
ATOM      3  C   UNL     1      35.829 -22.205 -18.205  0.00  0.00    +0.023 C 
ATOM      4  C   UNL     1      33.612 -23.003 -17.672  0.00  0.00    +0.018 C 
ATOM      5  C   UNL     1      33.967 -21.644 -19.638  0.00  0.00    +0.005 C 
ATOM      6  C   UNL     1      33.109 -22.364 -18.805  0.00  0.00    +0.002 C 
ENDROOT
BRANCH   1   8
ATOM      7  O   UNL     1      33.730 -24.531 -12.572  0.00  0.00    -0.207 OA
ATOM      8  N   UNL     1      35.481 -23.573 -16.227  0.00  0.00    -0.137 N 
ATOM      9  N   UNL     1      36.748 -23.429 -15.755  0.00  0.00    -0.215 N 
ATOM     10  N   UNL     1      34.593 -23.911 -15.208  0.00  0.00    -0.143 NA
ATOM     11  N   UNL     1      37.581 -23.687 -13.455  0.00  0.00    -0.309 NA
ATOM     12  N   UNL     1      35.908 -24.276 -11.819  0.00  0.00    -0.251 NA
ATOM     13  N   UNL     1      38.113 -23.995 -11.181  0.00  0.00    -0.283 N 
ATOM     14  C   UNL     1      36.737 -23.667 -14.420  0.00  0.00    +0.243 C 
ATOM     15  C   UNL     1      35.325 -23.970 -14.139  0.00  0.00    +0.241 C 
ATOM     16  C   UNL     1      34.911 -24.286 -12.766  0.00  0.00    +0.239 C 
ATOM     17  C   UNL     1      37.148 -23.992 -12.163  0.00  0.00    +0.208 C 
ATOM     18  H   UNL     1      37.539 -23.193 -16.291  0.00  0.00    +0.175 HD
ATOM     19  H   UNL     1      39.048 -23.786 -11.408  0.00  0.00    +0.156 HD
ATOM     20  H   UNL     1      37.867 -24.203 -10.251  0.00  0.00    +0.156 HD
ENDBRANCH   1   8
BRANCH   2  23
ATOM     21  O   UNL     1      37.287 -21.320 -20.600  0.00  0.00    -0.270 OA
ATOM     22  N   UNL     1      35.808 -19.533 -20.589  0.00  0.00    -0.297 N 
ATOM     23  C   UNL     1      36.219 -20.816 -20.208  0.00  0.00    +0.246 C 
ATOM     24  H   UNL     1      34.952 -19.196 -20.240  0.00  0.00    +0.150 HD
BRANCH  22  25
ATOM     25  C   UNL     1      36.574 -18.677 -21.465  0.00  0.00    +0.117 C 
BRANCH  25  28
ATOM     26 CL   UNL     1      33.754 -19.327 -25.785  0.00  0.00    -0.082 Cl
ATOM     27 CL   UNL     1      34.359 -14.456 -23.543  0.00  0.00    -0.082 Cl
ATOM     28  C   UNL     1      35.724 -18.074 -22.546  0.00  0.00    -0.001 C 
ATOM     29  C   UNL     1      35.469 -16.707 -22.538  0.00  0.00    +0.009 C 
ATOM     30  C   UNL     1      35.199 -18.888 -23.543  0.00  0.00    +0.009 C 
ATOM     31  C   UNL     1      34.409 -18.328 -24.546  0.00  0.00    +0.058 C 
ATOM     32  C   UNL     1      34.680 -16.147 -23.542  0.00  0.00    +0.058 C 
ATOM     33  C   UNL     1      34.148 -16.957 -24.546  0.00  0.00    +0.023 C 
ENDBRANCH  25  28
ENDBRANCH  22  25
ENDBRANCH   2  23
TORSDOF 4
ENDMDL
MODEL 3
REMARK VINA RESULT:     -12.3      4.881     10.558
REMARK  Name = 448407
REMARK  4 active torsions:
REMARK  status: ('A' for Active; 'I' for Inactive)
REMARK    1  A    between atoms: C_1  and  N_8
REMARK    2  A    between atoms: C_2  and  C_23
REMARK    3  A    between atoms: N_22  and  C_25
REMARK    4  A    between atoms: C_25  and  C_28
REMARK                            x       y       z     vdW  Elec       q    Type
REMARK                         _______ _______ _______ _____ _____    ______ ____
ROOT
ATOM      1  C   UNL     1      34.953 -22.941 -17.383  0.00  0.00    +0.090 C 
ATOM      2  C   UNL     1      35.304 -21.568 -19.362  0.00  0.00    +0.055 C 
ATOM      3  C   UNL     1      35.805 -22.210 -18.230  0.00  0.00    +0.023 C 
ATOM      4  C   UNL     1      33.586 -23.011 -17.704  0.00  0.00    +0.018 C 
ATOM      5  C   UNL     1      33.946 -21.647 -19.666  0.00  0.00    +0.005 C 
ATOM      6  C   UNL     1      33.087 -22.369 -18.837  0.00  0.00    +0.002 C 
ENDROOT
BRANCH   1   8
ATOM      7  O   UNL     1      33.712 -24.487 -12.580  0.00  0.00    -0.207 OA
ATOM      8  N   UNL     1      35.451 -23.583 -16.255  0.00  0.00    -0.137 N 
ATOM      9  N   UNL     1      36.724 -23.460 -15.794  0.00  0.00    -0.215 N 
ATOM     10  N   UNL     1      34.566 -23.899 -15.228  0.00  0.00    -0.143 NA
ATOM     11  N   UNL     1      37.571 -23.720 -13.499  0.00  0.00    -0.309 NA
ATOM     12  N   UNL     1      35.900 -24.268 -11.847  0.00  0.00    -0.251 NA
ATOM     13  N   UNL     1      38.115 -24.023 -11.227  0.00  0.00    -0.283 N 
ATOM     14  C   UNL     1      36.720 -23.690 -14.457  0.00  0.00    +0.243 C 
ATOM     15  C   UNL     1      35.305 -23.965 -14.164  0.00  0.00    +0.241 C 
ATOM     16  C   UNL     1      34.896 -24.266 -12.786  0.00  0.00    +0.239 C 
ATOM     17  C   UNL     1      37.143 -24.009 -12.202  0.00  0.00    +0.208 C 
ATOM     18  H   UNL     1      37.515 -23.241 -16.337  0.00  0.00    +0.175 HD
ATOM     19  H   UNL     1      39.052 -23.834 -11.463  0.00  0.00    +0.156 HD
ATOM     20  H   UNL     1      37.873 -24.221 -10.294  0.00  0.00    +0.156 HD
ENDBRANCH   1   8
BRANCH   2  23
ATOM     21  O   UNL     1      37.266 -21.322 -20.622  0.00  0.00    -0.270 OA
ATOM     22  N   UNL     1      35.792 -19.531 -20.602  0.00  0.00    -0.297 N 
ATOM     23  C   UNL     1      36.200 -20.817 -20.227  0.00  0.00    +0.246 C 
ATOM     24  H   UNL     1      34.937 -19.194 -20.252  0.00  0.00    +0.150 HD
BRANCH  22  25
ATOM     25  C   UNL     1      36.561 -18.673 -21.474  0.00  0.00    +0.117 C 
BRANCH  25  28
ATOM     26 CL   UNL     1      34.357 -14.441 -23.540  0.00  0.00    -0.082 Cl
ATOM     27 CL   UNL     1      33.747 -19.302 -25.801  0.00  0.00    -0.082 Cl
ATOM     28  C   UNL     1      35.713 -18.065 -22.554  0.00  0.00    -0.001 C 
ATOM     29  C   UNL     1      35.189 -18.874 -23.555  0.00  0.00    +0.009 C 
ATOM     30  C   UNL     1      35.461 -16.698 -22.542  0.00  0.00    +0.009 C 
ATOM     31  C   UNL     1      34.674 -16.132 -23.545  0.00  0.00    +0.058 C 
ATOM     32  C   UNL     1      34.402 -18.309 -24.558  0.00  0.00    +0.058 C 
ATOM     33  C   UNL     1      34.144 -16.937 -24.554  0.00  0.00    +0.023 C 
ENDBRANCH  25  28
ENDBRANCH  22  25
ENDBRANCH   2  23
TORSDOF 4
ENDMDL
MODEL 4
REMARK VINA RESULT:     -11.7      4.131      9.769
REMARK  Name = 448407
REMARK  4 active torsions:
REMARK  status: ('A' for Active; 'I' for Inactive)
REMARK    1  A    between atoms: C_1  and  N_8
REMARK    2  A    between atoms: C_2  and  C_23
REMARK    3  A    between atoms: N_22  and  C_25
REMARK    4  A    between atoms: C_25  and  C_28
REMARK                            x       y       z     vdW  Elec       q    Type
REMARK                         _______ _______ _______ _____ _____    ______ ____
ROOT
ATOM      1  C   UNL     1      34.536 -22.181 -18.706  0.00  0.00    +0.090 C 
ATOM      2  C   UNL     1      34.950 -20.763 -20.641  0.00  0.00    +0.055 C 
ATOM      3  C   UNL     1      34.076 -21.514 -19.855  0.00  0.00    +0.023 C 
ATOM      4  C   UNL     1      35.896 -22.072 -18.367  0.00  0.00    +0.018 C 
ATOM      5  C   UNL     1      36.296 -20.666 -20.290  0.00  0.00    +0.005 C 
ATOM      6  C   UNL     1      36.769 -21.321 -19.153  0.00  0.00    +0.002 C 
ENDROOT
BRANCH   1   8
ATOM      7  O   UNL     1      29.561 -22.632 -17.277  0.00  0.00    -0.207 OA
ATOM      8  N   UNL     1      33.665 -22.928 -17.922  0.00  0.00    -0.137 N 
ATOM      9  N   UNL     1      33.973 -23.448 -16.704  0.00  0.00    -0.215 N 
ATOM     10  N   UNL     1      32.298 -22.697 -18.046  0.00  0.00    -0.143 NA
ATOM     11  N   UNL     1      32.476 -23.985 -14.828  0.00  0.00    -0.309 NA
ATOM     12  N   UNL     1      30.140 -23.521 -15.215  0.00  0.00    -0.251 NA
ATOM     13  N   UNL     1      30.832 -24.407 -13.194  0.00  0.00    -0.283 N 
ATOM     14  C   UNL     1      32.827 -23.575 -15.990  0.00  0.00    +0.243 C 
ATOM     15  C   UNL     1      31.795 -23.075 -16.912  0.00  0.00    +0.241 C 
ATOM     16  C   UNL     1      30.390 -23.056 -16.484  0.00  0.00    +0.239 C 
ATOM     17  C   UNL     1      31.130 -23.950 -14.458  0.00  0.00    +0.208 C 
ATOM     18  H   UNL     1      34.875 -23.690 -16.392  0.00  0.00    +0.175 HD
ATOM     19  H   UNL     1      31.551 -24.734 -12.606  0.00  0.00    +0.156 HD
ATOM     20  H   UNL     1      29.899 -24.407 -12.878  0.00  0.00    +0.156 HD
ENDBRANCH   1   8
BRANCH   2  23
ATOM     21  O   UNL     1      33.235 -19.935 -22.009  0.00  0.00    -0.270 OA
ATOM     22  N   UNL     1      35.415 -19.581 -22.718  0.00  0.00    -0.297 N 
ATOM     23  C   UNL     1      34.457 -20.079 -21.826  0.00  0.00    +0.246 C 
ATOM     24  H   UNL     1      36.365 -19.732 -22.511  0.00  0.00    +0.150 HD
BRANCH  22  25
ATOM     25  C   UNL     1      35.083 -18.860 -23.925  0.00  0.00    +0.117 C 
BRANCH  25  28
ATOM     26 CL   UNL     1      33.237 -14.308 -25.631  0.00  0.00    -0.082 Cl
ATOM     27 CL   UNL     1      35.091 -14.867 -20.594  0.00  0.00    -0.082 Cl
ATOM     28  C   UNL     1      34.773 -17.416 -23.650  0.00  0.00    -0.001 C 
ATOM     29  C   UNL     1      35.045 -16.881 -22.397  0.00  0.00    +0.009 C 
ATOM     30  C   UNL     1      34.216 -16.631 -24.652  0.00  0.00    +0.009 C 
ATOM     31  C   UNL     1      33.927 -15.290 -24.398  0.00  0.00    +0.058 C 
ATOM     32  C   UNL     1      34.757 -15.540 -22.142  0.00  0.00    +0.058 C 
ATOM     33  C   UNL     1      34.197 -14.744 -23.142  0.00  0.00    +0.023 C 
ENDBRANCH  25  28
ENDBRANCH  22  25
ENDBRANCH   2  23
TORSDOF 4
ENDMDL
MODEL 5
REMARK VINA RESULT:     -11.7      5.384     10.040
REMARK  Name = 448407
REMARK  4 active torsions:
REMARK  status: ('A' for Active; 'I' for Inactive)
REMARK    1  A    between atoms: C_1  and  N_8
REMARK    2  A    between atoms: C_2  and  C_23
REMARK    3  A    between atoms: N_22  and  C_25
REMARK    4  A    between atoms: C_25  and  C_28
REMARK                            x       y       z     vdW  Elec       q    Type
REMARK                         _______ _______ _______ _____ _____    ______ ____
ROOT
ATOM      1  C   UNL     1      33.575 -24.321 -14.370  0.00  0.00    +0.090 C 
ATOM      2  C   UNL     1      31.803 -23.591 -15.872  0.00  0.00    +0.055 C 
ATOM      3  C   UNL     1      33.154 -23.645 -15.529  0.00  0.00    +0.023 C 
ATOM      4  C   UNL     1      32.603 -24.943 -13.566  0.00  0.00    +0.018 C 
ATOM      5  C   UNL     1      30.853 -24.213 -15.063  0.00  0.00    +0.005 C 
ATOM      6  C   UNL     1      31.253 -24.889 -13.910  0.00  0.00    +0.002 C 
ENDROOT
BRANCH   1   8
ATOM      7  O   UNL     1      38.333 -22.969 -15.957  0.00  0.00    -0.207 OA
ATOM      8  N   UNL     1      34.921 -24.376 -14.028  0.00  0.00    -0.137 N 
ATOM      9  N   UNL     1      35.520 -25.427 -13.408  0.00  0.00    -0.215 N 
ATOM     10  N   UNL     1      35.830 -23.654 -14.798  0.00  0.00    -0.143 NA
ATOM     11  N   UNL     1      37.873 -26.139 -13.496  0.00  0.00    -0.309 NA
ATOM     12  N   UNL     1      39.306 -24.774 -14.876  0.00  0.00    -0.251 NA
ATOM     13  N   UNL     1      40.169 -26.602 -13.752  0.00  0.00    -0.283 N 
ATOM     14  C   UNL     1      36.834 -25.433 -13.747  0.00  0.00    +0.243 C 
ATOM     15  C   UNL     1      36.960 -24.269 -14.638  0.00  0.00    +0.241 C 
ATOM     16  C   UNL     1      38.268 -23.942 -15.220  0.00  0.00    +0.239 C 
ATOM     17  C   UNL     1      39.099 -25.796 -14.069  0.00  0.00    +0.208 C 
ATOM     18  H   UNL     1      35.076 -26.076 -12.815  0.00  0.00    +0.175 HD
ATOM     19  H   UNL     1      40.044 -27.373 -13.151  0.00  0.00    +0.156 HD
ATOM     20  H   UNL     1      41.059 -26.409 -14.126  0.00  0.00    +0.156 HD
ENDBRANCH   1   8
BRANCH   2  23
ATOM     21  O   UNL     1      30.189 -22.604 -17.255  0.00  0.00    -0.270 OA
ATOM     22  N   UNL     1      32.389 -22.539 -17.987  0.00  0.00    -0.297 N 
ATOM     23  C   UNL     1      31.386 -22.889 -17.075  0.00  0.00    +0.246 C 
ATOM     24  H   UNL     1      33.316 -22.797 -17.781  0.00  0.00    +0.150 HD
BRANCH  22  25
ATOM     25  C   UNL     1      32.135 -21.820 -19.214  0.00  0.00    +0.117 C 
BRANCH  25  28
ATOM     26 CL   UNL     1      34.437 -18.838 -22.798  0.00  0.00    -0.082 Cl
ATOM     27 CL   UNL     1      37.334 -21.799 -19.340  0.00  0.00    -0.082 Cl
ATOM     28  C   UNL     1      33.403 -21.313 -19.841  0.00  0.00    -0.001 C 
ATOM     29  C   UNL     1      34.631 -21.743 -19.353  0.00  0.00    +0.009 C 
ATOM     30  C   UNL     1      33.334 -20.418 -20.902  0.00  0.00    +0.009 C 
ATOM     31  C   UNL     1      34.511 -19.946 -21.484  0.00  0.00    +0.058 C 
ATOM     32  C   UNL     1      35.808 -21.273 -19.935  0.00  0.00    +0.058 C 
ATOM     33  C   UNL     1      35.748 -20.373 -21.001  0.00  0.00    +0.023 C 
ENDBRANCH  25  28
ENDBRANCH  22  25
ENDBRANCH   2  23
TORSDOF 4
ENDMDL
MODEL 6
REMARK VINA RESULT:     -11.6      5.031     10.713
REMARK  Name = 448407
REMARK  4 active torsions:
REMARK  status: ('A' for Active; 'I' for Inactive)
REMARK    1  A    between atoms: C_1  and  N_8
REMARK    2  A    between atoms: C_2  and  C_23
REMARK    3  A    between atoms: N_22  and  C_25
REMARK    4  A    between atoms: C_25  and  C_28
REMARK                            x       y       z     vdW  Elec       q    Type
REMARK                         _______ _______ _______ _____ _____    ______ ____
ROOT
ATOM      1  C   UNL     1      35.102 -22.766 -16.716  0.00  0.00    +0.090 C 
ATOM      2  C   UNL     1      35.609 -21.969 -18.959  0.00  0.00    +0.055 C 
ATOM      3  C   UNL     1      35.951 -22.095 -17.613  0.00  0.00    +0.023 C 
ATOM      4  C   UNL     1      33.901 -23.308 -17.206  0.00  0.00    +0.018 C 
ATOM      5  C   UNL     1      34.414 -22.513 -19.429  0.00  0.00    +0.005 C 
ATOM      6  C   UNL     1      33.560 -23.183 -18.552  0.00  0.00    +0.002 C 
ENDROOT
BRANCH   1   8
ATOM      7  O   UNL     1      38.718 -24.653 -13.498  0.00  0.00    -0.207 OA
ATOM      8  N   UNL     1      35.443 -22.893 -15.374  0.00  0.00    -0.137 N 
ATOM      9  N   UNL     1      34.556 -23.111 -14.367  0.00  0.00    -0.215 N 
ATOM     10  N   UNL     1      36.706 -23.386 -15.056  0.00  0.00    -0.143 NA
ATOM     11  N   UNL     1      34.920 -24.206 -12.195  0.00  0.00    -0.309 NA
ATOM     12  N   UNL     1      37.166 -24.999 -11.810  0.00  0.00    -0.251 NA
ATOM     13  N   UNL     1      35.536 -25.291 -10.196  0.00  0.00    -0.283 N 
ATOM     14  C   UNL     1      35.201 -23.750 -13.359  0.00  0.00    +0.243 C 
ATOM     15  C   UNL     1      36.573 -23.892 -13.869  0.00  0.00    +0.241 C 
ATOM     16  C   UNL     1      37.589 -24.552 -13.039  0.00  0.00    +0.239 C 
ATOM     17  C   UNL     1      35.914 -24.827 -11.436  0.00  0.00    +0.208 C 
ATOM     18  H   UNL     1      33.607 -22.850 -14.369  0.00  0.00    +0.175 HD
ATOM     19  H   UNL     1      34.606 -25.177  -9.890  0.00  0.00    +0.156 HD
ATOM     20  H   UNL     1      36.193 -25.737  -9.616  0.00  0.00    +0.156 HD
ENDBRANCH   1   8
BRANCH   2  23
ATOM     21  O   UNL     1      37.542 -21.818 -20.277  0.00  0.00    -0.270 OA
ATOM     22  N   UNL     1      36.113 -19.991 -20.285  0.00  0.00    -0.297 N 
ATOM     23  C   UNL     1      36.499 -21.272 -19.874  0.00  0.00    +0.246 C 
ATOM     24  H   UNL     1      35.276 -19.620 -19.926  0.00  0.00    +0.150 HD
BRANCH  22  25
ATOM     25  C   UNL     1      36.879 -19.184 -21.206  0.00  0.00    +0.117 C 
BRANCH  25  28
ATOM     26 CL   UNL     1      34.643 -14.839 -22.983  0.00  0.00    -0.082 Cl
ATOM     27 CL   UNL     1      33.943 -19.571 -25.481  0.00  0.00    -0.082 Cl
ATOM     28  C   UNL     1      36.005 -18.516 -22.229  0.00  0.00    -0.001 C 
ATOM     29  C   UNL     1      35.449 -19.269 -23.256  0.00  0.00    +0.009 C 
ATOM     30  C   UNL     1      35.762 -17.150 -22.137  0.00  0.00    +0.009 C 
ATOM     31  C   UNL     1      34.951 -16.529 -23.087  0.00  0.00    +0.058 C 
ATOM     32  C   UNL     1      34.638 -18.648 -24.205  0.00  0.00    +0.058 C 
ATOM     33  C   UNL     1      34.388 -17.277 -24.121  0.00  0.00    +0.023 C 
ENDBRANCH  25  28
ENDBRANCH  22  25
ENDBRANCH   2  23
TORSDOF 4
ENDMDL
MODEL 7
REMARK VINA RESULT:     -11.5      5.493     10.563
REMARK  Name = 448407
REMARK  4 active torsions:
REMARK  status: ('A' for Active; 'I' for Inactive)
REMARK    1  A    between atoms: C_1  and  N_8
REMARK    2  A    between atoms: C_2  and  C_23
REMARK    3  A    between atoms: N_22  and  C_25
REMARK    4  A    between atoms: C_25  and  C_28
REMARK                            x       y       z     vdW  Elec       q    Type
REMARK                         _______ _______ _______ _____ _____    ______ ____
ROOT
ATOM      1  C   UNL     1      32.737 -24.638 -14.106  0.00  0.00    +0.090 C 
ATOM      2  C   UNL     1      31.269 -23.681 -15.796  0.00  0.00    +0.055 C 
ATOM      3  C   UNL     1      32.547 -23.872 -15.270  0.00  0.00    +0.023 C 
ATOM      4  C   UNL     1      31.611 -25.208 -13.486  0.00  0.00    +0.018 C 
ATOM      5  C   UNL     1      30.163 -24.253 -15.168  0.00  0.00    +0.005 C 
ATOM      6  C   UNL     1      30.334 -25.016 -14.013  0.00  0.00    +0.002 C 
ENDROOT
BRANCH   1   8
ATOM      7  O   UNL     1      35.417 -24.900  -9.663  0.00  0.00    -0.207 OA
ATOM      8  N   UNL     1      34.010 -24.830 -13.582  0.00  0.00    -0.137 N 
ATOM      9  N   UNL     1      35.157 -24.368 -14.147  0.00  0.00    -0.215 N 
ATOM     10  N   UNL     1      34.144 -24.976 -12.204  0.00  0.00    -0.143 NA
ATOM     11  N   UNL     1      37.294 -23.802 -13.068  0.00  0.00    -0.309 NA
ATOM     12  N   UNL     1      37.348 -24.115 -10.676  0.00  0.00    -0.251 NA
ATOM     13  N   UNL     1      39.218 -23.335 -11.792  0.00  0.00    -0.283 N 
ATOM     14  C   UNL     1      36.078 -24.195 -13.166  0.00  0.00    +0.243 C 
ATOM     15  C   UNL     1      35.360 -24.604 -11.949  0.00  0.00    +0.241 C 
ATOM     16  C   UNL     1      36.046 -24.554 -10.652  0.00  0.00    +0.239 C 
ATOM     17  C   UNL     1      37.912 -23.768 -11.816  0.00  0.00    +0.208 C 
ATOM     18  H   UNL     1      35.296 -24.189 -15.105  0.00  0.00    +0.175 HD
ATOM     19  H   UNL     1      39.665 -23.069 -12.628  0.00  0.00    +0.156 HD
ATOM     20  H   UNL     1      39.705 -23.289 -10.937  0.00  0.00    +0.156 HD
ENDBRANCH   1   8
BRANCH   2  23
ATOM     21  O   UNL     1      29.986 -22.376 -17.262  0.00  0.00    -0.270 OA
ATOM     22  N   UNL     1      32.212 -22.712 -17.820  0.00  0.00    -0.297 N 
ATOM     23  C   UNL     1      31.090 -22.886 -17.001  0.00  0.00    +0.246 C 
ATOM     24  H   UNL     1      33.055 -23.145 -17.553  0.00  0.00    +0.150 HD
BRANCH  22  25
ATOM     25  C   UNL     1      32.199 -21.933 -19.036  0.00  0.00    +0.117 C 
BRANCH  25  28
ATOM     26 CL   UNL     1      35.252 -19.314 -22.331  0.00  0.00    -0.082 Cl
ATOM     27 CL   UNL     1      37.337 -22.211 -18.284  0.00  0.00    -0.082 Cl
ATOM     28  C   UNL     1      33.583 -21.538 -19.466  0.00  0.00    -0.001 C 
ATOM     29  C   UNL     1      34.683 -22.004 -18.756  0.00  0.00    +0.009 C 
ATOM     30  C   UNL     1      33.749 -20.708 -20.569  0.00  0.00    +0.009 C 
ATOM     31  C   UNL     1      35.034 -20.340 -20.968  0.00  0.00    +0.058 C 
ATOM     32  C   UNL     1      35.968 -21.638 -19.155  0.00  0.00    +0.058 C 
ATOM     33  C   UNL     1      36.144 -20.805 -20.261  0.00  0.00    +0.023 C 
ENDBRANCH  25  28
ENDBRANCH  22  25
ENDBRANCH   2  23
TORSDOF 4
ENDMDL
MODEL 8
REMARK VINA RESULT:     -11.4      5.476     10.080
REMARK  Name = 448407
REMARK  4 active torsions:
REMARK  status: ('A' for Active; 'I' for Inactive)
REMARK    1  A    between atoms: C_1  and  N_8
REMARK    2  A    between atoms: C_2  and  C_23
REMARK    3  A    between atoms: N_22  and  C_25
REMARK    4  A    between atoms: C_25  and  C_28
REMARK                            x       y       z     vdW  Elec       q    Type
REMARK                         _______ _______ _______ _____ _____    ______ ____
ROOT
ATOM      1  C   UNL     1      33.051 -24.671 -14.203  0.00  0.00    +0.090 C 
ATOM      2  C   UNL     1      31.472 -23.596 -15.713  0.00  0.00    +0.055 C 
ATOM      3  C   UNL     1      32.778 -23.959 -15.385  0.00  0.00    +0.023 C 
ATOM      4  C   UNL     1      31.977 -25.011 -13.362  0.00  0.00    +0.018 C 
ATOM      5  C   UNL     1      30.418 -23.941 -14.867  0.00  0.00    +0.005 C 
ATOM      6  C   UNL     1      30.671 -24.649 -13.691  0.00  0.00    +0.002 C 
ENDROOT
BRANCH   1   8
ATOM      7  O   UNL     1      37.344 -23.039 -11.775  0.00  0.00    -0.207 OA
ATOM      8  N   UNL     1      34.352 -25.034 -13.876  0.00  0.00    -0.137 N 
ATOM      9  N   UNL     1      35.183 -25.746 -14.683  0.00  0.00    -0.215 N 
ATOM     10  N   UNL     1      35.067 -24.218 -13.002  0.00  0.00    -0.143 NA
ATOM     11  N   UNL     1      37.641 -25.749 -14.757  0.00  0.00    -0.309 NA
ATOM     12  N   UNL     1      38.716 -24.278 -13.173  0.00  0.00    -0.251 NA
ATOM     13  N   UNL     1      39.986 -25.561 -14.618  0.00  0.00    -0.283 N 
ATOM     14  C   UNL     1      36.463 -25.426 -14.369  0.00  0.00    +0.243 C 
ATOM     15  C   UNL     1      36.312 -24.443 -13.285  0.00  0.00    +0.241 C 
ATOM     16  C   UNL     1      37.509 -23.853 -12.671  0.00  0.00    +0.239 C 
ATOM     17  C   UNL     1      38.755 -25.164 -14.148  0.00  0.00    +0.208 C 
ATOM     18  H   UNL     1      34.903 -26.385 -15.377  0.00  0.00    +0.175 HD
ATOM     19  H   UNL     1      40.046 -26.222 -15.346  0.00  0.00    +0.156 HD
ATOM     20  H   UNL     1      40.807 -25.184 -14.228  0.00  0.00    +0.156 HD
ENDBRANCH   1   8
BRANCH   2  23
ATOM     21  O   UNL     1      30.080 -22.382 -17.157  0.00  0.00    -0.270 OA
ATOM     22  N   UNL     1      32.276 -22.706 -17.830  0.00  0.00    -0.297 N 
ATOM     23  C   UNL     1      31.207 -22.861 -16.939  0.00  0.00    +0.246 C 
ATOM     24  H   UNL     1      33.141 -23.112 -17.595  0.00  0.00    +0.150 HD
BRANCH  22  25
ATOM     25  C   UNL     1      32.176 -21.983 -19.077  0.00  0.00    +0.117 C 
BRANCH  25  28
ATOM     26 CL   UNL     1      37.356 -22.112 -18.638  0.00  0.00    -0.082 Cl
ATOM     27 CL   UNL     1      34.940 -19.097 -22.406  0.00  0.00    -0.082 Cl
ATOM     28  C   UNL     1      33.518 -21.517 -19.565  0.00  0.00    -0.001 C 
ATOM     29  C   UNL     1      33.592 -20.629 -20.633  0.00  0.00    +0.009 C 
ATOM     30  C   UNL     1      34.673 -21.978 -18.945  0.00  0.00    +0.009 C 
ATOM     31  C   UNL     1      35.920 -21.546 -19.398  0.00  0.00    +0.058 C 
ATOM     32  C   UNL     1      34.838 -20.196 -21.086  0.00  0.00    +0.058 C 
ATOM     33  C   UNL     1      36.002 -20.655 -20.469  0.00  0.00    +0.023 C 
ENDBRANCH  25  28
ENDBRANCH  22  25
ENDBRANCH   2  23
TORSDOF 4
ENDMDL
MODEL 9
REMARK VINA RESULT:     -11.3      3.813      6.884
REMARK  Name = 448407
REMARK  4 active torsions:
REMARK  status: ('A' for Active; 'I' for Inactive)
REMARK    1  A    between atoms: C_1  and  N_8
REMARK    2  A    between atoms: C_2  and  C_23
REMARK    3  A    between atoms: N_22  and  C_25
REMARK    4  A    between atoms: C_25  and  C_28
REMARK                            x       y       z     vdW  Elec       q    Type
REMARK                         _______ _______ _______ _____ _____    ______ ____
ROOT
ATOM      1  C   UNL     1      33.346 -13.802 -23.982  0.00  0.00    +0.090 C 
ATOM      2  C   UNL     1      34.580 -15.809 -23.370  0.00  0.00    +0.055 C 
ATOM      3  C   UNL     1      34.112 -14.533 -23.057  0.00  0.00    +0.023 C 
ATOM      4  C   UNL     1      33.061 -14.387 -25.228  0.00  0.00    +0.018 C 
ATOM      5  C   UNL     1      34.288 -16.375 -24.611  0.00  0.00    +0.005 C 
ATOM      6  C   UNL     1      33.528 -15.663 -25.540  0.00  0.00    +0.002 C 
ENDROOT
BRANCH   1   8
ATOM      7  O   UNL     1      34.540  -8.751 -24.220  0.00  0.00    -0.207 OA
ATOM      8  N   UNL     1      32.879 -12.531 -23.670  0.00  0.00    -0.137 N 
ATOM      9  N   UNL     1      32.162 -12.221 -22.558  0.00  0.00    -0.215 N 
ATOM     10  N   UNL     1      33.590 -11.430 -24.141  0.00  0.00    -0.143 NA
ATOM     11  N   UNL     1      32.000 -10.073 -21.370  0.00  0.00    -0.309 NA
ATOM     12  N   UNL     1      33.298  -8.275 -22.322  0.00  0.00    -0.251 NA
ATOM     13  N   UNL     1      32.022  -7.914 -20.427  0.00  0.00    -0.283 N 
ATOM     14  C   UNL     1      32.377 -10.915 -22.259  0.00  0.00    +0.243 C 
ATOM     15  C   UNL     1      33.300 -10.472 -23.315  0.00  0.00    +0.241 C 
ATOM     16  C   UNL     1      33.772  -9.081 -23.328  0.00  0.00    +0.239 C 
ATOM     17  C   UNL     1      32.471  -8.759 -21.416  0.00  0.00    +0.208 C 
ATOM     18  H   UNL     1      31.586 -12.839 -22.053  0.00  0.00    +0.175 HD
ATOM     19  H   UNL     1      31.403  -8.248 -19.736  0.00  0.00    +0.156 HD
ATOM     20  H   UNL     1      32.320  -6.976 -20.408  0.00  0.00    +0.156 HD
ENDBRANCH   1   8
BRANCH   2  23
ATOM     21  O   UNL     1      35.366 -16.226 -21.201  0.00  0.00    -0.270 OA
ATOM     22  N   UNL     1      36.102 -17.645 -22.881  0.00  0.00    -0.297 N 
ATOM     23  C   UNL     1      35.370 -16.552 -22.401  0.00  0.00    +0.246 C 
ATOM     24  H   UNL     1      36.060 -17.846 -23.844  0.00  0.00    +0.150 HD
BRANCH  22  25
ATOM     25  C   UNL     1      36.915 -18.492 -22.040  0.00  0.00    +0.117 C 
BRANCH  25  28
ATOM     26 CL   UNL     1      36.663 -22.174 -18.376  0.00  0.00    -0.082 Cl
ATOM     27 CL   UNL     1      32.257 -20.584 -21.055  0.00  0.00    -0.082 Cl
ATOM     28  C   UNL     1      36.085 -19.468 -21.255  0.00  0.00    -0.001 C 
ATOM     29  C   UNL     1      34.719 -19.558 -21.495  0.00  0.00    +0.009 C 
ATOM     30  C   UNL     1      36.692 -20.270 -20.296  0.00  0.00    +0.009 C 
ATOM     31  C   UNL     1      35.922 -21.176 -19.566  0.00  0.00    +0.058 C 
ATOM     32  C   UNL     1      33.949 -20.463 -20.766  0.00  0.00    +0.058 C 
ATOM     33  C   UNL     1      34.550 -21.273 -19.801  0.00  0.00    +0.023 C 
ENDBRANCH  25  28
ENDBRANCH  22  25
ENDBRANCH   2  23
TORSDOF 4
ENDMDL
