MODEL 1
REMARK VINA RESULT:     -13.3      0.000      0.000
REMARK  Name = 115237
REMARK  5 active torsions:
REMARK  status: ('A' for Active; 'I' for Inactive)
REMARK    1  A    between atoms: N_1  and  C_18
REMARK    2  A    between atoms: C_2  and  C_11
REMARK    3  A    between atoms: C_18  and  C_19
REMARK    4  A    between atoms: C_19  and  C_23
REMARK    5  A    between atoms: C_25  and  O_32
REMARK                            x       y       z     vdW  Elec       q    Type
REMARK                         _______ _______ _______ _____ _____    ______ ____
ROOT
ATOM      1  N   UNL     1      34.372 -22.209 -18.672  0.00  0.00    +0.387 N 
ATOM      2  C   UNL     1      34.868 -20.485 -20.993  0.00  0.00    +0.039 C 
ATOM      3  C   UNL     1      33.491 -20.585 -20.318  0.00  0.00    -0.017 C 
ATOM      4  C   UNL     1      35.971 -20.850 -19.984  0.00  0.00    -0.017 C 
ATOM      5  C   UNL     1      33.301 -21.945 -19.642  0.00  0.00    -0.077 C 
ATOM      6  C   UNL     1      35.691 -22.200 -19.320  0.00  0.00    -0.077 C 
ATOM      7  H   UNL     1      34.359 -21.461 -17.977  0.00  0.00    -0.080 HD
ENDROOT
BRANCH   2  11
ATOM      8  F   UNL     1      34.224 -16.478 -26.355  0.00  0.00    -0.204 F 
ATOM      9  O   UNL     1      35.772 -17.103 -21.844  0.00  0.00    -0.354 OA
ATOM     10  N   UNL     1      35.720 -18.183 -20.971  0.00  0.00    -0.081 NA
ATOM     11  C   UNL     1      35.101 -19.145 -21.653  0.00  0.00    +0.100 A 
ATOM     12  C   UNL     1      34.735 -18.753 -22.948  0.00  0.00    +0.054 A 
ATOM     13  C   UNL     1      35.184 -17.445 -23.023  0.00  0.00    +0.179 A 
ATOM     14  C   UNL     1      34.091 -19.317 -24.060  0.00  0.00    +0.007 C 
ATOM     15  C   UNL     1      35.040 -16.630 -24.142  0.00  0.00    +0.070 C 
ATOM     16  C   UNL     1      33.931 -18.523 -25.205  0.00  0.00    +0.030 C 
ATOM     17  C   UNL     1      34.397 -17.205 -25.241  0.00  0.00    +0.143 C 
ENDBRANCH   2  11
BRANCH   1  18
ATOM     18  C   UNL     1      34.144 -23.485 -17.993  0.00  0.00    -0.076 C 
BRANCH  18  19
ATOM     19  C   UNL     1      33.118 -23.305 -16.884  0.00  0.00    -0.007 C 
BRANCH  19  23
ATOM     20  O   UNL     1      35.849 -23.062 -16.407  0.00  0.00    -0.274 OA
ATOM     21  N   UNL     1      35.722 -23.606 -14.145  0.00  0.00    -0.235 N 
ATOM     22  N   UNL     1      33.647 -24.289 -13.236  0.00  0.00    -0.397 NA
ATOM     23  C   UNL     1      33.718 -23.617 -15.544  0.00  0.00    +0.123 C 
ATOM     24  C   UNL     1      37.169 -23.437 -13.995  0.00  0.00    +0.100 C 
ATOM     25  C   UNL     1      35.539 -24.282 -11.739  0.00  0.00    +0.177 C 
ATOM     26  C   UNL     1      37.634 -23.258 -12.562  0.00  0.00    +0.025 C 
ATOM     27  C   UNL     1      37.053 -24.375 -11.722  0.00  0.00    +0.040 C 
ATOM     28  C   UNL     1      34.920 -24.073 -13.117  0.00  0.00    +0.192 C 
ATOM     29  C   UNL     1      35.192 -23.394 -15.421  0.00  0.00    +0.237 C 
ATOM     30  C   UNL     1      33.058 -24.057 -14.454  0.00  0.00    +0.097 C 
ATOM     31  C   UNL     1      31.584 -24.364 -14.459  0.00  0.00    +0.062 C 
BRANCH  25  32
ATOM     32  O   UNL     1      35.002 -25.475 -11.185  0.00  0.00    -0.376 OA
ATOM     33  H   UNL     1      34.803 -25.334 -10.246  0.00  0.00    +0.211 HD
ENDBRANCH  25  32
ENDBRANCH  19  23
ENDBRANCH  18  19
ENDBRANCH   1  18
TORSDOF 5
ENDMDL
MODEL 2
REMARK VINA RESULT:     -13.0      3.585     10.820
REMARK  Name = 115237
REMARK  5 active torsions:
REMARK  status: ('A' for Active; 'I' for Inactive)
REMARK    1  A    between atoms: N_1  and  C_18
REMARK    2  A    between atoms: C_2  and  C_11
REMARK    3  A    between atoms: C_18  and  C_19
REMARK    4  A    between atoms: C_19  and  C_23
REMARK    5  A    between atoms: C_25  and  O_32
REMARK                            x       y       z     vdW  Elec       q    Type
REMARK                         _______ _______ _______ _____ _____    ______ ____
ROOT
ATOM      1  N   UNL     1      34.783 -20.706 -20.245  0.00  0.00    +0.387 N 
ATOM      2  C   UNL     1      34.489 -22.839 -18.253  0.00  0.00    +0.039 C 
ATOM      3  C   UNL     1      35.807 -22.074 -18.454  0.00  0.00    -0.017 C 
ATOM      4  C   UNL     1      33.306 -21.972 -18.716  0.00  0.00    -0.017 C 
ATOM      5  C   UNL     1      35.932 -21.550 -19.886  0.00  0.00    -0.077 C 
ATOM      6  C   UNL     1      33.522 -21.452 -20.138  0.00  0.00    -0.077 C 
ATOM      7  H   UNL     1      34.745 -19.929 -19.584  0.00  0.00    -0.080 HD
ENDROOT
BRANCH   2  11
ATOM      8  F   UNL     1      30.466 -24.370 -13.086  0.00  0.00    -0.204 F 
ATOM      9  O   UNL     1      34.907 -24.138 -14.919  0.00  0.00    -0.354 OA
ATOM     10  N   UNL     1      35.397 -23.725 -16.152  0.00  0.00    -0.081 NA
ATOM     11  C   UNL     1      34.320 -23.353 -16.841  0.00  0.00    +0.100 A 
ATOM     12  C   UNL     1      33.127 -23.500 -16.119  0.00  0.00    +0.054 A 
ATOM     13  C   UNL     1      33.552 -24.003 -14.902  0.00  0.00    +0.179 A 
ATOM     14  C   UNL     1      31.756 -23.281 -16.325  0.00  0.00    +0.007 C 
ATOM     15  C   UNL     1      32.704 -24.316 -13.844  0.00  0.00    +0.070 C 
ATOM     16  C   UNL     1      30.874 -23.583 -15.279  0.00  0.00    +0.030 C 
ATOM     17  C   UNL     1      31.342 -24.092 -14.062  0.00  0.00    +0.143 C 
ENDBRANCH   2  11
BRANCH   1  18
ATOM     18  C   UNL     1      34.946 -20.167 -21.595  0.00  0.00    -0.076 C 
BRANCH  18  19
ATOM     19  C   UNL     1      35.720 -18.857 -21.540  0.00  0.00    -0.007 C 
BRANCH  19  23
ATOM     20  O   UNL     1      35.135 -16.249 -20.766  0.00  0.00    -0.274 OA
ATOM     21  N   UNL     1      34.477 -15.538 -22.885  0.00  0.00    -0.235 N 
ATOM     22  N   UNL     1      34.347 -17.116 -24.644  0.00  0.00    -0.397 NA
ATOM     23  C   UNL     1      35.147 -17.856 -22.501  0.00  0.00    +0.123 C 
ATOM     24  C   UNL     1      34.214 -14.188 -22.381  0.00  0.00    +0.100 C 
ATOM     25  C   UNL     1      33.697 -14.852 -25.166  0.00  0.00    +0.177 C 
ATOM     26  C   UNL     1      34.141 -13.121 -23.456  0.00  0.00    +0.025 C 
ATOM     27  C   UNL     1      33.175 -13.579 -24.528  0.00  0.00    +0.040 C 
ATOM     28  C   UNL     1      34.180 -15.915 -24.185  0.00  0.00    +0.192 C 
ATOM     29  C   UNL     1      34.930 -16.480 -21.957  0.00  0.00    +0.237 C 
ATOM     30  C   UNL     1      34.831 -18.078 -23.792  0.00  0.00    +0.097 C 
ATOM     31  C   UNL     1      34.959 -19.428 -24.446  0.00  0.00    +0.062 C 
BRANCH  25  32
ATOM     32  O   UNL     1      32.668 -15.417 -25.965  0.00  0.00    -0.376 OA
ATOM     33  H   UNL     1      32.945 -16.293 -26.277  0.00  0.00    +0.211 HD
ENDBRANCH  25  32
ENDBRANCH  19  23
ENDBRANCH  18  19
ENDBRANCH   1  18
TORSDOF 5
ENDMDL
MODEL 3
REMARK VINA RESULT:     -12.9      2.474      4.216
REMARK  Name = 115237
REMARK  5 active torsions:
REMARK  status: ('A' for Active; 'I' for Inactive)
REMARK    1  A    between atoms: N_1  and  C_18
REMARK    2  A    between atoms: C_2  and  C_11
REMARK    3  A    between atoms: C_18  and  C_19
REMARK    4  A    between atoms: C_19  and  C_23
REMARK    5  A    between atoms: C_25  and  O_32
REMARK                            x       y       z     vdW  Elec       q    Type
REMARK                         _______ _______ _______ _____ _____    ______ ____
ROOT
ATOM      1  N   UNL     1      35.682 -19.698 -20.641  0.00  0.00    +0.387 N 
ATOM      2  C   UNL     1      35.194 -18.651 -23.337  0.00  0.00    +0.039 C 
ATOM      3  C   UNL     1      34.123 -19.415 -22.542  0.00  0.00    -0.017 C 
ATOM      4  C   UNL     1      36.200 -18.005 -22.369  0.00  0.00    -0.017 C 
ATOM      5  C   UNL     1      34.759 -20.391 -21.550  0.00  0.00    -0.077 C 
ATOM      6  C   UNL     1      36.761 -19.033 -21.384  0.00  0.00    -0.077 C 
ATOM      7  H   UNL     1      35.154 -18.980 -20.144  0.00  0.00    -0.080 HD
ENDROOT
BRANCH   2  11
ATOM      8  F   UNL     1      33.237 -12.372 -24.744  0.00  0.00    -0.204 F 
ATOM      9  O   UNL     1      33.747 -16.941 -26.159  0.00  0.00    -0.354 OA
ATOM     10  N   UNL     1      34.243 -18.074 -25.525  0.00  0.00    -0.081 NA
ATOM     11  C   UNL     1      34.602 -17.658 -24.312  0.00  0.00    +0.100 A 
ATOM     12  C   UNL     1      34.366 -16.291 -24.107  0.00  0.00    +0.054 A 
ATOM     13  C   UNL     1      33.822 -15.879 -25.311  0.00  0.00    +0.179 A 
ATOM     14  C   UNL     1      34.537 -15.352 -23.079  0.00  0.00    +0.007 C 
ATOM     15  C   UNL     1      33.423 -14.574 -25.585  0.00  0.00    +0.070 C 
ATOM     16  C   UNL     1      34.145 -14.028 -23.320  0.00  0.00    +0.030 C 
ATOM     17  C   UNL     1      33.599 -13.649 -24.551  0.00  0.00    +0.143 C 
ENDBRANCH   2  11
BRANCH   1  18
ATOM     18  C   UNL     1      36.236 -20.635 -19.664  0.00  0.00    -0.076 C 
BRANCH  18  19
ATOM     19  C   UNL     1      35.530 -21.979 -19.776  0.00  0.00    -0.007 C 
BRANCH  19  23
ATOM     20  O   UNL     1      32.803 -22.305 -19.327  0.00  0.00    -0.274 OA
ATOM     21  N   UNL     1      33.037 -23.084 -17.144  0.00  0.00    -0.235 N 
ATOM     22  N   UNL     1      35.184 -23.110 -16.150  0.00  0.00    -0.397 NA
ATOM     23  C   UNL     1      34.994 -22.415 -18.444  0.00  0.00    +0.123 C 
ATOM     24  C   UNL     1      31.586 -23.235 -17.013  0.00  0.00    +0.100 C 
ATOM     25  C   UNL     1      33.340 -23.834 -14.772  0.00  0.00    +0.177 C 
ATOM     26  C   UNL     1      31.149 -24.140 -15.877  0.00  0.00    +0.025 C 
ATOM     27  C   UNL     1      31.840 -23.690 -14.607  0.00  0.00    +0.040 C 
ATOM     28  C   UNL     1      33.902 -23.292 -16.082  0.00  0.00    +0.192 C 
ATOM     29  C   UNL     1      33.511 -22.596 -18.364  0.00  0.00    +0.237 C 
ATOM     30  C   UNL     1      35.718 -22.672 -17.336  0.00  0.00    +0.097 C 
ATOM     31  C   UNL     1      37.211 -22.485 -17.272  0.00  0.00    +0.062 C 
BRANCH  25  32
ATOM     32  O   UNL     1      33.984 -23.163 -13.698  0.00  0.00    -0.376 OA
ATOM     33  H   UNL     1      33.368 -23.077 -12.955  0.00  0.00    +0.211 HD
ENDBRANCH  25  32
ENDBRANCH  19  23
ENDBRANCH  18  19
ENDBRANCH   1  18
TORSDOF 5
ENDMDL
MODEL 4
REMARK VINA RESULT:     -12.9      5.524     11.642
REMARK  Name = 115237
REMARK  5 active torsions:
REMARK  status: ('A' for Active; 'I' for Inactive)
REMARK    1  A    between atoms: N_1  and  C_18
REMARK    2  A    between atoms: C_2  and  C_11
REMARK    3  A    between atoms: C_18  and  C_19
REMARK    4  A    between atoms: C_19  and  C_23
REMARK    5  A    between atoms: C_25  and  O_32
REMARK                            x       y       z     vdW  Elec       q    Type
REMARK                         _______ _______ _______ _____ _____    ______ ____
ROOT
ATOM      1  N   UNL     1      34.388 -15.475 -23.008  0.00  0.00    +0.387 N 
ATOM      2  C   UNL     1      35.935 -17.633 -21.760  0.00  0.00    +0.039 C 
ATOM      3  C   UNL     1      35.162 -16.589 -20.938  0.00  0.00    -0.017 C 
ATOM      4  C   UNL     1      35.302 -17.770 -23.155  0.00  0.00    -0.017 C 
ATOM      5  C   UNL     1      35.028 -15.269 -21.701  0.00  0.00    -0.077 C 
ATOM      6  C   UNL     1      35.162 -16.408 -23.838  0.00  0.00    -0.077 C 
ATOM      7  H   UNL     1      33.468 -15.888 -22.846  0.00  0.00    -0.080 HD
ENDROOT
BRANCH   2  11
ATOM      8  F   UNL     1      33.064 -23.158 -19.220  0.00  0.00    -0.204 F 
ATOM      9  O   UNL     1      37.053 -20.604 -20.057  0.00  0.00    -0.354 OA
ATOM     10  N   UNL     1      37.275 -19.379 -20.673  0.00  0.00    -0.081 NA
ATOM     11  C   UNL     1      36.067 -18.958 -21.046  0.00  0.00    +0.100 A 
ATOM     12  C   UNL     1      35.044 -19.854 -20.703  0.00  0.00    +0.054 A 
ATOM     13  C   UNL     1      35.721 -20.885 -20.076  0.00  0.00    +0.179 A 
ATOM     14  C   UNL     1      33.650 -19.935 -20.836  0.00  0.00    +0.007 C 
ATOM     15  C   UNL     1      35.110 -22.023 -19.557  0.00  0.00    +0.070 C 
ATOM     16  C   UNL     1      33.001 -21.068 -20.323  0.00  0.00    +0.030 C 
ATOM     17  C   UNL     1      33.721 -22.091 -19.697  0.00  0.00    +0.143 C 
ENDBRANCH   2  11
BRANCH   1  18
ATOM     18  C   UNL     1      34.214 -14.198 -23.699  0.00  0.00    -0.076 C 
BRANCH  18  19
ATOM     19  C   UNL     1      32.755 -13.769 -23.638  0.00  0.00    -0.007 C 
BRANCH  19  23
ATOM     20  O   UNL     1      33.274 -11.211 -24.602  0.00  0.00    -0.274 OA
ATOM     21  N   UNL     1      32.619 -10.111 -22.656  0.00  0.00    -0.235 N 
ATOM     22  N   UNL     1      32.038 -11.385 -20.748  0.00  0.00    -0.397 NA
ATOM     23  C   UNL     1      32.591 -12.551 -22.777  0.00  0.00    +0.123 C 
ATOM     24  C   UNL     1      32.908  -8.808 -23.261  0.00  0.00    +0.100 C 
ATOM     25  C   UNL     1      31.985  -8.984 -20.508  0.00  0.00    +0.177 C 
ATOM     26  C   UNL     1      32.254  -7.632 -22.561  0.00  0.00    +0.025 C 
ATOM     27  C   UNL     1      32.573  -7.711 -21.084  0.00  0.00    +0.040 C 
ATOM     28  C   UNL     1      32.244 -10.244 -21.329  0.00  0.00    +0.192 C 
ATOM     29  C   UNL     1      32.858 -11.239 -23.444  0.00  0.00    +0.237 C 
ATOM     30  C   UNL     1      32.215 -12.531 -21.483  0.00  0.00    +0.097 C 
ATOM     31  C   UNL     1      31.961 -13.782 -20.685  0.00  0.00    +0.062 C 
BRANCH  25  32
ATOM     32  O   UNL     1      32.514  -9.184 -19.205  0.00  0.00    -0.376 OA
ATOM     33  H   UNL     1      32.476  -8.351 -18.710  0.00  0.00    +0.211 HD
ENDBRANCH  25  32
ENDBRANCH  19  23
ENDBRANCH  18  19
ENDBRANCH   1  18
TORSDOF 5
ENDMDL
MODEL 5
REMARK VINA RESULT:     -12.8      3.657     10.939
REMARK  Name = 115237
REMARK  5 active torsions:
REMARK  status: ('A' for Active; 'I' for Inactive)
REMARK    1  A    between atoms: N_1  and  C_18
REMARK    2  A    between atoms: C_2  and  C_11
REMARK    3  A    between atoms: C_18  and  C_19
REMARK    4  A    between atoms: C_19  and  C_23
REMARK    5  A    between atoms: C_25  and  O_32
REMARK                            x       y       z     vdW  Elec       q    Type
REMARK                         _______ _______ _______ _____ _____    ______ ____
ROOT
ATOM      1  N   UNL     1      34.407 -20.212 -20.833  0.00  0.00    +0.387 N 
ATOM      2  C   UNL     1      34.270 -22.439 -18.929  0.00  0.00    +0.039 C 
ATOM      3  C   UNL     1      35.581 -21.698 -19.239  0.00  0.00    -0.017 C 
ATOM      4  C   UNL     1      33.071 -21.519 -19.212  0.00  0.00    -0.017 C 
ATOM      5  C   UNL     1      35.562 -21.103 -20.649  0.00  0.00    -0.077 C 
ATOM      6  C   UNL     1      33.143 -20.930 -20.622  0.00  0.00    -0.077 C 
ATOM      7  H   UNL     1      34.468 -19.470 -20.134  0.00  0.00    -0.080 HD
ENDROOT
BRANCH   2  11
ATOM      8  F   UNL     1      30.758 -24.528 -13.588  0.00  0.00    -0.204 F 
ATOM      9  O   UNL     1      35.027 -23.830 -15.693  0.00  0.00    -0.354 OA
ATOM     10  N   UNL     1      35.393 -23.325 -16.934  0.00  0.00    -0.081 NA
ATOM     11  C   UNL     1      34.244 -23.022 -17.535  0.00  0.00    +0.100 A 
ATOM     12  C   UNL     1      33.120 -23.304 -16.744  0.00  0.00    +0.054 A 
ATOM     13  C   UNL     1      33.670 -23.816 -15.582  0.00  0.00    +0.179 A 
ATOM     14  C   UNL     1      31.725 -23.198 -16.850  0.00  0.00    +0.007 C 
ATOM     15  C   UNL     1      32.927 -24.245 -14.486  0.00  0.00    +0.070 C 
ATOM     16  C   UNL     1      30.946 -23.620 -15.763  0.00  0.00    +0.030 C 
ATOM     17  C   UNL     1      31.538 -24.134 -14.605  0.00  0.00    +0.143 C 
ENDBRANCH   2  11
BRANCH   1  18
ATOM     18  C   UNL     1      34.436 -19.606 -22.164  0.00  0.00    -0.076 C 
BRANCH  18  19
ATOM     19  C   UNL     1      35.578 -18.603 -22.252  0.00  0.00    -0.007 C 
BRANCH  19  23
ATOM     20  O   UNL     1      34.964 -18.045 -24.909  0.00  0.00    -0.274 OA
ATOM     21  N   UNL     1      34.189 -15.885 -24.502  0.00  0.00    -0.235 N 
ATOM     22  N   UNL     1      34.377 -14.982 -22.323  0.00  0.00    -0.397 NA
ATOM     23  C   UNL     1      35.073 -17.255 -22.682  0.00  0.00    +0.123 C 
ATOM     24  C   UNL     1      33.886 -15.696 -25.922  0.00  0.00    +0.100 C 
ATOM     25  C   UNL     1      33.449 -13.540 -24.020  0.00  0.00    +0.177 C 
ATOM     26  C   UNL     1      32.928 -14.557 -26.213  0.00  0.00    +0.025 C 
ATOM     27  C   UNL     1      33.434 -13.311 -25.519  0.00  0.00    +0.040 C 
ATOM     28  C   UNL     1      34.061 -14.864 -23.575  0.00  0.00    +0.192 C 
ATOM     29  C   UNL     1      34.738 -17.117 -24.133  0.00  0.00    +0.237 C 
ATOM     30  C   UNL     1      34.882 -16.183 -21.889  0.00  0.00    +0.097 C 
ATOM     31  C   UNL     1      35.222 -16.178 -20.422  0.00  0.00    +0.062 C 
BRANCH  25  32
ATOM     32  O   UNL     1      34.172 -12.484 -23.404  0.00  0.00    -0.376 OA
ATOM     33  H   UNL     1      33.565 -11.760 -23.186  0.00  0.00    +0.211 HD
ENDBRANCH  25  32
ENDBRANCH  19  23
ENDBRANCH  18  19
ENDBRANCH   1  18
TORSDOF 5
ENDMDL
MODEL 6
REMARK VINA RESULT:     -12.7      5.605     12.095
REMARK  Name = 115237
REMARK  5 active torsions:
REMARK  status: ('A' for Active; 'I' for Inactive)
REMARK    1  A    between atoms: N_1  and  C_18
REMARK    2  A    between atoms: C_2  and  C_11
REMARK    3  A    between atoms: C_18  and  C_19
REMARK    4  A    between atoms: C_19  and  C_23
REMARK    5  A    between atoms: C_25  and  O_32
REMARK                            x       y       z     vdW  Elec       q    Type
REMARK                         _______ _______ _______ _____ _____    ______ ____
ROOT
ATOM      1  N   UNL     1      34.314 -15.570 -23.163  0.00  0.00    +0.387 N 
ATOM      2  C   UNL     1      35.889 -17.665 -21.847  0.00  0.00    +0.039 C 
ATOM      3  C   UNL     1      35.104 -16.605 -21.059  0.00  0.00    -0.017 C 
ATOM      4  C   UNL     1      35.257 -17.857 -23.236  0.00  0.00    -0.017 C 
ATOM      5  C   UNL     1      34.953 -15.313 -21.865  0.00  0.00    -0.077 C 
ATOM      6  C   UNL     1      35.100 -16.520 -23.963  0.00  0.00    -0.077 C 
ATOM      7  H   UNL     1      33.400 -15.988 -22.987  0.00  0.00    -0.080 HD
ENDROOT
BRANCH   2  11
ATOM      8  F   UNL     1      33.092 -23.148 -19.138  0.00  0.00    -0.204 F 
ATOM      9  O   UNL     1      37.045 -20.563 -20.045  0.00  0.00    -0.354 OA
ATOM     10  N   UNL     1      37.251 -19.355 -20.700  0.00  0.00    -0.081 NA
ATOM     11  C   UNL     1      36.039 -18.965 -21.090  0.00  0.00    +0.100 A 
ATOM     12  C   UNL     1      35.028 -19.864 -20.722  0.00  0.00    +0.054 A 
ATOM     13  C   UNL     1      35.718 -20.865 -20.060  0.00  0.00    +0.179 A 
ATOM     14  C   UNL     1      33.635 -19.971 -20.857  0.00  0.00    +0.007 C 
ATOM     15  C   UNL     1      35.122 -21.994 -19.506  0.00  0.00    +0.070 C 
ATOM     16  C   UNL     1      33.002 -21.096 -20.309  0.00  0.00    +0.030 C 
ATOM     17  C   UNL     1      33.734 -22.087 -19.648  0.00  0.00    +0.143 C 
ENDBRANCH   2  11
BRANCH   1  18
ATOM     18  C   UNL     1      34.125 -14.318 -23.896  0.00  0.00    -0.076 C 
BRANCH  18  19
ATOM     19  C   UNL     1      32.740 -13.754 -23.608  0.00  0.00    -0.007 C 
BRANCH  19  23
ATOM     20  O   UNL     1      31.576 -12.590 -21.364  0.00  0.00    -0.274 OA
ATOM     21  N   UNL     1      32.324 -10.433 -21.828  0.00  0.00    -0.235 N 
ATOM     22  N   UNL     1      33.456 -10.016 -23.863  0.00  0.00    -0.397 NA
ATOM     23  C   UNL     1      32.806 -12.275 -23.359  0.00  0.00    +0.123 C 
ATOM     24  C   UNL     1      31.688  -9.921 -20.612  0.00  0.00    +0.100 C 
ATOM     25  C   UNL     1      33.080  -8.118 -22.421  0.00  0.00    +0.177 C 
ATOM     26  C   UNL     1      32.208  -8.573 -20.151  0.00  0.00    +0.025 C 
ATOM     27  C   UNL     1      32.166  -7.613 -21.321  0.00  0.00    +0.040 C 
ATOM     28  C   UNL     1      32.936  -9.601 -22.750  0.00  0.00    +0.192 C 
ATOM     29  C   UNL     1      32.179 -11.799 -22.087  0.00  0.00    +0.237 C 
ATOM     30  C   UNL     1      33.385 -11.355 -24.156  0.00  0.00    +0.097 C 
ATOM     31  C   UNL     1      34.010 -11.698 -25.482  0.00  0.00    +0.062 C 
BRANCH  25  32
ATOM     32  O   UNL     1      32.828  -7.372 -23.603  0.00  0.00    -0.376 OA
ATOM     33  H   UNL     1      32.281  -7.897 -24.206  0.00  0.00    +0.211 HD
ENDBRANCH  25  32
ENDBRANCH  19  23
ENDBRANCH  18  19
ENDBRANCH   1  18
TORSDOF 5
ENDMDL
MODEL 7
REMARK VINA RESULT:     -12.6      3.665     10.897
REMARK  Name = 115237
REMARK  5 active torsions:
REMARK  status: ('A' for Active; 'I' for Inactive)
REMARK    1  A    between atoms: N_1  and  C_18
REMARK    2  A    between atoms: C_2  and  C_11
REMARK    3  A    between atoms: C_18  and  C_19
REMARK    4  A    between atoms: C_19  and  C_23
REMARK    5  A    between atoms: C_25  and  O_32
REMARK                            x       y       z     vdW  Elec       q    Type
REMARK                         _______ _______ _______ _____ _____    ______ ____
ROOT
ATOM      1  N   UNL     1      34.956 -20.635 -20.248  0.00  0.00    +0.387 N 
ATOM      2  C   UNL     1      33.953 -22.724 -18.450  0.00  0.00    +0.039 C 
ATOM      3  C   UNL     1      35.390 -22.185 -18.368  0.00  0.00    -0.017 C 
ATOM      4  C   UNL     1      33.033 -21.665 -19.079  0.00  0.00    -0.017 C 
ATOM      5  C   UNL     1      35.866 -21.665 -19.726  0.00  0.00    -0.077 C 
ATOM      6  C   UNL     1      33.595 -21.163 -20.412  0.00  0.00    -0.077 C 
ATOM      7  H   UNL     1      34.919 -19.875 -19.569  0.00  0.00    -0.080 HD
ENDROOT
BRANCH   2  11
ATOM      8  F   UNL     1      35.190 -24.814 -12.179  0.00  0.00    -0.204 F 
ATOM      9  O   UNL     1      31.995 -23.847 -15.642  0.00  0.00    -0.354 OA
ATOM     10  N   UNL     1      32.129 -23.384 -16.944  0.00  0.00    -0.081 NA
ATOM     11  C   UNL     1      33.440 -23.227 -17.119  0.00  0.00    +0.100 A 
ATOM     12  C   UNL     1      34.190 -23.567 -15.984  0.00  0.00    +0.054 A 
ATOM     13  C   UNL     1      33.226 -23.956 -15.071  0.00  0.00    +0.179 A 
ATOM     14  C   UNL     1      35.541 -23.598 -15.605  0.00  0.00    +0.007 C 
ATOM     15  C   UNL     1      33.501 -24.384 -13.775  0.00  0.00    +0.070 C 
ATOM     16  C   UNL     1      35.853 -24.027 -14.307  0.00  0.00    +0.030 C 
ATOM     17  C   UNL     1      34.850 -24.411 -13.411  0.00  0.00    +0.143 C 
ENDBRANCH   2  11
BRANCH   1  18
ATOM     18  C   UNL     1      35.456 -20.108 -21.518  0.00  0.00    -0.076 C 
BRANCH  18  19
ATOM     19  C   UNL     1      35.907 -18.665 -21.338  0.00  0.00    -0.007 C 
BRANCH  19  23
ATOM     20  O   UNL     1      35.192 -16.036 -20.769  0.00  0.00    -0.274 OA
ATOM     21  N   UNL     1      34.485 -15.533 -22.931  0.00  0.00    -0.235 N 
ATOM     22  N   UNL     1      34.427 -17.252 -24.557  0.00  0.00    -0.397 NA
ATOM     23  C   UNL     1      35.276 -17.775 -22.370  0.00  0.00    +0.123 C 
ATOM     24  C   UNL     1      34.155 -14.162 -22.535  0.00  0.00    +0.100 C 
ATOM     25  C   UNL     1      33.657 -15.073 -25.252  0.00  0.00    +0.177 C 
ATOM     26  C   UNL     1      34.021 -13.189 -23.691  0.00  0.00    +0.025 C 
ATOM     27  C   UNL     1      33.074 -13.781 -24.712  0.00  0.00    +0.040 C 
ATOM     28  C   UNL     1      34.201 -16.027 -24.194  0.00  0.00    +0.192 C 
ATOM     29  C   UNL     1      34.992 -16.372 -21.936  0.00  0.00    +0.237 C 
ATOM     30  C   UNL     1      34.965 -18.116 -23.636  0.00  0.00    +0.097 C 
ATOM     31  C   UNL     1      35.158 -19.506 -24.181  0.00  0.00    +0.062 C 
BRANCH  25  32
ATOM     32  O   UNL     1      32.654 -15.753 -25.993  0.00  0.00    -0.376 OA
ATOM     33  H   UNL     1      32.199 -16.385 -25.416  0.00  0.00    +0.211 HD
ENDBRANCH  25  32
ENDBRANCH  19  23
ENDBRANCH  18  19
ENDBRANCH   1  18
TORSDOF 5
ENDMDL
MODEL 8
REMARK VINA RESULT:     -12.4      9.130     15.937
REMARK  Name = 115237
REMARK  5 active torsions:
REMARK  status: ('A' for Active; 'I' for Inactive)
REMARK    1  A    between atoms: N_1  and  C_18
REMARK    2  A    between atoms: C_2  and  C_11
REMARK    3  A    between atoms: C_18  and  C_19
REMARK    4  A    between atoms: C_19  and  C_23
REMARK    5  A    between atoms: C_25  and  O_32
REMARK                            x       y       z     vdW  Elec       q    Type
REMARK                         _______ _______ _______ _____ _____    ______ ____
ROOT
ATOM      1  N   UNL     1      32.440  -9.854 -22.308  0.00  0.00    +0.387 N 
ATOM      2  C   UNL     1      32.973 -12.618 -23.135  0.00  0.00    +0.039 C 
ATOM      3  C   UNL     1      33.827 -11.433 -23.616  0.00  0.00    -0.017 C 
ATOM      4  C   UNL     1      32.309 -12.271 -21.792  0.00  0.00    -0.017 C 
ATOM      5  C   UNL     1      33.017 -10.135 -23.631  0.00  0.00    -0.077 C 
ATOM      6  C   UNL     1      31.554 -10.943 -21.874  0.00  0.00    -0.077 C 
ATOM      7  H   UNL     1      33.207  -9.787 -21.639  0.00  0.00    -0.080 HD
ENDROOT
BRANCH   2  11
ATOM      8  F   UNL     1      34.665 -18.469 -25.986  0.00  0.00    -0.204 F 
ATOM      9  O   UNL     1      35.081 -15.416 -22.293  0.00  0.00    -0.354 OA
ATOM     10  N   UNL     1      34.520 -14.172 -22.031  0.00  0.00    -0.081 NA
ATOM     11  C   UNL     1      33.748 -13.915 -23.086  0.00  0.00    +0.100 A 
ATOM     12  C   UNL     1      33.771 -14.937 -24.045  0.00  0.00    +0.054 A 
ATOM     13  C   UNL     1      34.633 -15.870 -23.496  0.00  0.00    +0.179 A 
ATOM     14  C   UNL     1      33.187 -15.201 -25.294  0.00  0.00    +0.007 C 
ATOM     15  C   UNL     1      34.973 -17.076 -24.101  0.00  0.00    +0.070 C 
ATOM     16  C   UNL     1      33.507 -16.408 -25.931  0.00  0.00    +0.030 C 
ATOM     17  C   UNL     1      34.384 -17.326 -25.344  0.00  0.00    +0.143 C 
ENDBRANCH   2  11
BRANCH   1  18
ATOM     18  C   UNL     1      31.718  -8.582 -22.325  0.00  0.00    -0.076 C 
BRANCH  18  19
ATOM     19  C   UNL     1      32.641  -7.457 -21.880  0.00  0.00    -0.007 C 
BRANCH  19  23
ATOM     20  O   UNL     1      34.603  -7.163 -23.832  0.00  0.00    -0.274 OA
ATOM     21  N   UNL     1      33.622  -5.309 -24.846  0.00  0.00    -0.235 N 
ATOM     22  N   UNL     1      31.700  -4.339 -23.865  0.00  0.00    -0.397 NA
ATOM     23  C   UNL     1      32.616  -6.323 -22.863  0.00  0.00    +0.123 C 
ATOM     24  C   UNL     1      34.696  -5.250 -25.840  0.00  0.00    +0.100 C 
ATOM     25  C   UNL     1      32.569  -3.266 -25.844  0.00  0.00    +0.177 C 
ATOM     26  C   UNL     1      34.359  -4.442 -27.079  0.00  0.00    +0.025 C 
ATOM     27  C   UNL     1      33.843  -3.087 -26.647  0.00  0.00    +0.040 C 
ATOM     28  C   UNL     1      32.629  -4.346 -24.769  0.00  0.00    +0.192 C 
ATOM     29  C   UNL     1      33.708  -6.321 -23.886  0.00  0.00    +0.237 C 
ATOM     30  C   UNL     1      31.704  -5.333 -22.918  0.00  0.00    +0.097 C 
ATOM     31  C   UNL     1      30.584  -5.195 -21.921  0.00  0.00    +0.062 C 
BRANCH  25  32
ATOM     32  O   UNL     1      32.246  -2.032 -25.218  0.00  0.00    -0.376 OA
ATOM     33  H   UNL     1      32.299  -1.316 -25.870  0.00  0.00    +0.211 HD
ENDBRANCH  25  32
ENDBRANCH  19  23
ENDBRANCH  18  19
ENDBRANCH   1  18
TORSDOF 5
ENDMDL
MODEL 9
REMARK VINA RESULT:     -12.4      3.621     11.006
REMARK  Name = 115237
REMARK  5 active torsions:
REMARK  status: ('A' for Active; 'I' for Inactive)
REMARK    1  A    between atoms: N_1  and  C_18
REMARK    2  A    between atoms: C_2  and  C_11
REMARK    3  A    between atoms: C_18  and  C_19
REMARK    4  A    between atoms: C_19  and  C_23
REMARK    5  A    between atoms: C_25  and  O_32
REMARK                            x       y       z     vdW  Elec       q    Type
REMARK                         _______ _______ _______ _____ _____    ______ ____
ROOT
ATOM      1  N   UNL     1      34.292 -20.010 -21.133  0.00  0.00    +0.387 N 
ATOM      2  C   UNL     1      34.280 -22.248 -19.237  0.00  0.00    +0.039 C 
ATOM      3  C   UNL     1      35.561 -21.475 -19.594  0.00  0.00    -0.017 C 
ATOM      4  C   UNL     1      33.050 -21.354 -19.468  0.00  0.00    -0.017 C 
ATOM      5  C   UNL     1      35.473 -20.875 -20.998  0.00  0.00    -0.077 C 
ATOM      6  C   UNL     1      33.054 -20.758 -20.877  0.00  0.00    -0.077 C 
ATOM      7  H   UNL     1      34.363 -19.270 -20.434  0.00  0.00    -0.080 HD
ENDROOT
BRANCH   2  11
ATOM      8  F   UNL     1      37.685 -23.499 -13.574  0.00  0.00    -0.204 F 
ATOM      9  O   UNL     1      33.597 -23.853 -16.085  0.00  0.00    -0.354 OA
ATOM     10  N   UNL     1      33.234 -23.430 -17.357  0.00  0.00    -0.081 NA
ATOM     11  C   UNL     1      34.322 -22.837 -17.845  0.00  0.00    +0.100 A 
ATOM     12  C   UNL     1      35.401 -22.846 -16.950  0.00  0.00    +0.054 A 
ATOM     13  C   UNL     1      34.891 -23.503 -15.844  0.00  0.00    +0.179 A 
ATOM     14  C   UNL     1      36.728 -22.391 -16.920  0.00  0.00    +0.007 C 
ATOM     15  C   UNL     1      35.610 -23.752 -14.678  0.00  0.00    +0.070 C 
ATOM     16  C   UNL     1      37.483 -22.627 -15.762  0.00  0.00    +0.030 C 
ATOM     17  C   UNL     1      36.931 -23.294 -14.664  0.00  0.00    +0.143 C 
ENDBRANCH   2  11
BRANCH   1  18
ATOM     18  C   UNL     1      34.255 -19.399 -22.462  0.00  0.00    -0.076 C 
BRANCH  18  19
ATOM     19  C   UNL     1      35.434 -18.451 -22.629  0.00  0.00    -0.007 C 
BRANCH  19  23
ATOM     20  O   UNL     1      34.813 -17.738 -25.246  0.00  0.00    -0.274 OA
ATOM     21  N   UNL     1      34.103 -15.582 -24.719  0.00  0.00    -0.235 N 
ATOM     22  N   UNL     1      34.336 -14.800 -22.498  0.00  0.00    -0.397 NA
ATOM     23  C   UNL     1      34.964 -17.070 -22.983  0.00  0.00    +0.123 C 
ATOM     24  C   UNL     1      33.792 -15.310 -26.124  0.00  0.00    +0.100 C 
ATOM     25  C   UNL     1      33.433 -13.245 -24.108  0.00  0.00    +0.177 C 
ATOM     26  C   UNL     1      32.864 -14.131 -26.345  0.00  0.00    +0.025 C 
ATOM     27  C   UNL     1      33.411 -12.938 -25.592  0.00  0.00    +0.040 C 
ATOM     28  C   UNL     1      34.012 -14.608 -23.739  0.00  0.00    +0.192 C 
ATOM     29  C   UNL     1      34.620 -16.846 -24.421  0.00  0.00    +0.237 C 
ATOM     30  C   UNL     1      34.810 -16.036 -22.132  0.00  0.00    +0.097 C 
ATOM     31  C   UNL     1      35.164 -16.117 -20.671  0.00  0.00    +0.062 C 
BRANCH  25  32
ATOM     32  O   UNL     1      34.192 -12.244 -23.445  0.00  0.00    -0.376 OA
ATOM     33  H   UNL     1      33.645 -11.823 -22.764  0.00  0.00    +0.211 HD
ENDBRANCH  25  32
ENDBRANCH  19  23
ENDBRANCH  18  19
ENDBRANCH   1  18
TORSDOF 5
ENDMDL
