MODEL 1
REMARK VINA RESULT:     -12.1      0.000      0.000
REMARK  Name = 216239
REMARK  6 active torsions:
REMARK  status: ('A' for Active; 'I' for Inactive)
REMARK    1  A    between atoms: C_1  and  N_9
REMARK    2  A    between atoms: C_2  and  O_24
REMARK    3  A    between atoms: N_8  and  C_14
REMARK    4  A    between atoms: C_15  and  C_23
REMARK    5  A    between atoms: O_24  and  C_26
REMARK    6  A    between atoms: C_28  and  C_33
REMARK                            x       y       z     vdW  Elec       q    Type
REMARK                         _______ _______ _______ _____ _____    ______ ____
ROOT
ATOM      1  C   UNL     1      34.913 -16.657 -23.047  0.00  0.00    +0.052 C 
ATOM      2  C   UNL     1      35.540 -19.072 -21.843  0.00  0.00    +0.145 C 
ATOM      3  C   UNL     1      35.255 -16.676 -21.706  0.00  0.00    +0.018 C 
ATOM      4  C   UNL     1      34.877 -17.819 -23.800  0.00  0.00    +0.018 C 
ATOM      5  C   UNL     1      35.571 -17.892 -21.099  0.00  0.00    +0.039 C 
ATOM      6  C   UNL     1      35.192 -19.036 -23.193  0.00  0.00    +0.039 C 
ENDROOT
BRANCH   1   9
ATOM      7  O   UNL     1      34.685 -13.921 -21.873  0.00  0.00    -0.252 OA
ATOM      8  N   UNL     1      34.154 -13.186 -24.032  0.00  0.00    -0.268 N 
ATOM      9  N   UNL     1      34.592 -15.424 -23.662  0.00  0.00    -0.268 N 
ATOM     10  C   UNL     1      34.499 -14.158 -23.061  0.00  0.00    +0.308 C 
ATOM     11  H   UNL     1      34.033 -13.523 -24.950  0.00  0.00    +0.156 HD
ATOM     12  H   UNL     1      34.413 -15.457 -24.629  0.00  0.00    +0.156 HD
BRANCH   8  14
ATOM     13 CL   UNL     1      33.372  -7.370 -23.334  0.00  0.00    -0.082 Cl
ATOM     14  C   UNL     1      33.960 -11.815 -23.863  0.00  0.00    +0.052 C 
ATOM     15  C   UNL     1      32.671  -9.978 -22.969  0.00  0.00    +0.083 C 
ATOM     16  C   UNL     1      32.863 -11.349 -23.139  0.00  0.00    +0.019 C 
ATOM     17  C   UNL     1      34.865 -10.910 -24.419  0.00  0.00    +0.016 C 
ATOM     18  C   UNL     1      33.575  -9.072 -23.525  0.00  0.00    +0.062 C 
ATOM     19  C   UNL     1      34.672  -9.539 -24.249  0.00  0.00    +0.013 C 
BRANCH  15  23
ATOM     20  F   UNL     1      31.813  -8.902 -21.013  0.00  0.00    -0.166 F 
ATOM     21  F   UNL     1      30.702  -8.625 -22.855  0.00  0.00    -0.166 F 
ATOM     22  F   UNL     1      30.658 -10.547 -21.839  0.00  0.00    -0.166 F 
ATOM     23  C   UNL     1      31.484  -9.519 -22.184  0.00  0.00    +0.419 C 
ENDBRANCH  15  23
ENDBRANCH   8  14
ENDBRANCH   1   9
BRANCH   2  24
ATOM     24  O   UNL     1      35.846 -20.258 -21.250  0.00  0.00    -0.453 OA
BRANCH  24  26
ATOM     25  N   UNL     1      32.927 -22.047 -18.894  0.00  0.00    -0.239 NA
ATOM     26  C   UNL     1      34.874 -20.855 -20.466  0.00  0.00    +0.149 C 
ATOM     27  C   UNL     1      35.257 -21.664 -19.418  0.00  0.00    +0.061 C 
ATOM     28  C   UNL     1      34.246 -22.237 -18.662  0.00  0.00    +0.137 C 
ATOM     29  C   UNL     1      33.544 -20.625 -20.750  0.00  0.00    +0.058 C 
ATOM     30  C   UNL     1      32.610 -21.245 -19.935  0.00  0.00    +0.102 C 
BRANCH  28  33
ATOM     31  O   UNL     1      33.898 -24.124 -17.316  0.00  0.00    -0.268 OA
ATOM     32  N   UNL     1      35.673 -22.742 -16.757  0.00  0.00    -0.298 N 
ATOM     33  C   UNL     1      34.570 -23.102 -17.540  0.00  0.00    +0.264 C 
ATOM     34  C   UNL     1      36.134 -23.512 -15.623  0.00  0.00    +0.111 C 
ATOM     35  H   UNL     1      36.162 -21.919 -16.990  0.00  0.00    +0.150 HD
ENDBRANCH  28  33
ENDBRANCH  24  26
ENDBRANCH   2  24
TORSDOF 6
ENDMDL
MODEL 2
REMARK VINA RESULT:     -11.7      6.280     11.137
REMARK  Name = 216239
REMARK  6 active torsions:
REMARK  status: ('A' for Active; 'I' for Inactive)
REMARK    1  A    between atoms: C_1  and  N_9
REMARK    2  A    between atoms: C_2  and  O_24
REMARK    3  A    between atoms: N_8  and  C_14
REMARK    4  A    between atoms: C_15  and  C_23
REMARK    5  A    between atoms: O_24  and  C_26
REMARK    6  A    between atoms: C_28  and  C_33
REMARK                            x       y       z     vdW  Elec       q    Type
REMARK                         _______ _______ _______ _____ _____    ______ ____
ROOT
ATOM      1  C   UNL     1      34.982 -18.930 -23.245  0.00  0.00    +0.052 C 
ATOM      2  C   UNL     1      34.128 -17.264 -25.286  0.00  0.00    +0.145 C 
ATOM      3  C   UNL     1      35.360 -17.599 -23.235  0.00  0.00    +0.018 C 
ATOM      4  C   UNL     1      34.186 -19.448 -24.254  0.00  0.00    +0.018 C 
ATOM      5  C   UNL     1      34.929 -16.759 -24.263  0.00  0.00    +0.039 C 
ATOM      6  C   UNL     1      33.756 -18.609 -25.283  0.00  0.00    +0.039 C 
ENDROOT
BRANCH   1   9
ATOM      7  O   UNL     1      33.462 -20.119 -20.965  0.00  0.00    -0.252 OA
ATOM      8  N   UNL     1      35.480 -21.120 -20.321  0.00  0.00    -0.268 N 
ATOM      9  N   UNL     1      35.418 -19.781 -22.203  0.00  0.00    -0.268 N 
ATOM     10  C   UNL     1      34.659 -20.316 -21.149  0.00  0.00    +0.308 C 
ATOM     11  H   UNL     1      36.425 -21.186 -20.591  0.00  0.00    +0.156 HD
ATOM     12  H   UNL     1      36.370 -20.029 -22.217  0.00  0.00    +0.156 HD
BRANCH   8  14
ATOM     13 CL   UNL     1      33.952 -24.133 -15.471  0.00  0.00    -0.082 Cl
ATOM     14  C   UNL     1      35.129 -21.831 -19.173  0.00  0.00    +0.052 C 
ATOM     15  C   UNL     1      35.720 -22.752 -17.019  0.00  0.00    +0.083 C 
ATOM     16  C   UNL     1      36.071 -22.042 -18.167  0.00  0.00    +0.019 C 
ATOM     17  C   UNL     1      33.834 -22.331 -19.032  0.00  0.00    +0.016 C 
ATOM     18  C   UNL     1      34.425 -23.252 -16.878  0.00  0.00    +0.062 C 
ATOM     19  C   UNL     1      33.482 -23.041 -17.884  0.00  0.00    +0.013 C 
BRANCH  15  23
ATOM     20  F   UNL     1      36.400 -22.454 -14.745  0.00  0.00    -0.166 F 
ATOM     21  F   UNL     1      37.056 -24.267 -15.739  0.00  0.00    -0.166 F 
ATOM     22  F   UNL     1      37.942 -22.355 -16.274  0.00  0.00    -0.166 F 
ATOM     23  C   UNL     1      36.758 -22.955 -15.963  0.00  0.00    +0.419 C 
ENDBRANCH  15  23
ENDBRANCH   8  14
ENDBRANCH   1   9
BRANCH   2  24
ATOM     24  O   UNL     1      33.709 -16.446 -26.290  0.00  0.00    -0.453 OA
BRANCH  24  26
ATOM     25  N   UNL     1      33.410 -12.382 -25.471  0.00  0.00    -0.239 NA
ATOM     26  C   UNL     1      33.609 -15.092 -26.017  0.00  0.00    +0.149 C 
ATOM     27  C   UNL     1      33.328 -14.683 -24.731  0.00  0.00    +0.061 C 
ATOM     28  C   UNL     1      33.240 -13.318 -24.509  0.00  0.00    +0.137 C 
ATOM     29  C   UNL     1      33.792 -14.184 -27.038  0.00  0.00    +0.058 C 
ATOM     30  C   UNL     1      33.681 -12.841 -26.713  0.00  0.00    +0.102 C 
BRANCH  28  33
ATOM     31  O   UNL     1      32.920 -11.584 -22.964  0.00  0.00    -0.268 OA
ATOM     32  N   UNL     1      32.681 -13.754 -22.181  0.00  0.00    -0.298 N 
ATOM     33  C   UNL     1      32.948 -12.809 -23.180  0.00  0.00    +0.264 C 
ATOM     34  C   UNL     1      32.352 -13.404 -20.818  0.00  0.00    +0.111 C 
ATOM     35  H   UNL     1      32.720 -14.708 -22.420  0.00  0.00    +0.150 HD
ENDBRANCH  28  33
ENDBRANCH  24  26
ENDBRANCH   2  24
TORSDOF 6
ENDMDL
MODEL 3
REMARK VINA RESULT:     -11.7      3.744      6.327
REMARK  Name = 216239
REMARK  6 active torsions:
REMARK  status: ('A' for Active; 'I' for Inactive)
REMARK    1  A    between atoms: C_1  and  N_9
REMARK    2  A    between atoms: C_2  and  O_24
REMARK    3  A    between atoms: N_8  and  C_14
REMARK    4  A    between atoms: C_15  and  C_23
REMARK    5  A    between atoms: O_24  and  C_26
REMARK    6  A    between atoms: C_28  and  C_33
REMARK                            x       y       z     vdW  Elec       q    Type
REMARK                         _______ _______ _______ _____ _____    ______ ____
ROOT
ATOM      1  C   UNL     1      35.563 -21.476 -19.404  0.00  0.00    +0.052 C 
ATOM      2  C   UNL     1      34.997 -23.235 -17.340  0.00  0.00    +0.145 C 
ATOM      3  C   UNL     1      36.470 -21.619 -18.368  0.00  0.00    +0.018 C 
ATOM      4  C   UNL     1      34.378 -22.194 -19.431  0.00  0.00    +0.018 C 
ATOM      5  C   UNL     1      36.185 -22.505 -17.329  0.00  0.00    +0.039 C 
ATOM      6  C   UNL     1      34.093 -23.079 -18.391  0.00  0.00    +0.039 C 
ENDROOT
BRANCH   1   9
ATOM      7  O   UNL     1      33.744 -19.711 -20.984  0.00  0.00    -0.252 OA
ATOM      8  N   UNL     1      35.654 -19.014 -22.147  0.00  0.00    -0.268 N 
ATOM      9  N   UNL     1      35.852 -20.578 -20.458  0.00  0.00    -0.268 N 
ATOM     10  C   UNL     1      34.955 -19.766 -21.172  0.00  0.00    +0.308 C 
ATOM     11  H   UNL     1      36.627 -19.163 -22.185  0.00  0.00    +0.156 HD
ATOM     12  H   UNL     1      36.797 -20.514 -20.724  0.00  0.00    +0.156 HD
BRANCH   8  14
ATOM     13 CL   UNL     1      33.516 -15.139 -26.065  0.00  0.00    -0.082 Cl
ATOM     14  C   UNL     1      35.149 -18.092 -23.064  0.00  0.00    +0.052 C 
ATOM     15  C   UNL     1      34.439 -15.846 -23.599  0.00  0.00    +0.083 C 
ATOM     16  C   UNL     1      34.943 -16.768 -22.682  0.00  0.00    +0.019 C 
ATOM     17  C   UNL     1      34.850 -18.497 -24.366  0.00  0.00    +0.016 C 
ATOM     18  C   UNL     1      34.139 -16.250 -24.901  0.00  0.00    +0.062 C 
ATOM     19  C   UNL     1      34.346 -17.576 -25.283  0.00  0.00    +0.013 C 
BRANCH  15  23
ATOM     20  F   UNL     1      34.615 -13.509 -24.077  0.00  0.00    -0.166 F 
ATOM     21  F   UNL     1      32.935 -14.140 -22.859  0.00  0.00    -0.166 F 
ATOM     22  F   UNL     1      34.942 -14.139 -22.022  0.00  0.00    -0.166 F 
ATOM     23  C   UNL     1      34.235 -14.435 -23.150  0.00  0.00    +0.419 C 
ENDBRANCH  15  23
ENDBRANCH   8  14
ENDBRANCH   1   9
BRANCH   2  24
ATOM     24  O   UNL     1      34.719 -24.098 -16.325  0.00  0.00    -0.453 OA
BRANCH  24  26
ATOM     25  N   UNL     1      31.250 -23.446 -14.131  0.00  0.00    -0.239 NA
ATOM     26  C   UNL     1      33.563 -23.880 -15.595  0.00  0.00    +0.149 C 
ATOM     27  C   UNL     1      32.400 -23.546 -16.255  0.00  0.00    +0.061 C 
ATOM     28  C   UNL     1      31.271 -23.340 -15.479  0.00  0.00    +0.137 C 
ATOM     29  C   UNL     1      33.601 -24.002 -14.221  0.00  0.00    +0.058 C 
ATOM     30  C   UNL     1      32.418 -23.774 -13.536  0.00  0.00    +0.102 C 
BRANCH  28  33
ATOM     31  O   UNL     1      29.972 -22.603 -17.286  0.00  0.00    -0.268 OA
ATOM     32  N   UNL     1      28.853 -23.120 -15.322  0.00  0.00    -0.298 N 
ATOM     33  C   UNL     1      30.008 -22.986 -16.103  0.00  0.00    +0.264 C 
ATOM     34  C   UNL     1      27.522 -22.830 -15.808  0.00  0.00    +0.111 C 
ATOM     35  H   UNL     1      28.952 -23.428 -14.392  0.00  0.00    +0.150 HD
ENDBRANCH  28  33
ENDBRANCH  24  26
ENDBRANCH   2  24
TORSDOF 6
ENDMDL
MODEL 4
REMARK VINA RESULT:     -11.7      7.453     12.812
REMARK  Name = 216239
REMARK  6 active torsions:
REMARK  status: ('A' for Active; 'I' for Inactive)
REMARK    1  A    between atoms: C_1  and  N_9
REMARK    2  A    between atoms: C_2  and  O_24
REMARK    3  A    between atoms: N_8  and  C_14
REMARK    4  A    between atoms: C_15  and  C_23
REMARK    5  A    between atoms: O_24  and  C_26
REMARK    6  A    between atoms: C_28  and  C_33
REMARK                            x       y       z     vdW  Elec       q    Type
REMARK                         _______ _______ _______ _____ _____    ______ ____
ROOT
ATOM      1  C   UNL     1      35.847 -20.980 -19.842  0.00  0.00    +0.052 C 
ATOM      2  C   UNL     1      35.802 -19.019 -21.798  0.00  0.00    +0.145 C 
ATOM      3  C   UNL     1      34.649 -20.668 -20.462  0.00  0.00    +0.018 C 
ATOM      4  C   UNL     1      37.024 -20.332 -20.179  0.00  0.00    +0.018 C 
ATOM      5  C   UNL     1      34.626 -19.681 -21.447  0.00  0.00    +0.039 C 
ATOM      6  C   UNL     1      37.001 -19.344 -21.164  0.00  0.00    +0.039 C 
ENDROOT
BRANCH   1   9
ATOM      7  O   UNL     1      37.192 -21.010 -17.176  0.00  0.00    -0.252 OA
ATOM      8  N   UNL     1      36.290 -23.154 -16.897  0.00  0.00    -0.268 N 
ATOM      9  N   UNL     1      35.870 -21.981 -18.843  0.00  0.00    -0.268 N 
ATOM     10  C   UNL     1      36.521 -21.945 -17.599  0.00  0.00    +0.308 C 
ATOM     11  H   UNL     1      35.731 -23.818 -17.363  0.00  0.00    +0.156 HD
ATOM     12  H   UNL     1      35.368 -22.803 -19.043  0.00  0.00    +0.156 HD
BRANCH   8  14
ATOM     13 CL   UNL     1      38.208 -24.725 -11.532  0.00  0.00    -0.082 Cl
ATOM     14  C   UNL     1      36.750 -23.531 -15.636  0.00  0.00    +0.052 C 
ATOM     15  C   UNL     1      38.354 -24.695 -14.254  0.00  0.00    +0.083 C 
ATOM     16  C   UNL     1      37.894 -24.319 -15.516  0.00  0.00    +0.019 C 
ATOM     17  C   UNL     1      36.064 -23.118 -14.493  0.00  0.00    +0.016 C 
ATOM     18  C   UNL     1      37.668 -24.283 -13.110  0.00  0.00    +0.062 C 
ATOM     19  C   UNL     1      36.524 -23.494 -13.231  0.00  0.00    +0.013 C 
BRANCH  15  23
ATOM     20  F   UNL     1      40.136 -25.820 -15.383  0.00  0.00    -0.166 F 
ATOM     21  F   UNL     1      40.587 -24.965 -13.442  0.00  0.00    -0.166 F 
ATOM     22  F   UNL     1      39.349 -26.747 -13.581  0.00  0.00    -0.166 F 
ATOM     23  C   UNL     1      39.585 -25.538 -14.168  0.00  0.00    +0.419 C 
ENDBRANCH  15  23
ENDBRANCH   8  14
ENDBRANCH   1   9
BRANCH   2  24
ATOM     24  O   UNL     1      35.780 -18.055 -22.758  0.00  0.00    -0.453 OA
BRANCH  24  26
ATOM     25  N   UNL     1      34.200 -14.350 -21.733  0.00  0.00    -0.239 NA
ATOM     26  C   UNL     1      35.254 -16.820 -22.417  0.00  0.00    +0.149 C 
ATOM     27  C   UNL     1      34.832 -15.968 -23.415  0.00  0.00    +0.061 C 
ATOM     28  C   UNL     1      34.312 -14.745 -23.022  0.00  0.00    +0.137 C 
ATOM     29  C   UNL     1      35.164 -16.471 -21.086  0.00  0.00    +0.058 C 
ATOM     30  C   UNL     1      34.630 -15.225 -20.797  0.00  0.00    +0.102 C 
BRANCH  28  33
ATOM     31  O   UNL     1      33.096 -14.160 -24.939  0.00  0.00    -0.268 OA
ATOM     32  N   UNL     1      34.257 -12.464 -23.866  0.00  0.00    -0.298 N 
ATOM     33  C   UNL     1      33.845 -13.794 -24.016  0.00  0.00    +0.264 C 
ATOM     34  C   UNL     1      33.858 -11.399 -24.758  0.00  0.00    +0.111 C 
ATOM     35  H   UNL     1      34.851 -12.242 -23.112  0.00  0.00    +0.150 HD
ENDBRANCH  28  33
ENDBRANCH  24  26
ENDBRANCH   2  24
TORSDOF 6
ENDMDL
MODEL 5
REMARK VINA RESULT:     -11.7      1.736      2.384
REMARK  Name = 216239
REMARK  6 active torsions:
REMARK  status: ('A' for Active; 'I' for Inactive)
REMARK    1  A    between atoms: C_1  and  N_9
REMARK    2  A    between atoms: C_2  and  O_24
REMARK    3  A    between atoms: N_8  and  C_14
REMARK    4  A    between atoms: C_15  and  C_23
REMARK    5  A    between atoms: O_24  and  C_26
REMARK    6  A    between atoms: C_28  and  C_33
REMARK                            x       y       z     vdW  Elec       q    Type
REMARK                         _______ _______ _______ _____ _____    ______ ____
ROOT
ATOM      1  C   UNL     1      34.643 -15.746 -23.319  0.00  0.00    +0.052 C 
ATOM      2  C   UNL     1      35.402 -18.307 -22.585  0.00  0.00    +0.145 C 
ATOM      3  C   UNL     1      34.610 -16.759 -24.262  0.00  0.00    +0.018 C 
ATOM      4  C   UNL     1      35.047 -15.985 -22.016  0.00  0.00    +0.018 C 
ATOM      5  C   UNL     1      34.992 -18.048 -23.892  0.00  0.00    +0.039 C 
ATOM      6  C   UNL     1      35.431 -17.275 -21.646  0.00  0.00    +0.039 C 
ENDROOT
BRANCH   1   9
ATOM      7  O   UNL     1      33.788 -13.432 -21.635  0.00  0.00    -0.252 OA
ATOM      8  N   UNL     1      33.553 -12.238 -23.636  0.00  0.00    -0.268 N 
ATOM      9  N   UNL     1      34.255 -14.438 -23.694  0.00  0.00    -0.268 N 
ATOM     10  C   UNL     1      33.860 -13.381 -22.858  0.00  0.00    +0.308 C 
ATOM     11  H   UNL     1      33.656 -12.344 -24.610  0.00  0.00    +0.156 HD
ATOM     12  H   UNL     1      34.262 -14.245 -24.659  0.00  0.00    +0.156 HD
BRANCH   8  14
ATOM     13 CL   UNL     1      31.697  -6.934 -21.804  0.00  0.00    -0.082 Cl
ATOM     14  C   UNL     1      33.124 -10.982 -23.208  0.00  0.00    +0.052 C 
ATOM     15  C   UNL     1      33.415  -8.585 -23.129  0.00  0.00    +0.083 C 
ATOM     16  C   UNL     1      33.845  -9.840 -23.556  0.00  0.00    +0.019 C 
ATOM     17  C   UNL     1      31.971 -10.868 -22.430  0.00  0.00    +0.016 C 
ATOM     18  C   UNL     1      32.262  -8.470 -22.351  0.00  0.00    +0.062 C 
ATOM     19  C   UNL     1      31.540  -9.612 -22.002  0.00  0.00    +0.013 C 
BRANCH  15  23
ATOM     20  F   UNL     1      33.554  -6.206 -23.341  0.00  0.00    -0.166 F 
ATOM     21  F   UNL     1      35.382  -7.257 -22.831  0.00  0.00    -0.166 F 
ATOM     22  F   UNL     1      34.569  -7.408 -24.842  0.00  0.00    -0.166 F 
ATOM     23  C   UNL     1      34.215  -7.386 -23.525  0.00  0.00    +0.419 C 
ENDBRANCH  15  23
ENDBRANCH   8  14
ENDBRANCH   1   9
BRANCH   2  24
ATOM     24  O   UNL     1      35.777 -19.564 -22.225  0.00  0.00    -0.453 OA
BRANCH  24  26
ATOM     25  N   UNL     1      33.444 -21.540 -19.410  0.00  0.00    -0.239 NA
ATOM     26  C   UNL     1      35.000 -20.223 -21.287  0.00  0.00    +0.149 C 
ATOM     27  C   UNL     1      35.617 -20.913 -20.265  0.00  0.00    +0.061 C 
ATOM     28  C   UNL     1      34.795 -21.554 -19.352  0.00  0.00    +0.137 C 
ATOM     29  C   UNL     1      33.626 -20.175 -21.397  0.00  0.00    +0.058 C 
ATOM     30  C   UNL     1      32.894 -20.850 -20.433  0.00  0.00    +0.102 C 
BRANCH  28  33
ATOM     31  O   UNL     1      34.817 -23.331 -17.823  0.00  0.00    -0.268 OA
ATOM     32  N   UNL     1      36.571 -21.819 -17.710  0.00  0.00    -0.298 N 
ATOM     33  C   UNL     1      35.370 -22.300 -18.246  0.00  0.00    +0.264 C 
ATOM     34  C   UNL     1      37.276 -22.464 -16.625  0.00  0.00    +0.111 C 
ATOM     35  H   UNL     1      36.955 -20.997 -18.091  0.00  0.00    +0.150 HD
ENDBRANCH  28  33
ENDBRANCH  24  26
ENDBRANCH   2  24
TORSDOF 6
ENDMDL
MODEL 6
REMARK VINA RESULT:     -11.7      3.777      6.533
REMARK  Name = 216239
REMARK  6 active torsions:
REMARK  status: ('A' for Active; 'I' for Inactive)
REMARK    1  A    between atoms: C_1  and  N_9
REMARK    2  A    between atoms: C_2  and  O_24
REMARK    3  A    between atoms: N_8  and  C_14
REMARK    4  A    between atoms: C_15  and  C_23
REMARK    5  A    between atoms: O_24  and  C_26
REMARK    6  A    between atoms: C_28  and  C_33
REMARK                            x       y       z     vdW  Elec       q    Type
REMARK                         _______ _______ _______ _____ _____    ______ ____
ROOT
ATOM      1  C   UNL     1      35.488 -21.514 -19.368  0.00  0.00    +0.052 C 
ATOM      2  C   UNL     1      34.912 -23.229 -17.270  0.00  0.00    +0.145 C 
ATOM      3  C   UNL     1      36.443 -21.732 -18.389  0.00  0.00    +0.018 C 
ATOM      4  C   UNL     1      34.251 -22.135 -19.321  0.00  0.00    +0.018 C 
ATOM      5  C   UNL     1      36.152 -22.596 -17.333  0.00  0.00    +0.039 C 
ATOM      6  C   UNL     1      33.960 -22.998 -18.264  0.00  0.00    +0.039 C 
ENDROOT
BRANCH   1   9
ATOM      7  O   UNL     1      33.683 -19.760 -20.974  0.00  0.00    -0.252 OA
ATOM      8  N   UNL     1      35.596 -19.103 -22.155  0.00  0.00    -0.268 N 
ATOM      9  N   UNL     1      35.783 -20.638 -20.438  0.00  0.00    -0.268 N 
ATOM     10  C   UNL     1      34.892 -19.830 -21.164  0.00  0.00    +0.308 C 
ATOM     11  H   UNL     1      36.568 -19.262 -22.192  0.00  0.00    +0.156 HD
ATOM     12  H   UNL     1      36.728 -20.588 -20.708  0.00  0.00    +0.156 HD
BRANCH   8  14
ATOM     13 CL   UNL     1      33.485 -15.279 -26.137  0.00  0.00    -0.082 Cl
ATOM     14  C   UNL     1      35.097 -18.193 -23.088  0.00  0.00    +0.052 C 
ATOM     15  C   UNL     1      34.415 -15.949 -23.664  0.00  0.00    +0.083 C 
ATOM     16  C   UNL     1      34.913 -16.858 -22.731  0.00  0.00    +0.019 C 
ATOM     17  C   UNL     1      34.783 -18.621 -24.378  0.00  0.00    +0.016 C 
ATOM     18  C   UNL     1      34.101 -16.375 -24.955  0.00  0.00    +0.062 C 
ATOM     19  C   UNL     1      34.286 -17.711 -25.311  0.00  0.00    +0.013 C 
BRANCH  15  23
ATOM     20  F   UNL     1      34.612 -13.625 -24.194  0.00  0.00    -0.166 F 
ATOM     21  F   UNL     1      32.942 -14.209 -22.940  0.00  0.00    -0.166 F 
ATOM     22  F   UNL     1      34.960 -14.215 -22.131  0.00  0.00    -0.166 F 
ATOM     23  C   UNL     1      34.234 -14.526 -23.243  0.00  0.00    +0.419 C 
ENDBRANCH  15  23
ENDBRANCH   8  14
ENDBRANCH   1   9
BRANCH   2  24
ATOM     24  O   UNL     1      34.628 -24.071 -16.239  0.00  0.00    -0.453 OA
BRANCH  24  26
ATOM     25  N   UNL     1      37.470 -24.464 -13.233  0.00  0.00    -0.239 NA
ATOM     26  C   UNL     1      35.574 -24.203 -15.237  0.00  0.00    +0.149 C 
ATOM     27  C   UNL     1      36.551 -25.169 -15.355  0.00  0.00    +0.061 C 
ATOM     28  C   UNL     1      37.475 -25.259 -14.327  0.00  0.00    +0.137 C 
ATOM     29  C   UNL     1      35.520 -23.363 -14.144  0.00  0.00    +0.058 C 
ATOM     30  C   UNL     1      36.491 -23.536 -13.170  0.00  0.00    +0.102 C 
BRANCH  28  33
ATOM     31  O   UNL     1      38.270 -27.447 -14.610  0.00  0.00    -0.268 OA
ATOM     32  N   UNL     1      39.844 -25.798 -14.184  0.00  0.00    -0.298 N 
ATOM     33  C   UNL     1      38.534 -26.253 -14.379  0.00  0.00    +0.264 C 
ATOM     34  C   UNL     1      41.004 -26.659 -14.229  0.00  0.00    +0.111 C 
ATOM     35  H   UNL     1      39.982 -24.839 -14.005  0.00  0.00    +0.150 HD
ENDBRANCH  28  33
ENDBRANCH  24  26
ENDBRANCH   2  24
TORSDOF 6
ENDMDL
MODEL 7
REMARK VINA RESULT:     -11.6      2.265      3.434
REMARK  Name = 216239
REMARK  6 active torsions:
REMARK  status: ('A' for Active; 'I' for Inactive)
REMARK    1  A    between atoms: C_1  and  N_9
REMARK    2  A    between atoms: C_2  and  O_24
REMARK    3  A    between atoms: N_8  and  C_14
REMARK    4  A    between atoms: C_15  and  C_23
REMARK    5  A    between atoms: O_24  and  C_26
REMARK    6  A    between atoms: C_28  and  C_33
REMARK                            x       y       z     vdW  Elec       q    Type
REMARK                         _______ _______ _______ _____ _____    ______ ____
ROOT
ATOM      1  C   UNL     1      33.806 -14.021 -23.246  0.00  0.00    +0.052 C 
ATOM      2  C   UNL     1      34.744 -16.601 -23.621  0.00  0.00    +0.145 C 
ATOM      3  C   UNL     1      34.560 -14.620 -22.250  0.00  0.00    +0.018 C 
ATOM      4  C   UNL     1      33.511 -14.685 -24.425  0.00  0.00    +0.018 C 
ATOM      5  C   UNL     1      35.032 -15.919 -22.439  0.00  0.00    +0.039 C 
ATOM      6  C   UNL     1      33.982 -15.984 -24.614  0.00  0.00    +0.039 C 
ENDROOT
BRANCH   1   9
ATOM      7  O   UNL     1      34.701 -11.449 -24.472  0.00  0.00    -0.252 OA
ATOM      8  N   UNL     1      33.033 -10.417 -23.191  0.00  0.00    -0.268 N 
ATOM      9  N   UNL     1      33.328 -12.704 -23.054  0.00  0.00    -0.268 N 
ATOM     10  C   UNL     1      33.786 -11.522 -23.659  0.00  0.00    +0.308 C 
ATOM     11  H   UNL     1      32.328 -10.626 -22.536  0.00  0.00    +0.156 HD
ATOM     12  H   UNL     1      32.583 -12.603 -22.419  0.00  0.00    +0.156 HD
BRANCH   8  14
ATOM     13 CL   UNL     1      33.607  -4.719 -24.653  0.00  0.00    -0.082 Cl
ATOM     14  C   UNL     1      33.159  -9.070 -23.532  0.00  0.00    +0.052 C 
ATOM     15  C   UNL     1      32.284  -6.818 -23.526  0.00  0.00    +0.083 C 
ATOM     16  C   UNL     1      32.157  -8.165 -23.185  0.00  0.00    +0.019 C 
ATOM     17  C   UNL     1      34.289  -8.629 -24.223  0.00  0.00    +0.016 C 
ATOM     18  C   UNL     1      33.413  -6.377 -24.216  0.00  0.00    +0.062 C 
ATOM     19  C   UNL     1      34.415  -7.283 -24.564  0.00  0.00    +0.013 C 
BRANCH  15  23
ATOM     20  F   UNL     1      31.587  -4.920 -22.248  0.00  0.00    -0.166 F 
ATOM     21  F   UNL     1      30.653  -5.198 -24.186  0.00  0.00    -0.166 F 
ATOM     22  F   UNL     1      30.142  -6.520 -22.537  0.00  0.00    -0.166 F 
ATOM     23  C   UNL     1      31.189  -5.880 -23.133  0.00  0.00    +0.419 C 
ENDBRANCH  15  23
ENDBRANCH   8  14
ENDBRANCH   1   9
BRANCH   2  24
ATOM     24  O   UNL     1      35.203 -17.869 -23.804  0.00  0.00    -0.453 OA
BRANCH  24  26
ATOM     25  N   UNL     1      36.057 -20.124 -20.419  0.00  0.00    -0.239 NA
ATOM     26  C   UNL     1      35.486 -18.620 -22.676  0.00  0.00    +0.149 C 
ATOM     27  C   UNL     1      34.488 -19.376 -22.100  0.00  0.00    +0.061 C 
ATOM     28  C   UNL     1      34.823 -20.110 -20.974  0.00  0.00    +0.137 C 
ATOM     29  C   UNL     1      36.763 -18.595 -22.154  0.00  0.00    +0.058 C 
ATOM     30  C   UNL     1      36.996 -19.364 -21.025  0.00  0.00    +0.102 C 
BRANCH  28  33
ATOM     31  O   UNL     1      32.628 -20.865 -20.645  0.00  0.00    -0.268 OA
ATOM     32  N   UNL     1      34.278 -21.803 -19.313  0.00  0.00    -0.298 N 
ATOM     33  C   UNL     1      33.825 -20.932 -20.311  0.00  0.00    +0.264 C 
ATOM     34  C   UNL     1      33.412 -22.699 -18.581  0.00  0.00    +0.111 C 
ATOM     35  H   UNL     1      35.239 -21.805 -19.098  0.00  0.00    +0.150 HD
ENDBRANCH  28  33
ENDBRANCH  24  26
ENDBRANCH   2  24
TORSDOF 6
ENDMDL
MODEL 8
REMARK VINA RESULT:     -11.5      7.508     12.749
REMARK  Name = 216239
REMARK  6 active torsions:
REMARK  status: ('A' for Active; 'I' for Inactive)
REMARK    1  A    between atoms: C_1  and  N_9
REMARK    2  A    between atoms: C_2  and  O_24
REMARK    3  A    between atoms: N_8  and  C_14
REMARK    4  A    between atoms: C_15  and  C_23
REMARK    5  A    between atoms: O_24  and  C_26
REMARK    6  A    between atoms: C_28  and  C_33
REMARK                            x       y       z     vdW  Elec       q    Type
REMARK                         _______ _______ _______ _____ _____    ______ ____
ROOT
ATOM      1  C   UNL     1      35.474 -21.391 -19.544  0.00  0.00    +0.052 C 
ATOM      2  C   UNL     1      35.990 -19.491 -21.492  0.00  0.00    +0.145 C 
ATOM      3  C   UNL     1      34.417 -20.834 -20.243  0.00  0.00    +0.018 C 
ATOM      4  C   UNL     1      36.784 -21.019 -19.797  0.00  0.00    +0.018 C 
ATOM      5  C   UNL     1      34.677 -19.877 -21.224  0.00  0.00    +0.039 C 
ATOM      6  C   UNL     1      37.044 -20.061 -20.778  0.00  0.00    +0.039 C 
ENDROOT
BRANCH   1   9
ATOM      7  O   UNL     1      36.425 -21.559 -16.718  0.00  0.00    -0.252 OA
ATOM      8  N   UNL     1      35.182 -23.538 -16.561  0.00  0.00    -0.268 N 
ATOM      9  N   UNL     1      35.210 -22.361 -18.548  0.00  0.00    -0.268 N 
ATOM     10  C   UNL     1      35.685 -22.394 -17.227  0.00  0.00    +0.308 C 
ATOM     11  H   UNL     1      34.598 -24.123 -17.097  0.00  0.00    +0.156 HD
ATOM     12  H   UNL     1      34.623 -23.104 -18.814  0.00  0.00    +0.156 HD
BRANCH   8  14
ATOM     13 CL   UNL     1      36.085 -25.274 -10.984  0.00  0.00    -0.082 Cl
ATOM     14  C   UNL     1      35.405 -23.951 -15.247  0.00  0.00    +0.052 C 
ATOM     15  C   UNL     1      36.906 -24.745 -13.528  0.00  0.00    +0.083 C 
ATOM     16  C   UNL     1      36.683 -24.334 -14.842  0.00  0.00    +0.019 C 
ATOM     17  C   UNL     1      34.348 -23.979 -14.337  0.00  0.00    +0.016 C 
ATOM     18  C   UNL     1      35.848 -24.773 -12.618  0.00  0.00    +0.062 C 
ATOM     19  C   UNL     1      34.570 -24.389 -13.023  0.00  0.00    +0.013 C 
BRANCH  15  23
ATOM     20  F   UNL     1      38.375 -26.426 -12.671  0.00  0.00    -0.166 F 
ATOM     21  F   UNL     1      39.190 -25.072 -14.157  0.00  0.00    -0.166 F 
ATOM     22  F   UNL     1      38.797 -24.361 -12.140  0.00  0.00    -0.166 F 
ATOM     23  C   UNL     1      38.290 -25.146 -13.134  0.00  0.00    +0.419 C 
ENDBRANCH  15  23
ENDBRANCH   8  14
ENDBRANCH   1   9
BRANCH   2  24
ATOM     24  O   UNL     1      36.243 -18.556 -22.448  0.00  0.00    -0.453 OA
BRANCH  24  26
ATOM     25  N   UNL     1      33.659 -18.369 -25.698  0.00  0.00    -0.239 NA
ATOM     26  C   UNL     1      35.382 -18.493 -23.530  0.00  0.00    +0.149 C 
ATOM     27  C   UNL     1      34.983 -17.262 -24.004  0.00  0.00    +0.061 C 
ATOM     28  C   UNL     1      34.122 -17.253 -25.089  0.00  0.00    +0.137 C 
ATOM     29  C   UNL     1      34.943 -19.664 -24.111  0.00  0.00    +0.058 C 
ATOM     30  C   UNL     1      34.083 -19.548 -25.191  0.00  0.00    +0.102 C 
BRANCH  28  33
ATOM     31  O   UNL     1      33.377 -15.901 -26.854  0.00  0.00    -0.268 OA
ATOM     32  N   UNL     1      33.521 -14.918 -24.759  0.00  0.00    -0.298 N 
ATOM     33  C   UNL     1      33.657 -15.993 -25.645  0.00  0.00    +0.264 C 
ATOM     34  C   UNL     1      33.049 -13.610 -25.156  0.00  0.00    +0.111 C 
ATOM     35  H   UNL     1      33.761 -15.059 -23.815  0.00  0.00    +0.150 HD
ENDBRANCH  28  33
ENDBRANCH  24  26
ENDBRANCH   2  24
TORSDOF 6
ENDMDL
MODEL 9
REMARK VINA RESULT:     -11.4      2.660      3.977
REMARK  Name = 216239
REMARK  6 active torsions:
REMARK  status: ('A' for Active; 'I' for Inactive)
REMARK    1  A    between atoms: C_1  and  N_9
REMARK    2  A    between atoms: C_2  and  O_24
REMARK    3  A    between atoms: N_8  and  C_14
REMARK    4  A    between atoms: C_15  and  C_23
REMARK    5  A    between atoms: O_24  and  C_26
REMARK    6  A    between atoms: C_28  and  C_33
REMARK                            x       y       z     vdW  Elec       q    Type
REMARK                         _______ _______ _______ _____ _____    ______ ____
ROOT
ATOM      1  C   UNL     1      33.683 -14.014 -22.855  0.00  0.00    +0.052 C 
ATOM      2  C   UNL     1      34.884 -16.457 -23.364  0.00  0.00    +0.145 C 
ATOM      3  C   UNL     1      33.529 -14.598 -24.101  0.00  0.00    +0.018 C 
ATOM      4  C   UNL     1      34.425 -14.624 -21.858  0.00  0.00    +0.018 C 
ATOM      5  C   UNL     1      34.133 -15.829 -24.357  0.00  0.00    +0.039 C 
ATOM      6  C   UNL     1      35.031 -15.855 -22.114  0.00  0.00    +0.039 C 
ENDROOT
BRANCH   1   9
ATOM      7  O   UNL     1      33.898 -11.421 -24.321  0.00  0.00    -0.252 OA
ATOM      8  N   UNL     1      32.419 -10.552 -22.726  0.00  0.00    -0.268 N 
ATOM      9  N   UNL     1      33.070 -12.766 -22.596  0.00  0.00    -0.268 N 
ATOM     10  C   UNL     1      33.204 -11.570 -23.321  0.00  0.00    +0.308 C 
ATOM     11  H   UNL     1      31.913 -10.818 -21.923  0.00  0.00    +0.156 HD
ATOM     12  H   UNL     1      32.476 -12.730 -21.813  0.00  0.00    +0.156 HD
BRANCH   8  14
ATOM     13 CL   UNL     1      31.728  -4.928 -24.405  0.00  0.00    -0.082 Cl
ATOM     14  C   UNL     1      32.266  -9.224 -23.123  0.00  0.00    +0.052 C 
ATOM     15  C   UNL     1      33.218  -7.165 -23.954  0.00  0.00    +0.083 C 
ATOM     16  C   UNL     1      33.372  -8.493 -23.556  0.00  0.00    +0.019 C 
ATOM     17  C   UNL     1      31.006  -8.627 -23.087  0.00  0.00    +0.016 C 
ATOM     18  C   UNL     1      31.958  -6.567 -23.918  0.00  0.00    +0.062 C 
ATOM     19  C   UNL     1      30.852  -7.299 -23.485  0.00  0.00    +0.013 C 
BRANCH  15  23
ATOM     20  F   UNL     1      34.254  -5.064 -24.436  0.00  0.00    -0.166 F 
ATOM     21  F   UNL     1      35.526  -6.626 -23.632  0.00  0.00    -0.166 F 
ATOM     22  F   UNL     1      34.805  -6.761 -25.679  0.00  0.00    -0.166 F 
ATOM     23  C   UNL     1      34.428  -6.417 -24.414  0.00  0.00    +0.419 C 
ENDBRANCH  15  23
ENDBRANCH   8  14
ENDBRANCH   1   9
BRANCH   2  24
ATOM     24  O   UNL     1      35.475 -17.657 -23.614  0.00  0.00    -0.453 OA
BRANCH  24  26
ATOM     25  N   UNL     1      36.184 -20.175 -20.384  0.00  0.00    -0.239 NA
ATOM     26  C   UNL     1      35.711 -18.495 -22.538  0.00  0.00    +0.149 C 
ATOM     27  C   UNL     1      34.669 -19.230 -22.015  0.00  0.00    +0.061 C 
ATOM     28  C   UNL     1      34.957 -20.055 -20.939  0.00  0.00    +0.137 C 
ATOM     29  C   UNL     1      36.984 -18.577 -22.013  0.00  0.00    +0.058 C 
ATOM     30  C   UNL     1      37.168 -19.431 -20.937  0.00  0.00    +0.102 C 
BRANCH  28  33
ATOM     31  O   UNL     1      32.725 -20.729 -20.688  0.00  0.00    -0.268 OA
ATOM     32  N   UNL     1      34.305 -21.794 -19.366  0.00  0.00    -0.298 N 
ATOM     33  C   UNL     1      33.910 -20.862 -20.334  0.00  0.00    +0.264 C 
ATOM     34  C   UNL     1      33.386 -22.683 -18.692  0.00  0.00    +0.111 C 
ATOM     35  H   UNL     1      35.260 -21.846 -19.132  0.00  0.00    +0.150 HD
ENDBRANCH  28  33
ENDBRANCH  24  26
ENDBRANCH   2  24
TORSDOF 6
ENDMDL
