MODEL 1
REMARK VINA RESULT:     -12.1      0.000      0.000
REMARK  Name = 24743471
REMARK  3 active torsions:
REMARK  status: ('A' for Active; 'I' for Inactive)
REMARK    1  A    between atoms: C_1  and  N_7
REMARK    2  A    between atoms: C_6  and  C_17
REMARK    3  A    between atoms: C_22  and  N_24
REMARK                            x       y       z     vdW  Elec       q    Type
REMARK                         _______ _______ _______ _____ _____    ______ ____
ROOT
ATOM      1  C   UNL     1      36.112 -23.509 -15.880  0.00  0.00    +0.048 C 
ATOM      2  C   UNL     1      34.873 -23.542 -16.520  0.00  0.00    +0.015 C 
ATOM      3  C   UNL     1      37.147 -22.735 -16.406  0.00  0.00    +0.015 C 
ATOM      4  C   UNL     1      34.669 -22.802 -17.685  0.00  0.00    +0.001 C 
ATOM      5  C   UNL     1      36.942 -21.994 -17.570  0.00  0.00    +0.001 C 
ATOM      6  C   UNL     1      35.703 -22.029 -18.209  0.00  0.00    +0.000 C 
ENDROOT
BRANCH   1   7
ATOM      7  N   UNL     1      36.316 -24.240 -14.727  0.00  0.00    -0.311 N 
ATOM      8  N   UNL     1      38.949 -26.433 -14.056  0.00  0.00    +0.387 N 
ATOM      9  C   UNL     1      36.860 -25.978 -13.197  0.00  0.00    -0.003 C 
ATOM     10  C   UNL     1      36.815 -25.618 -14.692  0.00  0.00    +0.050 C 
ATOM     11  C   UNL     1      35.982 -24.948 -12.508  0.00  0.00    +0.021 C 
ATOM     12  C   UNL     1      38.337 -25.916 -12.833  0.00  0.00    -0.076 C 
ATOM     13  C   UNL     1      38.274 -25.729 -15.151  0.00  0.00    -0.057 C 
ATOM     14  C   UNL     1      36.099 -23.705 -13.384  0.00  0.00    +0.091 C 
ATOM     15  C   UNL     1      40.391 -26.246 -14.080  0.00  0.00    -0.101 C 
ATOM     16  H   UNL     1      38.830 -27.444 -14.134  0.00  0.00    -0.080 HD
ENDBRANCH   1   7
BRANCH   6  17
ATOM     17  C   UNL     1      35.491 -21.261 -19.417  0.00  0.00    +0.000 C 
ATOM     18  C   UNL     1      36.576 -20.669 -20.065  0.00  0.00    +0.001 C 
ATOM     19  C   UNL     1      34.204 -21.111 -19.933  0.00  0.00    +0.001 C 
ATOM     20  C   UNL     1      36.373 -19.928 -21.230  0.00  0.00    +0.017 C 
ATOM     21  C   UNL     1      34.001 -20.371 -21.098  0.00  0.00    +0.017 C 
ATOM     22  C   UNL     1      35.086 -19.779 -21.746  0.00  0.00    +0.077 C 
BRANCH  22  24
ATOM     23  O   UNL     1      35.550 -16.878 -22.216  0.00  0.00    -0.268 OA
ATOM     24  N   UNL     1      34.876 -19.012 -22.951  0.00  0.00    -0.155 N 
ATOM     25  N   UNL     1      34.435 -19.773 -24.010  0.00  0.00    -0.170 NA
ATOM     26  C   UNL     1      35.098 -17.636 -23.074  0.00  0.00    +0.272 C 
ATOM     27  C   UNL     1      34.772 -17.023 -24.386  0.00  0.00    +0.062 C 
ATOM     28  C   UNL     1      34.191 -19.183 -25.128  0.00  0.00    +0.118 C 
ATOM     29  C   UNL     1      34.330 -17.757 -25.401  0.00  0.00    +0.027 C 
ENDBRANCH  22  24
ENDBRANCH   6  17
TORSDOF 3
ENDMDL
MODEL 2
REMARK VINA RESULT:     -10.5      7.890     15.030
REMARK  Name = 24743471
REMARK  3 active torsions:
REMARK  status: ('A' for Active; 'I' for Inactive)
REMARK    1  A    between atoms: C_1  and  N_7
REMARK    2  A    between atoms: C_6  and  C_17
REMARK    3  A    between atoms: C_22  and  N_24
REMARK                            x       y       z     vdW  Elec       q    Type
REMARK                         _______ _______ _______ _____ _____    ______ ____
ROOT
ATOM      1  C   UNL     1      32.752  -8.809 -23.136  0.00  0.00    +0.048 C 
ATOM      2  C   UNL     1      33.816  -9.208 -23.944  0.00  0.00    +0.015 C 
ATOM      3  C   UNL     1      31.957  -9.767 -22.505  0.00  0.00    +0.015 C 
ATOM      4  C   UNL     1      34.085 -10.565 -24.123  0.00  0.00    +0.001 C 
ATOM      5  C   UNL     1      32.227 -11.124 -22.684  0.00  0.00    +0.001 C 
ATOM      6  C   UNL     1      33.291 -11.522 -23.493  0.00  0.00    +0.000 C 
ENDROOT
BRANCH   1   7
ATOM      7  N   UNL     1      32.484  -7.466 -22.957  0.00  0.00    -0.311 N 
ATOM      8  N   UNL     1      33.439  -4.829 -25.037  0.00  0.00    +0.387 N 
ATOM      9  C   UNL     1      32.669  -5.096 -22.882  0.00  0.00    -0.003 C 
ATOM     10  C   UNL     1      33.429  -6.383 -23.246  0.00  0.00    +0.050 C 
ATOM     11  C   UNL     1      31.511  -5.546 -22.008  0.00  0.00    +0.021 C 
ATOM     12  C   UNL     1      32.272  -4.494 -24.223  0.00  0.00    -0.076 C 
ATOM     13  C   UNL     1      33.720  -6.239 -24.745  0.00  0.00    -0.057 C 
ATOM     14  C   UNL     1      31.195  -6.956 -22.496  0.00  0.00    +0.091 C 
ATOM     15  C   UNL     1      33.217  -4.588 -26.454  0.00  0.00    -0.101 C 
ATOM     16  H   UNL     1      34.237  -4.235 -24.807  0.00  0.00    -0.080 HD
ENDBRANCH   1   7
BRANCH   6  17
ATOM     17  C   UNL     1      33.571 -12.930 -23.678  0.00  0.00    +0.000 C 
ATOM     18  C   UNL     1      33.200 -13.564 -24.865  0.00  0.00    +0.001 C 
ATOM     19  C   UNL     1      34.209 -13.653 -22.671  0.00  0.00    +0.001 C 
ATOM     20  C   UNL     1      33.469 -14.921 -25.044  0.00  0.00    +0.017 C 
ATOM     21  C   UNL     1      34.478 -15.010 -22.850  0.00  0.00    +0.017 C 
ATOM     22  C   UNL     1      34.107 -15.644 -24.037  0.00  0.00    +0.077 C 
BRANCH  22  24
ATOM     23  O   UNL     1      33.301 -17.425 -26.279  0.00  0.00    -0.268 OA
ATOM     24  N   UNL     1      34.386 -17.049 -24.222  0.00  0.00    -0.155 N 
ATOM     25  N   UNL     1      35.161 -17.586 -23.221  0.00  0.00    -0.170 NA
ATOM     26  C   UNL     1      33.940 -17.817 -25.303  0.00  0.00    +0.272 C 
ATOM     27  C   UNL     1      34.290 -19.260 -25.285  0.00  0.00    +0.062 C 
ATOM     28  C   UNL     1      35.448 -18.841 -23.275  0.00  0.00    +0.118 C 
ATOM     29  C   UNL     1      35.024 -19.780 -24.308  0.00  0.00    +0.027 C 
ENDBRANCH  22  24
ENDBRANCH   6  17
TORSDOF 3
ENDMDL
MODEL 3
REMARK VINA RESULT:     -10.0      1.081      2.180
REMARK  Name = 24743471
REMARK  3 active torsions:
REMARK  status: ('A' for Active; 'I' for Inactive)
REMARK    1  A    between atoms: C_1  and  N_7
REMARK    2  A    between atoms: C_6  and  C_17
REMARK    3  A    between atoms: C_22  and  N_24
REMARK                            x       y       z     vdW  Elec       q    Type
REMARK                         _______ _______ _______ _____ _____    ______ ____
ROOT
ATOM      1  C   UNL     1      36.412 -23.742 -16.115  0.00  0.00    +0.048 C 
ATOM      2  C   UNL     1      37.421 -22.898 -16.580  0.00  0.00    +0.015 C 
ATOM      3  C   UNL     1      35.161 -23.740 -16.734  0.00  0.00    +0.015 C 
ATOM      4  C   UNL     1      37.179 -22.052 -17.663  0.00  0.00    +0.001 C 
ATOM      5  C   UNL     1      34.921 -22.894 -17.818  0.00  0.00    +0.001 C 
ATOM      6  C   UNL     1      35.930 -22.051 -18.281  0.00  0.00    +0.000 C 
ENDROOT
BRANCH   1   7
ATOM      7  N   UNL     1      36.649 -24.580 -15.044  0.00  0.00    -0.311 N 
ATOM      8  N   UNL     1      37.403 -23.650 -11.764  0.00  0.00    +0.387 N 
ATOM      9  C   UNL     1      37.539 -25.549 -13.062  0.00  0.00    -0.003 C 
ATOM     10  C   UNL     1      37.667 -24.348 -14.015  0.00  0.00    +0.050 C 
ATOM     11  C   UNL     1      36.762 -26.597 -13.839  0.00  0.00    +0.021 C 
ATOM     12  C   UNL     1      36.826 -24.991 -11.838  0.00  0.00    -0.076 C 
ATOM     13  C   UNL     1      37.349 -23.132 -13.135  0.00  0.00    -0.057 C 
ATOM     14  C   UNL     1      35.874 -25.790 -14.780  0.00  0.00    +0.091 C 
ATOM     15  C   UNL     1      36.704 -22.794 -10.818  0.00  0.00    -0.101 C 
ATOM     16  H   UNL     1      38.362 -23.675 -11.413  0.00  0.00    -0.080 HD
ENDBRANCH   1   7
BRANCH   6  17
ATOM     17  C   UNL     1      35.679 -21.174 -19.405  0.00  0.00    +0.000 C 
ATOM     18  C   UNL     1      34.388 -21.052 -19.919  0.00  0.00    +0.001 C 
ATOM     19  C   UNL     1      36.728 -20.451 -19.973  0.00  0.00    +0.001 C 
ATOM     20  C   UNL     1      34.146 -20.207 -21.002  0.00  0.00    +0.017 C 
ATOM     21  C   UNL     1      36.486 -19.606 -21.057  0.00  0.00    +0.017 C 
ATOM     22  C   UNL     1      35.194 -19.484 -21.570  0.00  0.00    +0.077 C 
BRANCH  22  24
ATOM     23  O   UNL     1      35.469 -16.526 -21.726  0.00  0.00    -0.268 OA
ATOM     24  N   UNL     1      34.943 -18.609 -22.692  0.00  0.00    -0.155 N 
ATOM     25  N   UNL     1      34.562 -19.280 -23.830  0.00  0.00    -0.170 NA
ATOM     26  C   UNL     1      35.075 -17.216 -22.665  0.00  0.00    +0.272 C 
ATOM     27  C   UNL     1      34.719 -16.489 -23.910  0.00  0.00    +0.062 C 
ATOM     28  C   UNL     1      34.288 -18.592 -24.884  0.00  0.00    +0.118 C 
ATOM     29  C   UNL     1      34.335 -17.139 -25.003  0.00  0.00    +0.027 C 
ENDBRANCH  22  24
ENDBRANCH   6  17
TORSDOF 3
ENDMDL
MODEL 4
REMARK VINA RESULT:      -9.9      7.895     14.873
REMARK  Name = 24743471
REMARK  3 active torsions:
REMARK  status: ('A' for Active; 'I' for Inactive)
REMARK    1  A    between atoms: C_1  and  N_7
REMARK    2  A    between atoms: C_6  and  C_17
REMARK    3  A    between atoms: C_22  and  N_24
REMARK                            x       y       z     vdW  Elec       q    Type
REMARK                         _______ _______ _______ _____ _____    ______ ____
ROOT
ATOM      1  C   UNL     1      32.789  -8.950 -23.178  0.00  0.00    +0.048 C 
ATOM      2  C   UNL     1      33.843  -9.366 -23.991  0.00  0.00    +0.015 C 
ATOM      3  C   UNL     1      32.010  -9.894 -22.509  0.00  0.00    +0.015 C 
ATOM      4  C   UNL     1      34.119 -10.726 -24.135  0.00  0.00    +0.001 C 
ATOM      5  C   UNL     1      32.286 -11.254 -22.652  0.00  0.00    +0.001 C 
ATOM      6  C   UNL     1      33.340 -11.669 -23.466  0.00  0.00    +0.000 C 
ENDROOT
BRANCH   1   7
ATOM      7  N   UNL     1      32.516  -7.604 -23.034  0.00  0.00    -0.311 N 
ATOM      8  N   UNL     1      33.667  -4.991 -25.043  0.00  0.00    +0.387 N 
ATOM      9  C   UNL     1      32.709  -5.235 -22.962  0.00  0.00    -0.003 C 
ATOM     10  C   UNL     1      33.490  -6.529 -23.248  0.00  0.00    +0.050 C 
ATOM     11  C   UNL     1      31.477  -5.670 -22.189  0.00  0.00    +0.021 C 
ATOM     12  C   UNL     1      32.435  -4.642 -24.337  0.00  0.00    -0.076 C 
ATOM     13  C   UNL     1      33.911  -6.399 -24.717  0.00  0.00    -0.057 C 
ATOM     14  C   UNL     1      31.194  -7.082 -22.692  0.00  0.00    +0.091 C 
ATOM     15  C   UNL     1      33.571  -4.760 -26.477  0.00  0.00    -0.101 C 
ATOM     16  H   UNL     1      34.446  -4.399 -24.750  0.00  0.00    -0.080 HD
ENDBRANCH   1   7
BRANCH   6  17
ATOM     17  C   UNL     1      33.626 -13.080 -23.614  0.00  0.00    +0.000 C 
ATOM     18  C   UNL     1      34.305 -13.764 -22.605  0.00  0.00    +0.001 C 
ATOM     19  C   UNL     1      33.223 -13.756 -24.766  0.00  0.00    +0.001 C 
ATOM     20  C   UNL     1      34.580 -15.124 -22.748  0.00  0.00    +0.017 C 
ATOM     21  C   UNL     1      33.498 -15.116 -24.909  0.00  0.00    +0.017 C 
ATOM     22  C   UNL     1      34.177 -15.800 -23.899  0.00  0.00    +0.077 C 
BRANCH  22  24
ATOM     23  O   UNL     1      35.652 -17.608 -22.054  0.00  0.00    -0.268 OA
ATOM     24  N   UNL     1      34.462 -17.208 -24.047  0.00  0.00    -0.155 N 
ATOM     25  N   UNL     1      33.930 -17.753 -25.193  0.00  0.00    -0.170 NA
ATOM     26  C   UNL     1      35.191 -17.977 -23.133  0.00  0.00    +0.272 C 
ATOM     27  C   UNL     1      35.420 -19.400 -23.493  0.00  0.00    +0.062 C 
ATOM     28  C   UNL     1      34.148 -19.000 -25.436  0.00  0.00    +0.118 C 
ATOM     29  C   UNL     1      34.920 -19.919 -24.608  0.00  0.00    +0.027 C 
ENDBRANCH  22  24
ENDBRANCH   6  17
TORSDOF 3
ENDMDL
MODEL 5
REMARK VINA RESULT:      -9.7      6.875     11.764
REMARK  Name = 24743471
REMARK  3 active torsions:
REMARK  status: ('A' for Active; 'I' for Inactive)
REMARK    1  A    between atoms: C_1  and  N_7
REMARK    2  A    between atoms: C_6  and  C_17
REMARK    3  A    between atoms: C_22  and  N_24
REMARK                            x       y       z     vdW  Elec       q    Type
REMARK                         _______ _______ _______ _____ _____    ______ ____
ROOT
ATOM      1  C   UNL     1      34.101 -15.808 -24.157  0.00  0.00    +0.048 C 
ATOM      2  C   UNL     1      34.538 -15.194 -22.984  0.00  0.00    +0.015 C 
ATOM      3  C   UNL     1      33.404 -15.068 -25.114  0.00  0.00    +0.015 C 
ATOM      4  C   UNL     1      34.277 -13.841 -22.766  0.00  0.00    +0.001 C 
ATOM      5  C   UNL     1      33.145 -13.715 -24.895  0.00  0.00    +0.001 C 
ATOM      6  C   UNL     1      33.581 -13.102 -23.721  0.00  0.00    +0.000 C 
ENDROOT
BRANCH   1   7
ATOM      7  N   UNL     1      34.358 -17.147 -24.375  0.00  0.00    -0.311 N 
ATOM      8  N   UNL     1      35.299 -19.528 -22.001  0.00  0.00    +0.387 N 
ATOM      9  C   UNL     1      35.305 -19.328 -24.296  0.00  0.00    -0.003 C 
ATOM     10  C   UNL     1      35.431 -17.905 -23.724  0.00  0.00    +0.050 C 
ATOM     11  C   UNL     1      34.455 -19.185 -25.547  0.00  0.00    +0.021 C 
ATOM     12  C   UNL     1      34.671 -20.137 -23.172  0.00  0.00    -0.076 C 
ATOM     13  C   UNL     1      35.199 -18.081 -22.218  0.00  0.00    -0.057 C 
ATOM     14  C   UNL     1      33.553 -17.990 -25.257  0.00  0.00    +0.091 C 
ATOM     15  C   UNL     1      34.676 -19.947 -20.754  0.00  0.00    -0.101 C 
ATOM     16  H   UNL     1      36.271 -19.824 -21.903  0.00  0.00    -0.080 HD
ENDBRANCH   1   7
BRANCH   6  17
ATOM     17  C   UNL     1      33.311 -11.698 -23.496  0.00  0.00    +0.000 C 
ATOM     18  C   UNL     1      32.243 -11.316 -22.684  0.00  0.00    +0.001 C 
ATOM     19  C   UNL     1      34.118 -10.728 -24.090  0.00  0.00    +0.001 C 
ATOM     20  C   UNL     1      31.982  -9.963 -22.466  0.00  0.00    +0.017 C 
ATOM     21  C   UNL     1      33.857  -9.375 -23.872  0.00  0.00    +0.017 C 
ATOM     22  C   UNL     1      32.789  -8.993 -23.060  0.00  0.00    +0.077 C 
BRANCH  22  24
ATOM     23  O   UNL     1      32.953  -7.447 -20.524  0.00  0.00    -0.268 OA
ATOM     24  N   UNL     1      32.519  -7.593 -22.835  0.00  0.00    -0.155 N 
ATOM     25  N   UNL     1      32.177  -6.913 -23.981  0.00  0.00    -0.170 NA
ATOM     26  C   UNL     1      32.597  -6.952 -21.593  0.00  0.00    +0.272 C 
ATOM     27  C   UNL     1      32.230  -5.514 -21.560  0.00  0.00    +0.062 C 
ATOM     28  C   UNL     1      31.891  -5.660 -23.888  0.00  0.00    +0.118 C 
ATOM     29  C   UNL     1      31.884  -4.865 -22.666  0.00  0.00    +0.027 C 
ENDBRANCH  22  24
ENDBRANCH   6  17
TORSDOF 3
ENDMDL
MODEL 6
REMARK VINA RESULT:      -9.5      9.706     16.816
REMARK  Name = 24743471
REMARK  3 active torsions:
REMARK  status: ('A' for Active; 'I' for Inactive)
REMARK    1  A    between atoms: C_1  and  N_7
REMARK    2  A    between atoms: C_6  and  C_17
REMARK    3  A    between atoms: C_22  and  N_24
REMARK                            x       y       z     vdW  Elec       q    Type
REMARK                         _______ _______ _______ _____ _____    ______ ____
ROOT
ATOM      1  C   UNL     1      32.031  -6.599 -23.322  0.00  0.00    +0.048 C 
ATOM      2  C   UNL     1      31.042  -7.581 -23.263  0.00  0.00    +0.015 C 
ATOM      3  C   UNL     1      33.368  -6.966 -23.475  0.00  0.00    +0.015 C 
ATOM      4  C   UNL     1      31.390  -8.929 -23.356  0.00  0.00    +0.001 C 
ATOM      5  C   UNL     1      33.716  -8.313 -23.570  0.00  0.00    +0.001 C 
ATOM      6  C   UNL     1      32.726  -9.294 -23.510  0.00  0.00    +0.000 C 
ENDROOT
BRANCH   1   7
ATOM      7  N   UNL     1      31.688  -5.265 -23.230  0.00  0.00    -0.311 N 
ATOM      8  N   UNL     1      32.152  -2.796 -25.656  0.00  0.00    +0.387 N 
ATOM      9  C   UNL     1      31.700  -2.892 -23.399  0.00  0.00    -0.003 C 
ATOM     10  C   UNL     1      32.500  -4.159 -23.747  0.00  0.00    +0.050 C 
ATOM     11  C   UNL     1      30.707  -3.324 -22.333  0.00  0.00    +0.021 C 
ATOM     12  C   UNL     1      31.082  -2.454 -24.720  0.00  0.00    -0.076 C 
ATOM     13  C   UNL     1      32.575  -4.148 -25.279  0.00  0.00    -0.057 C 
ATOM     14  C   UNL     1      30.437  -4.793 -22.641  0.00  0.00    +0.091 C 
ATOM     15  C   UNL     1      31.724  -2.713 -27.044  0.00  0.00    -0.101 C 
ATOM     16  H   UNL     1      32.926  -2.133 -25.596  0.00  0.00    -0.080 HD
ENDBRANCH   1   7
BRANCH   6  17
ATOM     17  C   UNL     1      33.087 -10.692 -23.607  0.00  0.00    +0.000 C 
ATOM     18  C   UNL     1      32.644 -11.595 -22.640  0.00  0.00    +0.001 C 
ATOM     19  C   UNL     1      33.880 -11.136 -24.666  0.00  0.00    +0.001 C 
ATOM     20  C   UNL     1      32.992 -12.943 -22.734  0.00  0.00    +0.017 C 
ATOM     21  C   UNL     1      34.228 -12.484 -24.759  0.00  0.00    +0.017 C 
ATOM     22  C   UNL     1      33.784 -13.387 -23.792  0.00  0.00    +0.077 C 
BRANCH  22  24
ATOM     23  O   UNL     1      33.180 -15.323 -25.969  0.00  0.00    -0.268 OA
ATOM     24  N   UNL     1      34.144 -14.782 -23.889  0.00  0.00    -0.155 N 
ATOM     25  N   UNL     1      34.899 -15.223 -22.827  0.00  0.00    -0.170 NA
ATOM     26  C   UNL     1      33.792 -15.629 -24.946  0.00  0.00    +0.272 C 
ATOM     27  C   UNL     1      34.216 -17.047 -24.833  0.00  0.00    +0.062 C 
ATOM     28  C   UNL     1      35.253 -16.462 -22.800  0.00  0.00    +0.118 C 
ATOM     29  C   UNL     1      34.929 -17.474 -23.798  0.00  0.00    +0.027 C 
ENDBRANCH  22  24
ENDBRANCH   6  17
TORSDOF 3
ENDMDL
MODEL 7
REMARK VINA RESULT:      -9.5      7.781     14.985
REMARK  Name = 24743471
REMARK  3 active torsions:
REMARK  status: ('A' for Active; 'I' for Inactive)
REMARK    1  A    between atoms: C_1  and  N_7
REMARK    2  A    between atoms: C_6  and  C_17
REMARK    3  A    between atoms: C_22  and  N_24
REMARK                            x       y       z     vdW  Elec       q    Type
REMARK                         _______ _______ _______ _____ _____    ______ ____
ROOT
ATOM      1  C   UNL     1      33.341  -8.784 -23.929  0.00  0.00    +0.048 C 
ATOM      2  C   UNL     1      34.480  -9.368 -24.482  0.00  0.00    +0.015 C 
ATOM      3  C   UNL     1      32.436  -9.565 -23.210  0.00  0.00    +0.015 C 
ATOM      4  C   UNL     1      34.713 -10.734 -24.318  0.00  0.00    +0.001 C 
ATOM      5  C   UNL     1      32.670 -10.931 -23.045  0.00  0.00    +0.001 C 
ATOM      6  C   UNL     1      33.809 -11.514 -23.600  0.00  0.00    +0.000 C 
ENDROOT
BRANCH   1   7
ATOM      7  N   UNL     1      33.109  -7.432 -24.089  0.00  0.00    -0.311 N 
ATOM      8  N   UNL     1      30.685  -5.502 -22.480  0.00  0.00    +0.387 N 
ATOM      9  C   UNL     1      32.054  -5.314 -24.324  0.00  0.00    -0.003 C 
ATOM     10  C   UNL     1      31.780  -6.814 -24.123  0.00  0.00    +0.050 C 
ATOM     11  C   UNL     1      33.486  -5.229 -24.822  0.00  0.00    +0.021 C 
ATOM     12  C   UNL     1      31.807  -4.694 -22.955  0.00  0.00    -0.076 C 
ATOM     13  C   UNL     1      31.060  -6.889 -22.771  0.00  0.00    -0.057 C 
ATOM     14  C   UNL     1      34.175  -6.439 -24.200  0.00  0.00    +0.091 C 
ATOM     15  C   UNL     1      30.402  -5.286 -21.069  0.00  0.00    -0.101 C 
ATOM     16  H   UNL     1      29.815  -5.244 -22.949  0.00  0.00    -0.080 HD
ENDBRANCH   1   7
BRANCH   6  17
ATOM     17  C   UNL     1      34.051 -12.931 -23.429  0.00  0.00    +0.000 C 
ATOM     18  C   UNL     1      34.459 -13.423 -22.189  0.00  0.00    +0.001 C 
ATOM     19  C   UNL     1      33.877 -13.803 -24.503  0.00  0.00    +0.001 C 
ATOM     20  C   UNL     1      34.692 -14.789 -22.024  0.00  0.00    +0.017 C 
ATOM     21  C   UNL     1      34.111 -15.168 -24.338  0.00  0.00    +0.017 C 
ATOM     22  C   UNL     1      34.518 -15.661 -23.098  0.00  0.00    +0.077 C 
BRANCH  22  24
ATOM     23  O   UNL     1      34.205 -17.860 -25.078  0.00  0.00    -0.268 OA
ATOM     24  N   UNL     1      34.760 -17.074 -22.927  0.00  0.00    -0.155 N 
ATOM     25  N   UNL     1      35.232 -17.398 -21.676  0.00  0.00    -0.170 NA
ATOM     26  C   UNL     1      34.559 -18.046 -23.914  0.00  0.00    +0.272 C 
ATOM     27  C   UNL     1      34.817 -19.455 -23.524  0.00  0.00    +0.062 C 
ATOM     28  C   UNL     1      35.456 -18.638 -21.408  0.00  0.00    +0.118 C 
ATOM     29  C   UNL     1      35.255 -19.766 -22.309  0.00  0.00    +0.027 C 
ENDBRANCH  22  24
ENDBRANCH   6  17
TORSDOF 3
ENDMDL
