MODEL 1
REMARK VINA RESULT:     -12.0      0.000      0.000
REMARK  Name = 4566
REMARK  6 active torsions:
REMARK  status: ('A' for Active; 'I' for Inactive)
REMARK    1  A    between atoms: N_4  and  C_14
REMARK    2  A    between atoms: C_6  and  O_26
REMARK    3  A    between atoms: C_15  and  S_20
REMARK    4  A    between atoms: S_20  and  N_23
REMARK    5  A    between atoms: O_26  and  C_27
REMARK    6  A    between atoms: C_27  and  C_28
REMARK                            x       y       z     vdW  Elec       q    Type
REMARK                         _______ _______ _______ _____ _____    ______ ____
ROOT
ATOM      1  N   UNL     1      32.457 -23.568 -15.839  0.00  0.00    -0.293 NA
ATOM      2  N   UNL     1      29.190 -22.649 -17.256  0.00  0.00    -0.266 NA
ATOM      3  N   UNL     1      30.576 -23.941 -14.331  0.00  0.00    -0.316 NA
ATOM      4  N   UNL     1      32.769 -24.438 -13.687  0.00  0.00    -0.238 N 
ATOM      5  N   UNL     1      28.421 -23.330 -15.278  0.00  0.00    -0.296 N 
ATOM      6  C   UNL     1      31.642 -23.100 -16.810  0.00  0.00    +0.288 C 
ATOM      7  C   UNL     1      30.288 -23.048 -16.548  0.00  0.00    +0.215 C 
ATOM      8  C   UNL     1      29.785 -23.467 -15.324  0.00  0.00    +0.196 C 
ATOM      9  C   UNL     1      31.881 -23.954 -14.675  0.00  0.00    +0.207 C 
ATOM     10  C   UNL     1      28.095 -22.837 -16.453  0.00  0.00    +0.164 C 
ATOM     11  H   UNL     1      29.185 -22.293 -18.174  0.00  0.00    +0.126 HD
ATOM     12  H   UNL     1      32.322 -24.712 -12.853  0.00  0.00    +0.166 HD
ATOM     13  H   UNL     1      27.819 -23.552 -14.530  0.00  0.00    +0.150 HD
ENDROOT
BRANCH   4  14
ATOM     14  C   UNL     1      34.165 -24.605 -13.663  0.00  0.00    +0.059 C 
ATOM     15  C   UNL     1      36.939 -24.937 -13.611  0.00  0.00    +0.122 C 
ATOM     16  C   UNL     1      34.837 -25.068 -14.795  0.00  0.00    +0.017 C 
ATOM     17  C   UNL     1      34.886 -24.309 -12.503  0.00  0.00    +0.017 C 
ATOM     18  C   UNL     1      36.222 -25.234 -14.771  0.00  0.00    +0.021 C 
ATOM     19  C   UNL     1      36.271 -24.475 -12.478  0.00  0.00    +0.021 C 
BRANCH  15  20
ATOM     20  S   UNL     1      38.672 -25.146 -13.579  0.00  0.00    +0.057 S 
ATOM     21  O   UNL     1      39.222 -24.271 -12.553  0.00  0.00    -0.153 OA
ATOM     22  O   UNL     1      38.965 -26.572 -13.547  0.00  0.00    -0.153 OA
BRANCH  20  23
ATOM     23  N   UNL     1      39.102 -24.534 -15.115  0.00  0.00    -0.203 NA
ATOM     24  H   UNL     1      39.342 -23.546 -15.032  0.00  0.00    +0.144 HD
ATOM     25  H   UNL     1      38.314 -24.638 -15.755  0.00  0.00    +0.144 HD
ENDBRANCH  20  23
ENDBRANCH  15  20
ENDBRANCH   4  14
BRANCH   6  26
ATOM     26  O   UNL     1      32.194 -22.698 -18.001  0.00  0.00    -0.453 OA
BRANCH  26  27
ATOM     27  C   UNL     1      33.533 -23.081 -18.251  0.00  0.00    +0.208 C 
BRANCH  27  28
ATOM     28  C   UNL     1      34.028 -22.332 -19.487  0.00  0.00    +0.044 C 
ATOM     29  C   UNL     1      33.069 -21.190 -19.850  0.00  0.00    +0.004 C 
ATOM     30  C   UNL     1      35.451 -21.801 -19.266  0.00  0.00    +0.004 C 
ATOM     31  C   UNL     1      33.569 -20.392 -21.052  0.00  0.00    +0.000 C 
ATOM     32  C   UNL     1      35.947 -21.003 -20.470  0.00  0.00    +0.000 C 
ATOM     33  C   UNL     1      34.987 -19.873 -20.831  0.00  0.00    +0.000 C 
ENDBRANCH  27  28
ENDBRANCH  26  27
ENDBRANCH   6  26
TORSDOF 6
ENDMDL
MODEL 2
REMARK VINA RESULT:     -11.8      1.316      1.837
REMARK  Name = 4566
REMARK  6 active torsions:
REMARK  status: ('A' for Active; 'I' for Inactive)
REMARK    1  A    between atoms: N_4  and  C_14
REMARK    2  A    between atoms: C_6  and  O_26
REMARK    3  A    between atoms: C_15  and  S_20
REMARK    4  A    between atoms: S_20  and  N_23
REMARK    5  A    between atoms: O_26  and  C_27
REMARK    6  A    between atoms: C_27  and  C_28
REMARK                            x       y       z     vdW  Elec       q    Type
REMARK                         _______ _______ _______ _____ _____    ______ ____
ROOT
ATOM      1  N   UNL     1      33.938 -24.010 -15.832  0.00  0.00    -0.293 NA
ATOM      2  N   UNL     1      30.530 -22.990 -16.766  0.00  0.00    -0.266 NA
ATOM      3  N   UNL     1      32.299 -24.249 -14.041  0.00  0.00    -0.316 NA
ATOM      4  N   UNL     1      34.543 -24.824 -13.722  0.00  0.00    -0.238 N 
ATOM      5  N   UNL     1      30.049 -23.571 -14.669  0.00  0.00    -0.296 N 
ATOM      6  C   UNL     1      33.001 -23.537 -16.684  0.00  0.00    +0.288 C 
ATOM      7  C   UNL     1      31.708 -23.415 -16.220  0.00  0.00    +0.215 C 
ATOM      8  C   UNL     1      31.383 -23.772 -14.918  0.00  0.00    +0.196 C 
ATOM      9  C   UNL     1      33.534 -24.332 -14.580  0.00  0.00    +0.207 C 
ATOM     10  C   UNL     1      29.566 -23.102 -15.799  0.00  0.00    +0.164 C 
ATOM     11  H   UNL     1      30.397 -22.664 -17.686  0.00  0.00    +0.126 HD
ATOM     12  H   UNL     1      34.221 -25.051 -12.819  0.00  0.00    +0.166 HD
ATOM     13  H   UNL     1      29.562 -23.742 -13.830  0.00  0.00    +0.150 HD
ENDROOT
BRANCH   4  14
ATOM     14  C   UNL     1      35.919 -25.052 -13.904  0.00  0.00    +0.059 C 
ATOM     15  C   UNL     1      38.651 -25.507 -14.271  0.00  0.00    +0.122 C 
ATOM     16  C   UNL     1      36.854 -24.364 -13.130  0.00  0.00    +0.017 C 
ATOM     17  C   UNL     1      36.356 -25.970 -14.865  0.00  0.00    +0.017 C 
ATOM     18  C   UNL     1      38.219 -24.590 -13.311  0.00  0.00    +0.021 C 
ATOM     19  C   UNL     1      37.720 -26.196 -15.046  0.00  0.00    +0.021 C 
BRANCH  15  20
ATOM     20  S   UNL     1      40.359 -25.790 -14.499  0.00  0.00    +0.057 S 
ATOM     21  O   UNL     1      41.073 -24.556 -14.203  0.00  0.00    -0.153 OA
ATOM     22  O   UNL     1      40.720 -27.019 -13.806  0.00  0.00    -0.153 OA
BRANCH  20  23
ATOM     23  N   UNL     1      40.420 -26.073 -16.183  0.00  0.00    -0.203 NA
ATOM     24  H   UNL     1      41.391 -26.053 -16.496  0.00  0.00    +0.144 HD
ATOM     25  H   UNL     1      39.892 -25.347 -16.669  0.00  0.00    +0.144 HD
ENDBRANCH  20  23
ENDBRANCH  15  20
ENDBRANCH   4  14
BRANCH   6  26
ATOM     26  O   UNL     1      33.378 -23.199 -17.960  0.00  0.00    -0.453 OA
BRANCH  26  27
ATOM     27  C   UNL     1      34.745 -22.902 -18.170  0.00  0.00    +0.208 C 
BRANCH  27  28
ATOM     28  C   UNL     1      34.877 -22.138 -19.487  0.00  0.00    +0.044 C 
ATOM     29  C   UNL     1      33.650 -21.248 -19.724  0.00  0.00    +0.004 C 
ATOM     30  C   UNL     1      36.167 -21.306 -19.503  0.00  0.00    +0.004 C 
ATOM     31  C   UNL     1      33.783 -20.433 -21.008  0.00  0.00    +0.000 C 
ATOM     32  C   UNL     1      36.296 -20.491 -20.789  0.00  0.00    +0.000 C 
ATOM     33  C   UNL     1      35.070 -19.614 -21.024  0.00  0.00    +0.000 C 
ENDBRANCH  27  28
ENDBRANCH  26  27
ENDBRANCH   6  26
TORSDOF 6
ENDMDL
MODEL 3
REMARK VINA RESULT:     -11.5      2.943      6.785
REMARK  Name = 4566
REMARK  6 active torsions:
REMARK  status: ('A' for Active; 'I' for Inactive)
REMARK    1  A    between atoms: N_4  and  C_14
REMARK    2  A    between atoms: C_6  and  O_26
REMARK    3  A    between atoms: C_15  and  S_20
REMARK    4  A    between atoms: S_20  and  N_23
REMARK    5  A    between atoms: O_26  and  C_27
REMARK    6  A    between atoms: C_27  and  C_28
REMARK                            x       y       z     vdW  Elec       q    Type
REMARK                         _______ _______ _______ _____ _____    ______ ____
ROOT
ATOM      1  N   UNL     1      34.647 -24.180 -14.571  0.00  0.00    -0.293 NA
ATOM      2  N   UNL     1      38.186 -24.445 -13.606  0.00  0.00    -0.266 NA
ATOM      3  N   UNL     1      35.002 -24.638 -12.202  0.00  0.00    -0.316 NA
ATOM      4  N   UNL     1      32.850 -24.420 -13.090  0.00  0.00    -0.238 N 
ATOM      5  N   UNL     1      37.345 -24.812 -11.574  0.00  0.00    -0.296 N 
ATOM      6  C   UNL     1      35.977 -24.165 -14.812  0.00  0.00    +0.288 C 
ATOM      7  C   UNL     1      36.829 -24.387 -13.750  0.00  0.00    +0.215 C 
ATOM      8  C   UNL     1      36.329 -24.617 -12.475  0.00  0.00    +0.196 C 
ATOM      9  C   UNL     1      34.248 -24.413 -13.298  0.00  0.00    +0.207 C 
ATOM     10  C   UNL     1      38.447 -24.703 -12.285  0.00  0.00    +0.164 C 
ATOM     11  H   UNL     1      38.854 -24.325 -14.319  0.00  0.00    +0.126 HD
ATOM     12  H   UNL     1      32.589 -24.590 -12.156  0.00  0.00    +0.166 HD
ATOM     13  H   UNL     1      37.267 -24.993 -10.610  0.00  0.00    +0.150 HD
ENDROOT
BRANCH   4  14
ATOM     14  C   UNL     1      31.758 -24.231 -13.956  0.00  0.00    +0.059 C 
ATOM     15  C   UNL     1      29.588 -23.856 -15.675  0.00  0.00    +0.122 C 
ATOM     16  C   UNL     1      31.532 -22.982 -14.539  0.00  0.00    +0.017 C 
ATOM     17  C   UNL     1      30.893 -25.292 -14.237  0.00  0.00    +0.017 C 
ATOM     18  C   UNL     1      30.449 -22.794 -15.397  0.00  0.00    +0.021 C 
ATOM     19  C   UNL     1      29.810 -25.104 -15.095  0.00  0.00    +0.021 C 
BRANCH  15  20
ATOM     20  S   UNL     1      28.231 -23.621 -16.749  0.00  0.00    +0.057 S 
ATOM     21  O   UNL     1      28.545 -22.523 -17.654  0.00  0.00    -0.153 OA
ATOM     22  O   UNL     1      27.841 -24.915 -17.291  0.00  0.00    -0.153 OA
BRANCH  20  23
ATOM     23  N   UNL     1      27.031 -23.104 -15.649  0.00  0.00    -0.203 NA
ATOM     24  H   UNL     1      26.197 -22.820 -16.164  0.00  0.00    +0.144 HD
ATOM     25  H   UNL     1      27.382 -22.312 -15.110  0.00  0.00    +0.144 HD
ENDBRANCH  20  23
ENDBRANCH  15  20
ENDBRANCH   4  14
BRANCH   6  26
ATOM     26  O   UNL     1      36.416 -23.933 -16.092  0.00  0.00    -0.453 OA
BRANCH  26  27
ATOM     27  C   UNL     1      36.389 -22.594 -16.549  0.00  0.00    +0.208 C 
BRANCH  27  28
ATOM     28  C   UNL     1      35.822 -22.577 -17.967  0.00  0.00    +0.044 C 
ATOM     29  C   UNL     1      34.296 -22.415 -17.940  0.00  0.00    +0.004 C 
ATOM     30  C   UNL     1      36.475 -21.465 -18.799  0.00  0.00    +0.004 C 
ATOM     31  C   UNL     1      33.711 -22.342 -19.348  0.00  0.00    +0.000 C 
ATOM     32  C   UNL     1      35.886 -21.394 -20.206  0.00  0.00    +0.000 C 
ATOM     33  C   UNL     1      34.368 -21.241 -20.174  0.00  0.00    +0.000 C 
ENDBRANCH  27  28
ENDBRANCH  26  27
ENDBRANCH   6  26
TORSDOF 6
ENDMDL
MODEL 4
REMARK VINA RESULT:     -11.0      3.026      6.743
REMARK  Name = 4566
REMARK  6 active torsions:
REMARK  status: ('A' for Active; 'I' for Inactive)
REMARK    1  A    between atoms: N_4  and  C_14
REMARK    2  A    between atoms: C_6  and  O_26
REMARK    3  A    between atoms: C_15  and  S_20
REMARK    4  A    between atoms: S_20  and  N_23
REMARK    5  A    between atoms: O_26  and  C_27
REMARK    6  A    between atoms: C_27  and  C_28
REMARK                            x       y       z     vdW  Elec       q    Type
REMARK                         _______ _______ _______ _____ _____    ______ ____
ROOT
ATOM      1  N   UNL     1      34.590 -23.835 -15.675  0.00  0.00    -0.293 NA
ATOM      2  N   UNL     1      38.258 -23.882 -15.415  0.00  0.00    -0.266 NA
ATOM      3  N   UNL     1      35.435 -24.984 -13.696  0.00  0.00    -0.316 NA
ATOM      4  N   UNL     1      33.140 -24.804 -14.113  0.00  0.00    -0.238 N 
ATOM      5  N   UNL     1      37.861 -25.010 -13.535  0.00  0.00    -0.296 N 
ATOM      6  C   UNL     1      35.842 -23.548 -16.096  0.00  0.00    +0.288 C 
ATOM      7  C   UNL     1      36.899 -23.978 -15.321  0.00  0.00    +0.215 C 
ATOM      8  C   UNL     1      36.677 -24.682 -14.144  0.00  0.00    +0.196 C 
ATOM      9  C   UNL     1      34.466 -24.526 -14.517  0.00  0.00    +0.207 C 
ATOM     10  C   UNL     1      38.791 -24.515 -14.323  0.00  0.00    +0.164 C 
ATOM     11  H   UNL     1      38.763 -23.439 -16.136  0.00  0.00    +0.126 HD
ATOM     12  H   UNL     1      33.080 -25.307 -13.268  0.00  0.00    +0.166 HD
ATOM     13  H   UNL     1      37.986 -25.505 -12.693  0.00  0.00    +0.150 HD
ENDROOT
BRANCH   4  14
ATOM     14  C   UNL     1      31.890 -24.504 -14.682  0.00  0.00    +0.059 C 
ATOM     15  C   UNL     1      29.403 -23.908 -15.809  0.00  0.00    +0.122 C 
ATOM     16  C   UNL     1      31.766 -23.451 -15.589  0.00  0.00    +0.017 C 
ATOM     17  C   UNL     1      30.764 -25.259 -14.339  0.00  0.00    +0.017 C 
ATOM     18  C   UNL     1      30.525 -23.152 -16.153  0.00  0.00    +0.021 C 
ATOM     19  C   UNL     1      29.523 -24.961 -14.903  0.00  0.00    +0.021 C 
BRANCH  15  20
ATOM     20  S   UNL     1      27.850 -23.534 -16.513  0.00  0.00    +0.057 S 
ATOM     21  O   UNL     1      27.504 -24.593 -17.452  0.00  0.00    -0.153 OA
ATOM     22  O   UNL     1      26.928 -23.189 -15.441  0.00  0.00    -0.153 OA
BRANCH  20  23
ATOM     23  N   UNL     1      28.223 -22.118 -17.392  0.00  0.00    -0.203 NA
ATOM     24  H   UNL     1      28.037 -22.273 -18.383  0.00  0.00    +0.144 HD
ATOM     25  H   UNL     1      29.209 -21.888 -17.264  0.00  0.00    +0.144 HD
ENDBRANCH  20  23
ENDBRANCH  15  20
ENDBRANCH   4  14
BRANCH   6  26
ATOM     26  O   UNL     1      36.003 -22.850 -17.267  0.00  0.00    -0.453 OA
BRANCH  26  27
ATOM     27  C   UNL     1      34.987 -22.986 -18.243  0.00  0.00    +0.208 C 
BRANCH  27  28
ATOM     28  C   UNL     1      34.866 -21.667 -19.003  0.00  0.00    +0.044 C 
ATOM     29  C   UNL     1      36.098 -21.434 -19.887  0.00  0.00    +0.004 C 
ATOM     30  C   UNL     1      33.579 -21.640 -19.840  0.00  0.00    +0.004 C 
ATOM     31  C   UNL     1      35.977 -20.147 -20.698  0.00  0.00    +0.000 C 
ATOM     32  C   UNL     1      33.462 -20.351 -20.651  0.00  0.00    +0.000 C 
ATOM     33  C   UNL     1      34.693 -20.121 -21.523  0.00  0.00    +0.000 C 
ENDBRANCH  27  28
ENDBRANCH  26  27
ENDBRANCH   6  26
TORSDOF 6
ENDMDL
MODEL 5
REMARK VINA RESULT:     -10.9      2.693      5.493
REMARK  Name = 4566
REMARK  6 active torsions:
REMARK  status: ('A' for Active; 'I' for Inactive)
REMARK    1  A    between atoms: N_4  and  C_14
REMARK    2  A    between atoms: C_6  and  O_26
REMARK    3  A    between atoms: C_15  and  S_20
REMARK    4  A    between atoms: S_20  and  N_23
REMARK    5  A    between atoms: O_26  and  C_27
REMARK    6  A    between atoms: C_27  and  C_28
REMARK                            x       y       z     vdW  Elec       q    Type
REMARK                         _______ _______ _______ _____ _____    ______ ____
ROOT
ATOM      1  N   UNL     1      35.006 -22.433 -17.772  0.00  0.00    -0.293 NA
ATOM      2  N   UNL     1      33.736 -20.877 -20.854  0.00  0.00    -0.266 NA
ATOM      3  N   UNL     1      36.698 -21.228 -19.051  0.00  0.00    -0.316 NA
ATOM      4  N   UNL     1      37.229 -22.313 -17.049  0.00  0.00    -0.238 N 
ATOM      5  N   UNL     1      35.848 -20.204 -21.087  0.00  0.00    -0.296 N 
ATOM      6  C   UNL     1      34.045 -22.126 -18.673  0.00  0.00    +0.288 C 
ATOM      7  C   UNL     1      34.404 -21.369 -19.769  0.00  0.00    +0.215 C 
ATOM      8  C   UNL     1      35.713 -20.937 -19.936  0.00  0.00    +0.196 C 
ATOM      9  C   UNL     1      36.256 -21.971 -18.015  0.00  0.00    +0.207 C 
ATOM     10  C   UNL     1      34.643 -20.187 -21.615  0.00  0.00    +0.164 C 
ATOM     11  H   UNL     1      32.779 -20.996 -21.053  0.00  0.00    +0.126 HD
ATOM     12  H   UNL     1      38.128 -21.963 -17.250  0.00  0.00    +0.166 HD
ATOM     13  H   UNL     1      36.666 -19.783 -21.439  0.00  0.00    +0.150 HD
ENDROOT
BRANCH   4  14
ATOM     14  C   UNL     1      37.166 -23.055 -15.856  0.00  0.00    +0.059 C 
ATOM     15  C   UNL     1      37.038 -24.531 -13.487  0.00  0.00    +0.122 C 
ATOM     16  C   UNL     1      38.162 -23.987 -15.555  0.00  0.00    +0.017 C 
ATOM     17  C   UNL     1      36.104 -22.865 -14.967  0.00  0.00    +0.017 C 
ATOM     18  C   UNL     1      38.099 -24.724 -14.372  0.00  0.00    +0.021 C 
ATOM     19  C   UNL     1      36.041 -23.602 -13.784  0.00  0.00    +0.021 C 
BRANCH  15  20
ATOM     20  S   UNL     1      36.958 -25.454 -12.007  0.00  0.00    +0.057 S 
ATOM     21  O   UNL     1      37.157 -26.859 -12.330  0.00  0.00    -0.153 OA
ATOM     22  O   UNL     1      37.811 -24.811 -11.016  0.00  0.00    -0.153 OA
BRANCH  20  23
ATOM     23  N   UNL     1      35.326 -25.215 -11.561  0.00  0.00    -0.203 NA
ATOM     24  H   UNL     1      34.956 -26.073 -11.152  0.00  0.00    +0.144 HD
ATOM     25  H   UNL     1      34.780 -24.971 -12.388  0.00  0.00    +0.144 HD
ENDBRANCH  20  23
ENDBRANCH  15  20
ENDBRANCH   4  14
BRANCH   6  26
ATOM     26  O   UNL     1      32.768 -22.580 -18.458  0.00  0.00    -0.453 OA
BRANCH  26  27
ATOM     27  C   UNL     1      32.616 -23.692 -17.596  0.00  0.00    +0.208 C 
BRANCH  27  28
ATOM     28  C   UNL     1      31.964 -23.215 -16.299  0.00  0.00    +0.044 C 
ATOM     29  C   UNL     1      30.467 -23.549 -16.289  0.00  0.00    +0.004 C 
ATOM     30  C   UNL     1      32.670 -23.827 -15.081  0.00  0.00    +0.004 C 
ATOM     31  C   UNL     1      29.804 -23.129 -14.979  0.00  0.00    +0.000 C 
ATOM     32  C   UNL     1      32.002 -23.406 -13.774  0.00  0.00    +0.000 C 
ATOM     33  C   UNL     1      30.512 -23.733 -13.771  0.00  0.00    +0.000 C 
ENDBRANCH  27  28
ENDBRANCH  26  27
ENDBRANCH   6  26
TORSDOF 6
ENDMDL
MODEL 6
REMARK VINA RESULT:     -10.5      3.547      7.285
REMARK  Name = 4566
REMARK  6 active torsions:
REMARK  status: ('A' for Active; 'I' for Inactive)
REMARK    1  A    between atoms: N_4  and  C_14
REMARK    2  A    between atoms: C_6  and  O_26
REMARK    3  A    between atoms: C_15  and  S_20
REMARK    4  A    between atoms: S_20  and  N_23
REMARK    5  A    between atoms: O_26  and  C_27
REMARK    6  A    between atoms: C_27  and  C_28
REMARK                            x       y       z     vdW  Elec       q    Type
REMARK                         _______ _______ _______ _____ _____    ______ ____
ROOT
ATOM      1  N   UNL     1      33.898 -22.870 -16.539  0.00  0.00    -0.293 NA
ATOM      2  N   UNL     1      32.978 -24.803 -13.548  0.00  0.00    -0.266 NA
ATOM      3  N   UNL     1      31.681 -23.882 -16.648  0.00  0.00    -0.316 NA
ATOM      4  N   UNL     1      32.522 -22.599 -18.414  0.00  0.00    -0.238 N 
ATOM      5  N   UNL     1      31.083 -25.158 -14.666  0.00  0.00    -0.296 N 
ATOM      6  C   UNL     1      34.116 -23.379 -15.306  0.00  0.00    +0.288 C 
ATOM      7  C   UNL     1      33.119 -24.143 -14.736  0.00  0.00    +0.215 C 
ATOM      8  C   UNL     1      31.930 -24.378 -15.412  0.00  0.00    +0.196 C 
ATOM      9  C   UNL     1      32.710 -23.150 -17.126  0.00  0.00    +0.207 C 
ATOM     10  C   UNL     1      31.742 -25.396 -13.553  0.00  0.00    +0.164 C 
ATOM     11  H   UNL     1      33.641 -24.845 -12.822  0.00  0.00    +0.126 HD
ATOM     12  H   UNL     1      31.649 -22.817 -18.815  0.00  0.00    +0.166 HD
ATOM     13  H   UNL     1      30.182 -25.470 -14.911  0.00  0.00    +0.150 HD
ENDROOT
BRANCH   4  14
ATOM     14  C   UNL     1      33.337 -21.799 -19.234  0.00  0.00    +0.059 C 
ATOM     15  C   UNL     1      34.955 -20.206 -20.863  0.00  0.00    +0.122 C 
ATOM     16  C   UNL     1      34.726 -21.929 -19.185  0.00  0.00    +0.017 C 
ATOM     17  C   UNL     1      32.759 -20.867 -20.101  0.00  0.00    +0.017 C 
ATOM     18  C   UNL     1      35.535 -21.135 -19.998  0.00  0.00    +0.021 C 
ATOM     19  C   UNL     1      33.568 -20.073 -20.914  0.00  0.00    +0.021 C 
BRANCH  15  20
ATOM     20  S   UNL     1      35.966 -19.211 -21.880  0.00  0.00    +0.057 S 
ATOM     21  O   UNL     1      37.351 -19.386 -21.464  0.00  0.00    -0.153 OA
ATOM     22  O   UNL     1      35.594 -19.442 -23.269  0.00  0.00    -0.153 OA
BRANCH  20  23
ATOM     23  N   UNL     1      35.447 -17.648 -21.427  0.00  0.00    -0.203 NA
ATOM     24  H   UNL     1      35.974 -16.949 -21.950  0.00  0.00    +0.144 HD
ATOM     25  H   UNL     1      35.605 -17.514 -20.428  0.00  0.00    +0.144 HD
ENDBRANCH  20  23
ENDBRANCH  15  20
ENDBRANCH   4  14
BRANCH   6  26
ATOM     26  O   UNL     1      35.311 -23.116 -14.683  0.00  0.00    -0.453 OA
BRANCH  26  27
ATOM     27  C   UNL     1      36.492 -23.413 -15.404  0.00  0.00    +0.208 C 
BRANCH  27  28
ATOM     28  C   UNL     1      37.309 -24.423 -14.600  0.00  0.00    +0.044 C 
ATOM     29  C   UNL     1      37.335 -24.039 -13.114  0.00  0.00    +0.004 C 
ATOM     30  C   UNL     1      36.754 -25.842 -14.788  0.00  0.00    +0.004 C 
ATOM     31  C   UNL     1      38.102 -25.063 -12.280  0.00  0.00    +0.000 C 
ATOM     32  C   UNL     1      37.521 -26.863 -13.951  0.00  0.00    +0.000 C 
ATOM     33  C   UNL     1      37.552 -26.473 -12.476  0.00  0.00    +0.000 C 
ENDBRANCH  27  28
ENDBRANCH  26  27
ENDBRANCH   6  26
TORSDOF 6
ENDMDL
MODEL 7
REMARK VINA RESULT:      -9.4      3.668      7.773
REMARK  Name = 4566
REMARK  6 active torsions:
REMARK  status: ('A' for Active; 'I' for Inactive)
REMARK    1  A    between atoms: N_4  and  C_14
REMARK    2  A    between atoms: C_6  and  O_26
REMARK    3  A    between atoms: C_15  and  S_20
REMARK    4  A    between atoms: S_20  and  N_23
REMARK    5  A    between atoms: O_26  and  C_27
REMARK    6  A    between atoms: C_27  and  C_28
REMARK                            x       y       z     vdW  Elec       q    Type
REMARK                         _______ _______ _______ _____ _____    ______ ____
ROOT
ATOM      1  N   UNL     1      35.195 -23.136 -16.539  0.00  0.00    -0.293 NA
ATOM      2  N   UNL     1      35.286 -25.101 -13.432  0.00  0.00    -0.266 NA
ATOM      3  N   UNL     1      37.435 -23.457 -15.627  0.00  0.00    -0.316 NA
ATOM      4  N   UNL     1      37.084 -22.245 -17.597  0.00  0.00    -0.238 N 
ATOM      5  N   UNL     1      37.483 -24.757 -13.573  0.00  0.00    -0.296 N 
ATOM      6  C   UNL     1      34.637 -23.842 -15.531  0.00  0.00    +0.288 C 
ATOM      7  C   UNL     1      35.473 -24.360 -14.564  0.00  0.00    +0.215 C 
ATOM      8  C   UNL     1      36.845 -24.160 -14.630  0.00  0.00    +0.196 C 
ATOM      9  C   UNL     1      36.541 -22.989 -16.525  0.00  0.00    +0.207 C 
ATOM     10  C   UNL     1      36.519 -25.314 -12.872  0.00  0.00    +0.164 C 
ATOM     11  H   UNL     1      34.424 -25.424 -13.082  0.00  0.00    +0.126 HD
ATOM     12  H   UNL     1      38.065 -22.156 -17.561  0.00  0.00    +0.166 HD
ATOM     13  H   UNL     1      38.449 -24.767 -13.381  0.00  0.00    +0.150 HD
ENDROOT
BRANCH   4  14
ATOM     14  C   UNL     1      36.499 -21.608 -18.705  0.00  0.00    +0.059 C 
ATOM     15  C   UNL     1      35.333 -20.341 -20.905  0.00  0.00    +0.122 C 
ATOM     16  C   UNL     1      37.233 -20.686 -19.454  0.00  0.00    +0.017 C 
ATOM     17  C   UNL     1      35.178 -21.893 -19.061  0.00  0.00    +0.017 C 
ATOM     18  C   UNL     1      36.652 -20.053 -20.553  0.00  0.00    +0.021 C 
ATOM     19  C   UNL     1      34.596 -21.260 -20.160  0.00  0.00    +0.021 C 
BRANCH  15  20
ATOM     20  S   UNL     1      34.605 -19.548 -22.281  0.00  0.00    +0.057 S 
ATOM     21  O   UNL     1      35.265 -20.024 -23.488  0.00  0.00    -0.153 OA
ATOM     22  O   UNL     1      33.157 -19.650 -22.159  0.00  0.00    -0.153 OA
BRANCH  20  23
ATOM     23  N   UNL     1      35.064 -17.926 -22.002  0.00  0.00    -0.203 NA
ATOM     24  H   UNL     1      36.081 -17.850 -22.035  0.00  0.00    +0.144 HD
ATOM     25  H   UNL     1      34.731 -17.631 -21.084  0.00  0.00    +0.144 HD
ENDBRANCH  20  23
ENDBRANCH  15  20
ENDBRANCH   4  14
BRANCH   6  26
ATOM     26  O   UNL     1      33.274 -24.009 -15.515  0.00  0.00    -0.453 OA
BRANCH  26  27
ATOM     27  C   UNL     1      32.545 -23.255 -14.565  0.00  0.00    +0.208 C 
BRANCH  27  28
ATOM     28  C   UNL     1      31.054 -23.448 -14.835  0.00  0.00    +0.044 C 
ATOM     29  C   UNL     1      30.705 -23.042 -16.273  0.00  0.00    +0.004 C 
ATOM     30  C   UNL     1      30.637 -24.900 -14.561  0.00  0.00    +0.004 C 
ATOM     31  C   UNL     1      29.229 -23.277 -16.584  0.00  0.00    +0.000 C 
ATOM     32  C   UNL     1      29.161 -25.131 -14.875  0.00  0.00    +0.000 C 
ATOM     33  C   UNL     1      28.817 -24.718 -16.303  0.00  0.00    +0.000 C 
ENDBRANCH  27  28
ENDBRANCH  26  27
ENDBRANCH   6  26
TORSDOF 6
ENDMDL
MODEL 8
REMARK VINA RESULT:      -9.2     14.852     18.535
REMARK  Name = 4566
REMARK  6 active torsions:
REMARK  status: ('A' for Active; 'I' for Inactive)
REMARK    1  A    between atoms: N_4  and  C_14
REMARK    2  A    between atoms: C_6  and  O_26
REMARK    3  A    between atoms: C_15  and  S_20
REMARK    4  A    between atoms: S_20  and  N_23
REMARK    5  A    between atoms: O_26  and  C_27
REMARK    6  A    between atoms: C_27  and  C_28
REMARK                            x       y       z     vdW  Elec       q    Type
REMARK                         _______ _______ _______ _____ _____    ______ ____
ROOT
ATOM      1  N   UNL     1      32.824  -8.182 -23.297  0.00  0.00    -0.293 NA
ATOM      2  N   UNL     1      31.897 -10.626 -20.710  0.00  0.00    -0.266 NA
ATOM      3  N   UNL     1      32.303  -7.191 -21.130  0.00  0.00    -0.316 NA
ATOM      4  N   UNL     1      32.923  -5.868 -22.956  0.00  0.00    -0.238 N 
ATOM      5  N   UNL     1      31.691  -8.816 -19.427  0.00  0.00    -0.296 N 
ATOM      6  C   UNL     1      32.590  -9.429 -22.831  0.00  0.00    +0.288 C 
ATOM      7  C   UNL     1      32.210  -9.566 -21.512  0.00  0.00    +0.215 C 
ATOM      8  C   UNL     1      32.076  -8.453 -20.693  0.00  0.00    +0.196 C 
ATOM      9  C   UNL     1      32.668  -7.154 -22.429  0.00  0.00    +0.207 C 
ATOM     10  C   UNL     1      31.593 -10.127 -19.471  0.00  0.00    +0.164 C 
ATOM     11  H   UNL     1      31.892 -11.575 -20.973  0.00  0.00    +0.126 HD
ATOM     12  H   UNL     1      32.803  -5.140 -22.303  0.00  0.00    +0.166 HD
ATOM     13  H   UNL     1      31.526  -8.225 -18.657  0.00  0.00    +0.150 HD
ENDROOT
BRANCH   4  14
ATOM     14  C   UNL     1      33.315  -5.423 -24.231  0.00  0.00    +0.059 C 
ATOM     15  C   UNL     1      34.094  -4.537 -26.764  0.00  0.00    +0.122 C 
ATOM     16  C   UNL     1      34.547  -5.812 -24.763  0.00  0.00    +0.017 C 
ATOM     17  C   UNL     1      32.474  -4.588 -24.972  0.00  0.00    +0.017 C 
ATOM     18  C   UNL     1      34.936  -5.370 -26.027  0.00  0.00    +0.021 C 
ATOM     19  C   UNL     1      32.864  -4.146 -26.237  0.00  0.00    +0.021 C 
BRANCH  15  20
ATOM     20  S   UNL     1      34.582  -3.983 -28.347  0.00  0.00    +0.057 S 
ATOM     21  O   UNL     1      35.998  -4.273 -28.519  0.00  0.00    -0.153 OA
ATOM     22  O   UNL     1      33.619  -4.471 -29.324  0.00  0.00    -0.153 OA
BRANCH  20  23
ATOM     23  N   UNL     1      34.381  -2.295 -28.177  0.00  0.00    -0.203 NA
ATOM     24  H   UNL     1      34.486  -1.846 -29.088  0.00  0.00    +0.144 HD
ATOM     25  H   UNL     1      35.086  -1.931 -27.537  0.00  0.00    +0.144 HD
ENDBRANCH  20  23
ENDBRANCH  15  20
ENDBRANCH   4  14
BRANCH   6  26
ATOM     26  O   UNL     1      32.738 -10.493 -23.686  0.00  0.00    -0.453 OA
BRANCH  26  27
ATOM     27  C   UNL     1      34.004 -10.658 -24.296  0.00  0.00    +0.208 C 
BRANCH  27  28
ATOM     28  C   UNL     1      34.156 -12.122 -24.707  0.00  0.00    +0.044 C 
ATOM     29  C   UNL     1      33.673 -13.054 -23.588  0.00  0.00    +0.004 C 
ATOM     30  C   UNL     1      33.399 -12.398 -26.014  0.00  0.00    +0.004 C 
ATOM     31  C   UNL     1      33.765 -14.522 -23.997  0.00  0.00    +0.000 C 
ATOM     32  C   UNL     1      33.492 -13.868 -26.418  0.00  0.00    +0.000 C 
ATOM     33  C   UNL     1      33.019 -14.791 -25.300  0.00  0.00    +0.000 C 
ENDBRANCH  27  28
ENDBRANCH  26  27
ENDBRANCH   6  26
TORSDOF 6
ENDMDL
MODEL 9
REMARK VINA RESULT:      -9.0      8.993     13.121
REMARK  Name = 4566
REMARK  6 active torsions:
REMARK  status: ('A' for Active; 'I' for Inactive)
REMARK    1  A    between atoms: N_4  and  C_14
REMARK    2  A    between atoms: C_6  and  O_26
REMARK    3  A    between atoms: C_15  and  S_20
REMARK    4  A    between atoms: S_20  and  N_23
REMARK    5  A    between atoms: O_26  and  C_27
REMARK    6  A    between atoms: C_27  and  C_28
REMARK                            x       y       z     vdW  Elec       q    Type
REMARK                         _______ _______ _______ _____ _____    ______ ____
ROOT
ATOM      1  N   UNL     1      34.446 -16.053 -24.027  0.00  0.00    -0.293 NA
ATOM      2  N   UNL     1      35.072 -19.667 -24.297  0.00  0.00    -0.266 NA
ATOM      3  N   UNL     1      33.246 -17.140 -25.852  0.00  0.00    -0.316 NA
ATOM      4  N   UNL     1      33.033 -14.845 -25.450  0.00  0.00    -0.238 N 
ATOM      5  N   UNL     1      33.668 -19.529 -26.022  0.00  0.00    -0.296 N 
ATOM      6  C   UNL     1      35.016 -17.219 -23.651  0.00  0.00    +0.288 C 
ATOM      7  C   UNL     1      34.706 -18.353 -24.373  0.00  0.00    +0.215 C 
ATOM      8  C   UNL     1      33.834 -18.293 -25.451  0.00  0.00    +0.196 C 
ATOM      9  C   UNL     1      33.608 -16.086 -25.090  0.00  0.00    +0.207 C 
ATOM     10  C   UNL     1      34.425 -20.332 -25.306  0.00  0.00    +0.164 C 
ATOM     11  H   UNL     1      35.688 -20.065 -23.640  0.00  0.00    +0.126 HD
ATOM     12  H   UNL     1      32.427 -14.899 -26.225  0.00  0.00    +0.166 HD
ATOM     13  H   UNL     1      33.106 -19.762 -26.796  0.00  0.00    +0.150 HD
ENDROOT
BRANCH   4  14
ATOM     14  C   UNL     1      33.155 -13.550 -24.918  0.00  0.00    +0.059 C 
ATOM     15  C   UNL     1      33.398 -10.974 -23.862  0.00  0.00    +0.122 C 
ATOM     16  C   UNL     1      32.837 -13.307 -23.580  0.00  0.00    +0.017 C 
ATOM     17  C   UNL     1      33.596 -12.498 -25.726  0.00  0.00    +0.017 C 
ATOM     18  C   UNL     1      32.958 -12.022 -23.052  0.00  0.00    +0.021 C 
ATOM     19  C   UNL     1      33.717 -11.213 -25.198  0.00  0.00    +0.021 C 
BRANCH  15  20
ATOM     20  S   UNL     1      33.550  -9.365 -23.202  0.00  0.00    +0.057 S 
ATOM     21  O   UNL     1      33.049  -9.380 -21.834  0.00  0.00    -0.153 OA
ATOM     22  O   UNL     1      34.895  -8.879 -23.474  0.00  0.00    -0.153 OA
BRANCH  20  23
ATOM     23  N   UNL     1      32.448  -8.505 -24.184  0.00  0.00    -0.203 NA
ATOM     24  H   UNL     1      31.657  -8.196 -23.618  0.00  0.00    +0.144 HD
ATOM     25  H   UNL     1      32.113  -9.113 -24.932  0.00  0.00    +0.144 HD
ENDBRANCH  20  23
ENDBRANCH  15  20
ENDBRANCH   4  14
BRANCH   6  26
ATOM     26  O   UNL     1      35.873 -17.222 -22.578  0.00  0.00    -0.453 OA
BRANCH  26  27
ATOM     27  C   UNL     1      35.342 -17.632 -21.332  0.00  0.00    +0.208 C 
BRANCH  27  28
ATOM     28  C   UNL     1      35.474 -19.151 -21.226  0.00  0.00    +0.044 C 
ATOM     29  C   UNL     1      36.684 -19.532 -20.363  0.00  0.00    +0.004 C 
ATOM     30  C   UNL     1      34.185 -19.768 -20.666  0.00  0.00    +0.004 C 
ATOM     31  C   UNL     1      36.806 -21.045 -20.199  0.00  0.00    +0.000 C 
ATOM     32  C   UNL     1      34.312 -21.282 -20.501  0.00  0.00    +0.000 C 
ATOM     33  C   UNL     1      35.521 -21.656 -19.648  0.00  0.00    +0.000 C 
ENDBRANCH  27  28
ENDBRANCH  26  27
ENDBRANCH   6  26
TORSDOF 6
ENDMDL
