MODEL 1
REMARK VINA RESULT:     -11.4      0.000      0.000
REMARK  Name = 9910098
REMARK  9 active torsions:
REMARK  status: ('A' for Active; 'I' for Inactive)
REMARK    1  A    between atoms: N_1  and  C1*_12
REMARK    2  A    between atoms: C_9  and  O_25
REMARK    3  A    between atoms: C2*_11  and  O2*_15
REMARK    4  A    between atoms: C3*_13  and  O3*_17
REMARK    5  A    between atoms: C4*_14  and  C5*_19
REMARK    6  A    between atoms: C5*_19  and  O5*_20
REMARK    7  A    between atoms: O_25  and  C_26
REMARK    8  A    between atoms: C_26  and  C_27
REMARK    9  A    between atoms: C_27  and  C_29
REMARK                            x       y       z     vdW  Elec       q    Type
REMARK                         _______ _______ _______ _____ _____    ______ ____
ROOT
ATOM      1  N   UNL     1      34.858 -23.684 -15.017  0.00  0.00    -0.236 N 
ATOM      2  N   UNL     1      32.648 -23.714 -14.712  0.00  0.00    -0.240 NA
ATOM      3  N   UNL     1      34.943 -23.057 -17.363  0.00  0.00    -0.294 NA
ATOM      4  N   UNL     1      32.703 -22.758 -18.285  0.00  0.00    -0.295 NA
ATOM      5  C   UNL     1      34.302 -23.348 -16.221  0.00  0.00    +0.223 C 
ATOM      6  C   UNL     1      33.822 -23.894 -14.145  0.00  0.00    +0.224 C 
ATOM      7  C   UNL     1      32.933 -23.372 -16.010  0.00  0.00    +0.167 C 
ATOM      8  C   UNL     1      32.124 -23.062 -17.098  0.00  0.00    +0.214 C 
ATOM      9  C   UNL     1      34.057 -22.775 -18.342  0.00  0.00    +0.313 C 
ATOM     10  N   UNL     1      30.723 -23.063 -16.975  0.00  0.00    -0.331 N 
ATOM     11  H   UNL     1      30.161 -22.842 -17.752  0.00  0.00    +0.145 HD
ATOM     12  H   UNL     1      30.306 -23.285 -16.111  0.00  0.00    +0.145 HD
ENDROOT
BRANCH   1  15
ATOM     13  O4* UNL     1      36.829 -24.949 -15.405  0.00  0.00    -0.333 OA
ATOM     14  C2* UNL     1      36.579 -23.985 -13.222  0.00  0.00    +0.187 C 
ATOM     15  C1* UNL     1      36.284 -23.806 -14.712  0.00  0.00    +0.226 C 
ATOM     16  C3* UNL     1      36.887 -25.466 -13.115  0.00  0.00    +0.171 C 
ATOM     17  C4* UNL     1      37.541 -25.757 -14.455  0.00  0.00    +0.175 C 
BRANCH  14  18
ATOM     18  O2* UNL     1      37.714 -23.195 -12.869  0.00  0.00    -0.378 OA
ATOM     19  H2* UNL     1      38.103 -22.811 -13.671  0.00  0.00    +0.211 HD
ENDBRANCH  14  18
BRANCH  16  20
ATOM     20  O3* UNL     1      37.730 -25.789 -12.030  0.00  0.00    -0.379 OA
ATOM     21  H3* UNL     1      37.217 -26.250 -11.348  0.00  0.00    +0.211 HD
ENDBRANCH  16  20
BRANCH  17  22
ATOM     22  C5* UNL     1      37.463 -27.218 -14.861  0.00  0.00    +0.169 C 
BRANCH  22  23
ATOM     23  O5* UNL     1      36.879 -27.300 -16.149  0.00  0.00    -0.379 OA
ATOM     24  H5* UNL     1      37.484 -26.921 -16.805  0.00  0.00    +0.211 HD
ENDBRANCH  22  23
ENDBRANCH  17  22
ENDBRANCH   1  15
BRANCH   9  25
ATOM     25  O   UNL     1      34.603 -22.455 -19.566  0.00  0.00    -0.399 OA
BRANCH  25  26
ATOM     26  C   UNL     1      34.321 -21.156 -20.065  0.00  0.00    +0.227 C 
BRANCH  26  27
ATOM     27  C   UNL     1      35.611 -20.493 -20.536  0.00  0.00    +0.075 C 
BRANCH  27  29
ATOM     28 CL   UNL     1      34.643 -16.446 -24.861  0.00  0.00    -0.082 Cl
ATOM     29  C   UNL     1      35.369 -19.476 -21.625  0.00  0.00    -0.018 C 
ATOM     30  C   UNL     1      35.754 -18.160 -21.421  0.00  0.00    -0.003 C 
ATOM     31  C   UNL     1      34.766 -19.876 -22.806  0.00  0.00    -0.003 C 
ATOM     32  C   UNL     1      35.529 -17.219 -22.427  0.00  0.00    +0.011 C 
ATOM     33  C   UNL     1      34.540 -18.935 -23.812  0.00  0.00    +0.011 C 
ATOM     34  C   UNL     1      34.922 -17.607 -23.621  0.00  0.00    +0.058 C 
ENDBRANCH  27  29
ENDBRANCH  26  27
ENDBRANCH  25  26
ENDBRANCH   9  25
TORSDOF 9
ENDMDL
MODEL 2
REMARK VINA RESULT:     -11.2      1.464      2.276
REMARK  Name = 9910098
REMARK  9 active torsions:
REMARK  status: ('A' for Active; 'I' for Inactive)
REMARK    1  A    between atoms: N_1  and  C1*_12
REMARK    2  A    between atoms: C_9  and  O_25
REMARK    3  A    between atoms: C2*_11  and  O2*_15
REMARK    4  A    between atoms: C3*_13  and  O3*_17
REMARK    5  A    between atoms: C4*_14  and  C5*_19
REMARK    6  A    between atoms: C5*_19  and  O5*_20
REMARK    7  A    between atoms: O_25  and  C_26
REMARK    8  A    between atoms: C_26  and  C_27
REMARK    9  A    between atoms: C_27  and  C_29
REMARK                            x       y       z     vdW  Elec       q    Type
REMARK                         _______ _______ _______ _____ _____    ______ ____
ROOT
ATOM      1  N   UNL     1      34.434 -24.269 -14.284  0.00  0.00    -0.236 N 
ATOM      2  N   UNL     1      32.235 -23.922 -14.129  0.00  0.00    -0.240 NA
ATOM      3  N   UNL     1      34.775 -23.726 -16.628  0.00  0.00    -0.294 NA
ATOM      4  N   UNL     1      32.681 -23.081 -17.704  0.00  0.00    -0.295 NA
ATOM      5  C   UNL     1      34.022 -23.877 -15.528  0.00  0.00    +0.223 C 
ATOM      6  C   UNL     1      33.323 -24.281 -13.481  0.00  0.00    +0.224 C 
ATOM      7  C   UNL     1      32.658 -23.666 -15.410  0.00  0.00    +0.167 C 
ATOM      8  C   UNL     1      31.984 -23.253 -16.555  0.00  0.00    +0.214 C 
ATOM      9  C   UNL     1      34.014 -23.326 -17.669  0.00  0.00    +0.313 C 
ATOM     10  N   UNL     1      30.598 -23.018 -16.527  0.00  0.00    -0.331 N 
ATOM     11  H   UNL     1      30.133 -22.725 -17.343  0.00  0.00    +0.145 HD
ATOM     12  H   UNL     1      30.095 -23.144 -15.690  0.00  0.00    +0.145 HD
ENDROOT
BRANCH   1  15
ATOM     13  O4* UNL     1      35.773 -25.203 -12.560  0.00  0.00    -0.333 OA
ATOM     14  C2* UNL     1      36.752 -23.426 -13.842  0.00  0.00    +0.187 C 
ATOM     15  C1* UNL     1      35.797 -24.620 -13.881  0.00  0.00    +0.226 C 
ATOM     16  C3* UNL     1      36.866 -23.134 -12.358  0.00  0.00    +0.171 C 
ATOM     17  C4* UNL     1      36.739 -24.519 -11.747  0.00  0.00    +0.175 C 
BRANCH  14  18
ATOM     18  O2* UNL     1      38.011 -23.812 -14.391  0.00  0.00    -0.378 OA
ATOM     19  H2* UNL     1      37.867 -24.430 -15.125  0.00  0.00    +0.211 HD
ENDBRANCH  14  18
BRANCH  16  20
ATOM     20  O3* UNL     1      38.077 -22.504 -12.000  0.00  0.00    -0.379 OA
ATOM     21  H3* UNL     1      38.134 -21.640 -12.436  0.00  0.00    +0.211 HD
ENDBRANCH  16  20
BRANCH  17  22
ATOM     22  C5* UNL     1      36.274 -24.502 -10.302  0.00  0.00    +0.169 C 
BRANCH  22  23
ATOM     23  O5* UNL     1      35.328 -25.540 -10.117  0.00  0.00    -0.379 OA
ATOM     24  H5* UNL     1      35.160 -25.981 -10.964  0.00  0.00    +0.211 HD
ENDBRANCH  22  23
ENDBRANCH  17  22
ENDBRANCH   1  15
BRANCH   9  25
ATOM     25  O   UNL     1      34.684 -23.133 -18.857  0.00  0.00    -0.399 OA
BRANCH  25  26
ATOM     26  C   UNL     1      34.450 -21.900 -19.523  0.00  0.00    +0.227 C 
BRANCH  26  27
ATOM     27  C   UNL     1      35.781 -21.233 -19.854  0.00  0.00    +0.075 C 
BRANCH  27  29
ATOM     28 CL   UNL     1      35.235 -17.041 -24.114  0.00  0.00    -0.082 Cl
ATOM     29  C   UNL     1      35.643 -20.178 -20.924  0.00  0.00    -0.018 C 
ATOM     30  C   UNL     1      34.491 -20.137 -21.693  0.00  0.00    -0.003 C 
ATOM     31  C   UNL     1      36.672 -19.270 -21.120  0.00  0.00    -0.003 C 
ATOM     32  C   UNL     1      34.363 -19.163 -22.683  0.00  0.00    +0.011 C 
ATOM     33  C   UNL     1      36.545 -18.296 -22.110  0.00  0.00    +0.011 C 
ATOM     34  C   UNL     1      35.390 -18.242 -22.892  0.00  0.00    +0.058 C 
ENDBRANCH  27  29
ENDBRANCH  26  27
ENDBRANCH  25  26
ENDBRANCH   9  25
TORSDOF 9
ENDMDL
MODEL 3
REMARK VINA RESULT:     -10.8      1.255      2.045
REMARK  Name = 9910098
REMARK  9 active torsions:
REMARK  status: ('A' for Active; 'I' for Inactive)
REMARK    1  A    between atoms: N_1  and  C1*_12
REMARK    2  A    between atoms: C_9  and  O_25
REMARK    3  A    between atoms: C2*_11  and  O2*_15
REMARK    4  A    between atoms: C3*_13  and  O3*_17
REMARK    5  A    between atoms: C4*_14  and  C5*_19
REMARK    6  A    between atoms: C5*_19  and  O5*_20
REMARK    7  A    between atoms: O_25  and  C_26
REMARK    8  A    between atoms: C_26  and  C_27
REMARK    9  A    between atoms: C_27  and  C_29
REMARK                            x       y       z     vdW  Elec       q    Type
REMARK                         _______ _______ _______ _____ _____    ______ ____
ROOT
ATOM      1  N   UNL     1      33.840 -23.935 -14.206  0.00  0.00    -0.236 N 
ATOM      2  N   UNL     1      31.624 -23.680 -14.274  0.00  0.00    -0.240 NA
ATOM      3  N   UNL     1      34.378 -23.510 -16.537  0.00  0.00    -0.294 NA
ATOM      4  N   UNL     1      32.371 -23.022 -17.837  0.00  0.00    -0.295 NA
ATOM      5  C   UNL     1      33.531 -23.633 -15.503  0.00  0.00    +0.223 C 
ATOM      6  C   UNL     1      32.660 -23.952 -13.508  0.00  0.00    +0.224 C 
ATOM      7  C   UNL     1      32.155 -23.478 -15.524  0.00  0.00    +0.167 C 
ATOM      8  C   UNL     1      31.576 -23.161 -16.749  0.00  0.00    +0.214 C 
ATOM      9  C   UNL     1      33.703 -23.204 -17.665  0.00  0.00    +0.313 C 
ATOM     10  N   UNL     1      30.185 -22.988 -16.862  0.00  0.00    -0.331 N 
ATOM     11  H   UNL     1      29.787 -22.764 -17.734  0.00  0.00    +0.145 HD
ATOM     12  H   UNL     1      29.611 -23.090 -16.069  0.00  0.00    +0.145 HD
ENDROOT
BRANCH   1  15
ATOM     13  O4* UNL     1      36.078 -23.153 -14.068  0.00  0.00    -0.333 OA
ATOM     14  C2* UNL     1      35.768 -25.533 -14.114  0.00  0.00    +0.187 C 
ATOM     15  C1* UNL     1      35.171 -24.200 -13.659  0.00  0.00    +0.226 C 
ATOM     16  C3* UNL     1      36.775 -25.109 -15.166  0.00  0.00    +0.171 C 
ATOM     17  C4* UNL     1      37.245 -23.765 -14.639  0.00  0.00    +0.175 C 
BRANCH  14  18
ATOM     18  O2* UNL     1      36.411 -26.163 -13.007  0.00  0.00    -0.378 OA
ATOM     19  H2* UNL     1      35.975 -25.893 -12.184  0.00  0.00    +0.211 HD
ENDBRANCH  14  18
BRANCH  16  20
ATOM     20  O3* UNL     1      37.840 -26.021 -15.326  0.00  0.00    -0.379 OA
ATOM     21  H3* UNL     1      38.683 -25.545 -15.272  0.00  0.00    +0.211 HD
ENDBRANCH  16  20
BRANCH  17  22
ATOM     22  C5* UNL     1      37.824 -22.862 -15.714  0.00  0.00    +0.169 C 
BRANCH  22  23
ATOM     23  O5* UNL     1      37.086 -23.048 -16.909  0.00  0.00    -0.379 OA
ATOM     24  H5* UNL     1      36.140 -23.099 -16.701  0.00  0.00    +0.211 HD
ENDBRANCH  22  23
ENDBRANCH  17  22
ENDBRANCH   1  15
BRANCH   9  25
ATOM     25  O   UNL     1      34.474 -23.048 -18.797  0.00  0.00    -0.399 OA
BRANCH  25  26
ATOM     26  C   UNL     1      34.295 -21.841 -19.523  0.00  0.00    +0.227 C 
BRANCH  26  27
ATOM     27  C   UNL     1      35.654 -21.253 -19.888  0.00  0.00    +0.075 C 
BRANCH  27  29
ATOM     28 CL   UNL     1      35.242 -16.984 -24.086  0.00  0.00    -0.082 Cl
ATOM     29  C   UNL     1      35.550 -20.178 -20.942  0.00  0.00    -0.018 C 
ATOM     30  C   UNL     1      34.429 -20.132 -21.756  0.00  0.00    -0.003 C 
ATOM     31  C   UNL     1      36.577 -19.258 -21.078  0.00  0.00    -0.003 C 
ATOM     32  C   UNL     1      34.333 -19.140 -22.731  0.00  0.00    +0.011 C 
ATOM     33  C   UNL     1      36.482 -18.266 -22.054  0.00  0.00    +0.011 C 
ATOM     34  C   UNL     1      35.359 -18.207 -22.881  0.00  0.00    +0.058 C 
ENDBRANCH  27  29
ENDBRANCH  26  27
ENDBRANCH  25  26
ENDBRANCH   9  25
TORSDOF 9
ENDMDL
MODEL 4
REMARK VINA RESULT:     -10.5      1.680      2.439
REMARK  Name = 9910098
REMARK  9 active torsions:
REMARK  status: ('A' for Active; 'I' for Inactive)
REMARK    1  A    between atoms: N_1  and  C1*_12
REMARK    2  A    between atoms: C_9  and  O_25
REMARK    3  A    between atoms: C2*_11  and  O2*_15
REMARK    4  A    between atoms: C3*_13  and  O3*_17
REMARK    5  A    between atoms: C4*_14  and  C5*_19
REMARK    6  A    between atoms: C5*_19  and  O5*_20
REMARK    7  A    between atoms: O_25  and  C_26
REMARK    8  A    between atoms: C_26  and  C_27
REMARK    9  A    between atoms: C_27  and  C_29
REMARK                            x       y       z     vdW  Elec       q    Type
REMARK                         _______ _______ _______ _____ _____    ______ ____
ROOT
ATOM      1  N   UNL     1      34.228 -24.325 -14.597  0.00  0.00    -0.236 N 
ATOM      2  N   UNL     1      32.336 -24.662 -13.463  0.00  0.00    -0.240 NA
ATOM      3  N   UNL     1      33.327 -23.317 -16.616  0.00  0.00    -0.294 NA
ATOM      4  N   UNL     1      30.895 -23.133 -16.508  0.00  0.00    -0.295 NA
ATOM      5  C   UNL     1      33.218 -23.864 -15.396  0.00  0.00    +0.223 C 
ATOM      6  C   UNL     1      33.645 -24.795 -13.449  0.00  0.00    +0.224 C 
ATOM      7  C   UNL     1      32.055 -24.081 -14.675  0.00  0.00    +0.167 C 
ATOM      8  C   UNL     1      30.861 -23.693 -15.275  0.00  0.00    +0.214 C 
ATOM      9  C   UNL     1      32.109 -22.984 -17.093  0.00  0.00    +0.313 C 
ATOM     10  N   UNL     1      29.633 -23.878 -14.616  0.00  0.00    -0.331 N 
ATOM     11  H   UNL     1      28.796 -23.599 -15.051  0.00  0.00    +0.145 HD
ATOM     12  H   UNL     1      29.612 -24.285 -13.720  0.00  0.00    +0.145 HD
ENDROOT
BRANCH   1  15
ATOM     13  O4* UNL     1      36.201 -25.644 -14.660  0.00  0.00    -0.333 OA
ATOM     14  C2* UNL     1      36.468 -23.333 -14.073  0.00  0.00    +0.187 C 
ATOM     15  C1* UNL     1      35.659 -24.329 -14.905  0.00  0.00    +0.226 C 
ATOM     16  C3* UNL     1      37.143 -24.221 -13.046  0.00  0.00    +0.171 C 
ATOM     17  C4* UNL     1      37.362 -25.506 -13.826  0.00  0.00    +0.175 C 
BRANCH  14  18
ATOM     18  O2* UNL     1      37.428 -22.690 -14.911  0.00  0.00    -0.378 OA
ATOM     19  H2* UNL     1      37.323 -21.728 -14.845  0.00  0.00    +0.211 HD
ENDBRANCH  14  18
BRANCH  16  20
ATOM     20  O3* UNL     1      38.351 -23.689 -12.547  0.00  0.00    -0.379 OA
ATOM     21  H3* UNL     1      38.370 -23.780 -11.582  0.00  0.00    +0.211 HD
ENDBRANCH  16  20
BRANCH  17  22
ATOM     22  C5* UNL     1      37.510 -26.732 -12.943  0.00  0.00    +0.169 C 
BRANCH  22  23
ATOM     23  O5* UNL     1      37.348 -26.340 -11.591  0.00  0.00    -0.379 OA
ATOM     24  H5* UNL     1      36.419 -26.445 -11.332  0.00  0.00    +0.211 HD
ENDBRANCH  22  23
ENDBRANCH  17  22
ENDBRANCH   1  15
BRANCH   9  25
ATOM     25  O   UNL     1      32.097 -22.405 -18.344  0.00  0.00    -0.399 OA
BRANCH  25  26
ATOM     26  C   UNL     1      33.361 -22.068 -18.898  0.00  0.00    +0.227 C 
BRANCH  26  27
ATOM     27  C   UNL     1      33.165 -21.207 -20.141  0.00  0.00    +0.075 C 
BRANCH  27  29
ATOM     28 CL   UNL     1      38.290 -18.711 -22.020  0.00  0.00    -0.082 Cl
ATOM     29  C   UNL     1      34.454 -20.578 -20.612  0.00  0.00    -0.018 C 
ATOM     30  C   UNL     1      34.410 -19.574 -21.566  0.00  0.00    -0.003 C 
ATOM     31  C   UNL     1      35.657 -21.017 -20.083  0.00  0.00    -0.003 C 
ATOM     32  C   UNL     1      35.601 -18.993 -22.003  0.00  0.00    +0.011 C 
ATOM     33  C   UNL     1      36.849 -20.437 -20.520  0.00  0.00    +0.011 C 
ATOM     34  C   UNL     1      36.820 -19.425 -21.480  0.00  0.00    +0.058 C 
ENDBRANCH  27  29
ENDBRANCH  26  27
ENDBRANCH  25  26
ENDBRANCH   9  25
TORSDOF 9
ENDMDL
MODEL 5
REMARK VINA RESULT:     -10.0      6.790     11.896
REMARK  Name = 9910098
REMARK  9 active torsions:
REMARK  status: ('A' for Active; 'I' for Inactive)
REMARK    1  A    between atoms: N_1  and  C1*_12
REMARK    2  A    between atoms: C_9  and  O_25
REMARK    3  A    between atoms: C2*_11  and  O2*_15
REMARK    4  A    between atoms: C3*_13  and  O3*_17
REMARK    5  A    between atoms: C4*_14  and  C5*_19
REMARK    6  A    between atoms: C5*_19  and  O5*_20
REMARK    7  A    between atoms: O_25  and  C_26
REMARK    8  A    between atoms: C_26  and  C_27
REMARK    9  A    between atoms: C_27  and  C_29
REMARK                            x       y       z     vdW  Elec       q    Type
REMARK                         _______ _______ _______ _____ _____    ______ ____
ROOT
ATOM      1  N   UNL     1      33.917 -14.397 -24.234  0.00  0.00    -0.236 N 
ATOM      2  N   UNL     1      33.025 -15.677 -25.830  0.00  0.00    -0.240 NA
ATOM      3  N   UNL     1      35.193 -16.075 -23.024  0.00  0.00    -0.294 NA
ATOM      4  N   UNL     1      34.943 -18.282 -24.035  0.00  0.00    -0.295 NA
ATOM      5  C   UNL     1      34.374 -15.666 -24.005  0.00  0.00    +0.223 C 
ATOM      6  C   UNL     1      33.110 -14.458 -25.341  0.00  0.00    +0.224 C 
ATOM      7  C   UNL     1      33.810 -16.442 -25.005  0.00  0.00    +0.167 C 
ATOM      8  C   UNL     1      34.121 -17.799 -24.998  0.00  0.00    +0.214 C 
ATOM      9  C   UNL     1      35.419 -17.402 -23.121  0.00  0.00    +0.313 C 
ATOM     10  N   UNL     1      33.592 -18.661 -25.974  0.00  0.00    -0.331 N 
ATOM     11  H   UNL     1      33.819 -19.618 -25.959  0.00  0.00    +0.145 HD
ATOM     12  H   UNL     1      32.995 -18.306 -26.672  0.00  0.00    +0.145 HD
ENDROOT
BRANCH   1  15
ATOM     13  O4* UNL     1      33.477 -13.236 -22.211  0.00  0.00    -0.333 OA
ATOM     14  C2* UNL     1      33.868 -11.893 -24.162  0.00  0.00    +0.187 C 
ATOM     15  C1* UNL     1      34.220 -13.200 -23.449  0.00  0.00    +0.226 C 
ATOM     16  C3* UNL     1      32.581 -11.473 -23.478  0.00  0.00    +0.171 C 
ATOM     17  C4* UNL     1      32.786 -11.986 -22.063  0.00  0.00    +0.175 C 
BRANCH  14  18
ATOM     18  O2* UNL     1      34.907 -10.941 -23.939  0.00  0.00    -0.378 OA
ATOM     19  H2* UNL     1      34.757 -10.163 -24.499  0.00  0.00    +0.211 HD
ENDBRANCH  14  18
BRANCH  16  20
ATOM     20  O3* UNL     1      32.355 -10.080 -23.511  0.00  0.00    -0.379 OA
ATOM     21  H3* UNL     1      33.194  -9.620 -23.670  0.00  0.00    +0.211 HD
ENDBRANCH  16  20
BRANCH  17  22
ATOM     22  C5* UNL     1      31.489 -12.202 -21.304  0.00  0.00    +0.169 C 
BRANCH  22  23
ATOM     23  O5* UNL     1      30.536 -11.255 -21.753  0.00  0.00    -0.379 OA
ATOM     24  H5* UNL     1      30.518 -11.247 -22.723  0.00  0.00    +0.211 HD
ENDBRANCH  22  23
ENDBRANCH  17  22
ENDBRANCH   1  15
BRANCH   9  25
ATOM     25  O   UNL     1      36.255 -17.935 -22.164  0.00  0.00    -0.399 OA
BRANCH  25  26
ATOM     26  C   UNL     1      35.632 -18.640 -21.101  0.00  0.00    +0.227 C 
BRANCH  26  27
ATOM     27  C   UNL     1      35.828 -20.140 -21.294  0.00  0.00    +0.075 C 
BRANCH  27  29
ATOM     28 CL   UNL     1      32.742 -23.370 -17.285  0.00  0.00    -0.082 Cl
ATOM     29  C   UNL     1      35.052 -20.954 -20.287  0.00  0.00    -0.018 C 
ATOM     30  C   UNL     1      33.667 -20.906 -20.298  0.00  0.00    -0.003 C 
ATOM     31  C   UNL     1      35.739 -21.732 -19.368  0.00  0.00    -0.003 C 
ATOM     32  C   UNL     1      32.950 -21.657 -19.367  0.00  0.00    +0.011 C 
ATOM     33  C   UNL     1      35.021 -22.483 -18.436  0.00  0.00    +0.011 C 
ATOM     34  C   UNL     1      33.626 -22.445 -18.436  0.00  0.00    +0.058 C 
ENDBRANCH  27  29
ENDBRANCH  26  27
ENDBRANCH  25  26
ENDBRANCH   9  25
TORSDOF 9
ENDMDL
MODEL 6
REMARK VINA RESULT:      -9.8      6.118     11.229
REMARK  Name = 9910098
REMARK  9 active torsions:
REMARK  status: ('A' for Active; 'I' for Inactive)
REMARK    1  A    between atoms: N_1  and  C1*_12
REMARK    2  A    between atoms: C_9  and  O_25
REMARK    3  A    between atoms: C2*_11  and  O2*_15
REMARK    4  A    between atoms: C3*_13  and  O3*_17
REMARK    5  A    between atoms: C4*_14  and  C5*_19
REMARK    6  A    between atoms: C5*_19  and  O5*_20
REMARK    7  A    between atoms: O_25  and  C_26
REMARK    8  A    between atoms: C_26  and  C_27
REMARK    9  A    between atoms: C_27  and  C_29
REMARK                            x       y       z     vdW  Elec       q    Type
REMARK                         _______ _______ _______ _____ _____    ______ ____
ROOT
ATOM      1  N   UNL     1      34.236 -15.530 -24.360  0.00  0.00    -0.236 N 
ATOM      2  N   UNL     1      33.428 -16.825 -25.988  0.00  0.00    -0.240 NA
ATOM      3  N   UNL     1      35.225 -17.229 -22.931  0.00  0.00    -0.294 NA
ATOM      4  N   UNL     1      34.911 -19.464 -23.861  0.00  0.00    -0.295 NA
ATOM      5  C   UNL     1      34.558 -16.815 -24.020  0.00  0.00    +0.223 C 
ATOM      6  C   UNL     1      33.557 -15.590 -25.549  0.00  0.00    +0.224 C 
ATOM      7  C   UNL     1      34.050 -17.601 -25.041  0.00  0.00    +0.167 C 
ATOM      8  C   UNL     1      34.246 -18.974 -24.935  0.00  0.00    +0.214 C 
ATOM      9  C   UNL     1      35.352 -18.573 -22.940  0.00  0.00    +0.313 C 
ATOM     10  N   UNL     1      33.761 -19.847 -25.925  0.00  0.00    -0.331 N 
ATOM     11  H   UNL     1      33.906 -20.816 -25.839  0.00  0.00    +0.145 HD
ATOM     12  H   UNL     1      33.278 -19.488 -26.704  0.00  0.00    +0.145 HD
ENDROOT
BRANCH   1  15
ATOM     13  O4* UNL     1      34.241 -14.531 -22.206  0.00  0.00    -0.333 OA
ATOM     14  C2* UNL     1      33.760 -13.088 -24.063  0.00  0.00    +0.187 C 
ATOM     15  C1* UNL     1      34.545 -14.317 -23.601  0.00  0.00    +0.226 C 
ATOM     16  C3* UNL     1      32.694 -12.948 -22.992  0.00  0.00    +0.171 C 
ATOM     17  C4* UNL     1      33.416 -13.447 -21.752  0.00  0.00    +0.175 C 
BRANCH  14  18
ATOM     18  O2* UNL     1      34.627 -11.955 -24.080  0.00  0.00    -0.378 OA
ATOM     19  H2* UNL     1      34.403 -11.388 -24.835  0.00  0.00    +0.211 HD
ENDBRANCH  14  18
BRANCH  16  20
ATOM     20  O3* UNL     1      32.222 -11.627 -22.838  0.00  0.00    -0.379 OA
ATOM     21  H3* UNL     1      31.252 -11.629 -22.835  0.00  0.00    +0.211 HD
ENDBRANCH  16  20
BRANCH  17  22
ATOM     22  C5* UNL     1      32.478 -13.936 -20.663  0.00  0.00    +0.169 C 
BRANCH  22  23
ATOM     23  O5* UNL     1      31.209 -13.336 -20.853  0.00  0.00    -0.379 OA
ATOM     24  H5* UNL     1      30.640 -13.531 -20.092  0.00  0.00    +0.211 HD
ENDBRANCH  22  23
ENDBRANCH  17  22
ENDBRANCH   1  15
BRANCH   9  25
ATOM     25  O   UNL     1      36.028 -19.114 -21.867  0.00  0.00    -0.399 OA
BRANCH  25  26
ATOM     26  C   UNL     1      35.337 -20.101 -21.116  0.00  0.00    +0.227 C 
BRANCH  26  27
ATOM     27  C   UNL     1      36.332 -20.916 -20.297  0.00  0.00    +0.075 C 
BRANCH  27  29
ATOM     28 CL   UNL     1      33.674 -23.975 -15.870  0.00  0.00    -0.082 Cl
ATOM     29  C   UNL     1      35.665 -21.687 -19.185  0.00  0.00    -0.018 C 
ATOM     30  C   UNL     1      34.331 -22.042 -19.311  0.00  0.00    -0.003 C 
ATOM     31  C   UNL     1      36.396 -22.023 -18.057  0.00  0.00    -0.003 C 
ATOM     32  C   UNL     1      33.713 -22.754 -18.282  0.00  0.00    +0.011 C 
ATOM     33  C   UNL     1      35.779 -22.734 -17.028  0.00  0.00    +0.011 C 
ATOM     34  C   UNL     1      34.437 -23.099 -17.141  0.00  0.00    +0.058 C 
ENDBRANCH  27  29
ENDBRANCH  26  27
ENDBRANCH  25  26
ENDBRANCH   9  25
TORSDOF 9
ENDMDL
MODEL 7
REMARK VINA RESULT:      -9.7      4.089      6.246
REMARK  Name = 9910098
REMARK  9 active torsions:
REMARK  status: ('A' for Active; 'I' for Inactive)
REMARK    1  A    between atoms: N_1  and  C1*_12
REMARK    2  A    between atoms: C_9  and  O_25
REMARK    3  A    between atoms: C2*_11  and  O2*_15
REMARK    4  A    between atoms: C3*_13  and  O3*_17
REMARK    5  A    between atoms: C4*_14  and  C5*_19
REMARK    6  A    between atoms: C5*_19  and  O5*_20
REMARK    7  A    between atoms: O_25  and  C_26
REMARK    8  A    between atoms: C_26  and  C_27
REMARK    9  A    between atoms: C_27  and  C_29
REMARK                            x       y       z     vdW  Elec       q    Type
REMARK                         _______ _______ _______ _____ _____    ______ ____
ROOT
ATOM      1  N   UNL     1      36.699 -23.219 -15.251  0.00  0.00    -0.236 N 
ATOM      2  N   UNL     1      36.983 -22.369 -17.295  0.00  0.00    -0.240 NA
ATOM      3  N   UNL     1      34.316 -23.690 -15.327  0.00  0.00    -0.294 NA
ATOM      4  N   UNL     1      33.354 -23.060 -17.480  0.00  0.00    -0.295 NA
ATOM      5  C   UNL     1      35.469 -23.246 -15.849  0.00  0.00    +0.223 C 
ATOM      6  C   UNL     1      37.573 -22.683 -16.161  0.00  0.00    +0.224 C 
ATOM      7  C   UNL     1      35.667 -22.716 -17.114  0.00  0.00    +0.167 C 
ATOM      8  C   UNL     1      34.552 -22.630 -17.942  0.00  0.00    +0.214 C 
ATOM      9  C   UNL     1      33.311 -23.555 -16.219  0.00  0.00    +0.313 C 
ATOM     10  N   UNL     1      34.661 -22.103 -19.241  0.00  0.00    -0.331 N 
ATOM     11  H   UNL     1      33.865 -22.047 -19.817  0.00  0.00    +0.145 HD
ATOM     12  H   UNL     1      35.534 -21.791 -19.573  0.00  0.00    +0.145 HD
ENDROOT
BRANCH   1  15
ATOM     13  O4* UNL     1      38.434 -23.977 -13.820  0.00  0.00    -0.333 OA
ATOM     14  C2* UNL     1      36.254 -24.912 -13.459  0.00  0.00    +0.187 C 
ATOM     15  C1* UNL     1      37.026 -23.667 -13.897  0.00  0.00    +0.226 C 
ATOM     16  C3* UNL     1      37.288 -26.014 -13.592  0.00  0.00    +0.171 C 
ATOM     17  C4* UNL     1      38.577 -25.288 -13.251  0.00  0.00    +0.175 C 
BRANCH  14  18
ATOM     18  O2* UNL     1      35.837 -24.754 -12.103  0.00  0.00    -0.378 OA
ATOM     19  H2* UNL     1      36.250 -25.442 -11.557  0.00  0.00    +0.211 HD
ENDBRANCH  14  18
BRANCH  16  20
ATOM     20  O3* UNL     1      37.053 -27.112 -12.736  0.00  0.00    -0.379 OA
ATOM     21  H3* UNL     1      36.269 -26.937 -12.193  0.00  0.00    +0.211 HD
ENDBRANCH  16  20
BRANCH  17  22
ATOM     22  C5* UNL     1      39.817 -25.960 -13.814  0.00  0.00    +0.169 C 
BRANCH  22  23
ATOM     23  O5* UNL     1      40.680 -24.962 -14.330  0.00  0.00    -0.379 OA
ATOM     24  H5* UNL     1      41.441 -25.383 -14.760  0.00  0.00    +0.211 HD
ENDBRANCH  22  23
ENDBRANCH  17  22
ENDBRANCH   1  15
BRANCH   9  25
ATOM     25  O   UNL     1      32.074 -23.986 -15.791  0.00  0.00    -0.399 OA
BRANCH  25  26
ATOM     26  C   UNL     1      32.030 -24.631 -14.527  0.00  0.00    +0.227 C 
BRANCH  26  27
ATOM     27  C   UNL     1      30.580 -24.894 -14.133  0.00  0.00    +0.075 C 
BRANCH  27  29
ATOM     28 CL   UNL     1      26.683 -22.264 -17.863  0.00  0.00    -0.082 Cl
ATOM     29  C   UNL     1      29.602 -24.233 -15.073  0.00  0.00    -0.018 C 
ATOM     30  C   UNL     1      29.228 -22.917 -14.847  0.00  0.00    -0.003 C 
ATOM     31  C   UNL     1      29.093 -24.953 -16.142  0.00  0.00    -0.003 C 
ATOM     32  C   UNL     1      28.322 -22.306 -15.714  0.00  0.00    +0.011 C 
ATOM     33  C   UNL     1      28.187 -24.342 -17.009  0.00  0.00    +0.011 C 
ATOM     34  C   UNL     1      27.802 -23.018 -16.795  0.00  0.00    +0.058 C 
ENDBRANCH  27  29
ENDBRANCH  26  27
ENDBRANCH  25  26
ENDBRANCH   9  25
TORSDOF 9
ENDMDL
MODEL 8
REMARK VINA RESULT:      -9.6      2.026      3.206
REMARK  Name = 9910098
REMARK  9 active torsions:
REMARK  status: ('A' for Active; 'I' for Inactive)
REMARK    1  A    between atoms: N_1  and  C1*_12
REMARK    2  A    between atoms: C_9  and  O_25
REMARK    3  A    between atoms: C2*_11  and  O2*_15
REMARK    4  A    between atoms: C3*_13  and  O3*_17
REMARK    5  A    between atoms: C4*_14  and  C5*_19
REMARK    6  A    between atoms: C5*_19  and  O5*_20
REMARK    7  A    between atoms: O_25  and  C_26
REMARK    8  A    between atoms: C_26  and  C_27
REMARK    9  A    between atoms: C_27  and  C_29
REMARK                            x       y       z     vdW  Elec       q    Type
REMARK                         _______ _______ _______ _____ _____    ______ ____
ROOT
ATOM      1  N   UNL     1      34.391 -23.267 -17.452  0.00  0.00    -0.236 N 
ATOM      2  N   UNL     1      32.409 -22.639 -18.262  0.00  0.00    -0.240 NA
ATOM      3  N   UNL     1      35.858 -21.999 -18.916  0.00  0.00    -0.294 NA
ATOM      4  N   UNL     1      34.582 -20.681 -20.527  0.00  0.00    -0.295 NA
ATOM      5  C   UNL     1      34.656 -22.401 -18.476  0.00  0.00    +0.223 C 
ATOM      6  C   UNL     1      33.028 -23.377 -17.365  0.00  0.00    +0.224 C 
ATOM      7  C   UNL     1      33.415 -22.023 -18.964  0.00  0.00    +0.167 C 
ATOM      8  C   UNL     1      33.404 -21.129 -20.030  0.00  0.00    +0.214 C 
ATOM      9  C   UNL     1      35.719 -21.139 -19.947  0.00  0.00    +0.313 C 
ATOM     10  N   UNL     1      32.190 -20.693 -20.589  0.00  0.00    -0.331 N 
ATOM     11  H   UNL     1      32.195 -20.060 -21.342  0.00  0.00    +0.145 HD
ATOM     12  H   UNL     1      31.336 -21.021 -20.226  0.00  0.00    +0.145 HD
ENDROOT
BRANCH   1  15
ATOM     13  O4* UNL     1      34.682 -24.826 -15.685  0.00  0.00    -0.333 OA
ATOM     14  C2* UNL     1      36.248 -23.011 -15.789  0.00  0.00    +0.187 C 
ATOM     15  C1* UNL     1      35.370 -23.957 -16.610  0.00  0.00    +0.226 C 
ATOM     16  C3* UNL     1      35.648 -23.114 -14.400  0.00  0.00    +0.171 C 
ATOM     17  C4* UNL     1      35.170 -24.555 -14.362  0.00  0.00    +0.175 C 
BRANCH  14  18
ATOM     18  O2* UNL     1      37.594 -23.485 -15.807  0.00  0.00    -0.378 OA
ATOM     19  H2* UNL     1      37.637 -24.352 -15.374  0.00  0.00    +0.211 HD
ENDBRANCH  14  18
BRANCH  16  20
ATOM     20  O3* UNL     1      36.566 -22.830 -13.367  0.00  0.00    -0.379 OA
ATOM     21  H3* UNL     1      37.353 -22.404 -13.742  0.00  0.00    +0.211 HD
ENDBRANCH  16  20
BRANCH  17  22
ATOM     22  C5* UNL     1      34.067 -24.800 -13.347  0.00  0.00    +0.169 C 
BRANCH  22  23
ATOM     23  O5* UNL     1      34.660 -25.065 -12.088  0.00  0.00    -0.379 OA
ATOM     24  H5* UNL     1      35.534 -25.464 -12.219  0.00  0.00    +0.211 HD
ENDBRANCH  22  23
ENDBRANCH  17  22
ENDBRANCH   1  15
BRANCH   9  25
ATOM     25  O   UNL     1      36.894 -20.653 -20.480  0.00  0.00    -0.399 OA
BRANCH  25  26
ATOM     26  C   UNL     1      36.921 -19.270 -20.798  0.00  0.00    +0.227 C 
BRANCH  26  27
ATOM     27  C   UNL     1      36.222 -19.035 -22.133  0.00  0.00    +0.075 C 
BRANCH  27  29
ATOM     28 CL   UNL     1      33.844 -13.538 -22.526  0.00  0.00    -0.082 Cl
ATOM     29  C   UNL     1      35.622 -17.653 -22.232  0.00  0.00    -0.018 C 
ATOM     30  C   UNL     1      35.335 -17.125 -23.481  0.00  0.00    -0.003 C 
ATOM     31  C   UNL     1      35.372 -16.937 -21.072  0.00  0.00    -0.003 C 
ATOM     32  C   UNL     1      34.782 -15.848 -23.572  0.00  0.00    +0.011 C 
ATOM     33  C   UNL     1      34.820 -15.659 -21.163  0.00  0.00    +0.011 C 
ATOM     34  C   UNL     1      34.525 -15.115 -22.414  0.00  0.00    +0.058 C 
ENDBRANCH  27  29
ENDBRANCH  26  27
ENDBRANCH  25  26
ENDBRANCH   9  25
TORSDOF 9
ENDMDL
MODEL 9
REMARK VINA RESULT:      -9.4      7.238     10.265
REMARK  Name = 9910098
REMARK  9 active torsions:
REMARK  status: ('A' for Active; 'I' for Inactive)
REMARK    1  A    between atoms: N_1  and  C1*_12
REMARK    2  A    between atoms: C_9  and  O_25
REMARK    3  A    between atoms: C2*_11  and  O2*_15
REMARK    4  A    between atoms: C3*_13  and  O3*_17
REMARK    5  A    between atoms: C4*_14  and  C5*_19
REMARK    6  A    between atoms: C5*_19  and  O5*_20
REMARK    7  A    between atoms: O_25  and  C_26
REMARK    8  A    between atoms: C_26  and  C_27
REMARK    9  A    between atoms: C_27  and  C_29
REMARK                            x       y       z     vdW  Elec       q    Type
REMARK                         _______ _______ _______ _____ _____    ______ ____
ROOT
ATOM      1  N   UNL     1      34.692 -17.780 -24.561  0.00  0.00    -0.236 N 
ATOM      2  N   UNL     1      33.505 -17.010 -26.286  0.00  0.00    -0.240 NA
ATOM      3  N   UNL     1      34.640 -15.827 -23.117  0.00  0.00    -0.294 NA
ATOM      4  N   UNL     1      33.385 -14.000 -24.139  0.00  0.00    -0.295 NA
ATOM      5  C   UNL     1      34.340 -16.499 -24.239  0.00  0.00    +0.223 C 
ATOM      6  C   UNL     1      34.167 -18.039 -25.800  0.00  0.00    +0.224 C 
ATOM      7  C   UNL     1      33.605 -16.040 -25.320  0.00  0.00    +0.167 C 
ATOM      8  C   UNL     1      33.120 -14.738 -25.244  0.00  0.00    +0.214 C 
ATOM      9  C   UNL     1      34.118 -14.582 -23.160  0.00  0.00    +0.313 C 
ATOM     10  N   UNL     1      32.366 -14.191 -26.296  0.00  0.00    -0.331 N 
ATOM     11  H   UNL     1      32.028 -13.269 -26.231  0.00  0.00    +0.145 HD
ATOM     12  H   UNL     1      32.176 -14.730 -27.098  0.00  0.00    +0.145 HD
ENDROOT
BRANCH   1  15
ATOM     13  O4* UNL     1      34.616 -19.691 -23.154  0.00  0.00    -0.333 OA
ATOM     14  C2* UNL     1      36.251 -18.020 -22.614  0.00  0.00    +0.187 C 
ATOM     15  C1* UNL     1      35.485 -18.704 -23.748  0.00  0.00    +0.226 C 
ATOM     16  C3* UNL     1      35.421 -18.364 -21.392  0.00  0.00    +0.171 C 
ATOM     17  C4* UNL     1      34.884 -19.740 -21.744  0.00  0.00    +0.175 C 
BRANCH  14  18
ATOM     18  O2* UNL     1      37.560 -18.582 -22.525  0.00  0.00    -0.378 OA
ATOM     19  H2* UNL     1      37.654 -19.289 -23.183  0.00  0.00    +0.211 HD
ENDBRANCH  14  18
BRANCH  16  20
ATOM     20  O3* UNL     1      36.164 -18.373 -20.192  0.00  0.00    -0.379 OA
ATOM     21  H3* UNL     1      36.925 -17.778 -20.278  0.00  0.00    +0.211 HD
ENDBRANCH  16  20
BRANCH  17  22
ATOM     22  C5* UNL     1      33.617 -20.105 -20.991  0.00  0.00    +0.169 C 
BRANCH  22  23
ATOM     23  O5* UNL     1      33.918 -21.140 -20.071  0.00  0.00    -0.379 OA
ATOM     24  H5* UNL     1      33.165 -21.749 -20.011  0.00  0.00    +0.211 HD
ENDBRANCH  22  23
ENDBRANCH  17  22
ENDBRANCH   1  15
BRANCH   9  25
ATOM     25  O   UNL     1      34.359 -13.797 -22.053  0.00  0.00    -0.399 OA
BRANCH  25  26
ATOM     26  C   UNL     1      33.465 -13.952 -20.960  0.00  0.00    +0.227 C 
BRANCH  26  27
ATOM     27  C   UNL     1      32.107 -13.358 -21.318  0.00  0.00    +0.075 C 
BRANCH  27  29
ATOM     28 CL   UNL     1      31.991  -7.394 -20.656  0.00  0.00    -0.082 Cl
ATOM     29  C   UNL     1      32.076 -11.858 -21.151  0.00  0.00    -0.018 C 
ATOM     30  C   UNL     1      32.163 -11.049 -22.273  0.00  0.00    -0.003 C 
ATOM     31  C   UNL     1      31.963 -11.318 -19.880  0.00  0.00    -0.003 C 
ATOM     32  C   UNL     1      32.136  -9.663 -22.119  0.00  0.00    +0.011 C 
ATOM     33  C   UNL     1      31.936  -9.931 -19.726  0.00  0.00    +0.011 C 
ATOM     34  C   UNL     1      32.022  -9.104 -20.846  0.00  0.00    +0.058 C 
ENDBRANCH  27  29
ENDBRANCH  26  27
ENDBRANCH  25  26
ENDBRANCH   9  25
TORSDOF 9
ENDMDL
