MODEL 1
REMARK VINA RESULT:     -12.0      0.000      0.000
REMARK  Name = 54689025
REMARK  9 active torsions:
REMARK  status: ('A' for Active; 'I' for Inactive)
REMARK    1  A    between atoms: C_1  and  C_21
REMARK    2  A    between atoms: C_4  and  N_8
REMARK    3  A    between atoms: C_9  and  C_11
REMARK    4  A    between atoms: C_11  and  N_13
REMARK    5  A    between atoms: C_14  and  O_16
REMARK    6  A    between atoms: O_16  and  C_17
REMARK    7  A    between atoms: C_21  and  C_24
REMARK    8  A    between atoms: C_21  and  C_35
REMARK    9  A    between atoms: C_25  and  O_33
REMARK                            x       y       z     vdW  Elec       q    Type
REMARK                         _______ _______ _______ _____ _____    ______ ____
ROOT
ATOM      1  C   UNL     1      35.105 -16.730 -22.226  0.00  0.00    -0.017 C 
ATOM      2  C   UNL     1      34.909 -15.635 -23.068  0.00  0.00    +0.011 C 
ATOM      3  C   UNL     1      34.944 -16.588 -20.848  0.00  0.00    -0.004 C 
ATOM      4  C   UNL     1      34.551 -14.398 -22.531  0.00  0.00    +0.050 C 
ATOM      5  C   UNL     1      34.588 -15.351 -20.311  0.00  0.00    +0.001 C 
ATOM      6  C   UNL     1      34.391 -14.257 -21.153  0.00  0.00    +0.015 C 
ENDROOT
BRANCH   4   8
ATOM      7  O   UNL     1      33.016 -14.167 -25.103  0.00  0.00    -0.273 OA
ATOM      8  N   UNL     1      34.356 -13.302 -23.372  0.00  0.00    -0.283 N 
ATOM      9  C   UNL     1      33.626 -13.245 -24.570  0.00  0.00    +0.246 C 
ATOM     10  H   UNL     1      34.783 -12.461 -23.089  0.00  0.00    +0.155 HD
BRANCH   9  11
ATOM     11  C   UNL     1      33.671 -11.851 -25.168  0.00  0.00    +0.179 C 
BRANCH  11  13
ATOM     12  O   UNL     1      35.224  -9.682 -24.017  0.00  0.00    -0.226 OA
ATOM     13  N   UNL     1      33.244 -10.880 -24.203  0.00  0.00    -0.262 N 
ATOM     14  C   UNL     1      34.053  -9.873 -23.703  0.00  0.00    +0.402 C 
ATOM     15  H   UNL     1      32.317 -10.932 -23.874  0.00  0.00    +0.153 HD
BRANCH  14  16
ATOM     16  O   UNL     1      33.357  -9.114 -22.804  0.00  0.00    -0.442 OA
BRANCH  16  17
ATOM     17  C   UNL     1      33.061  -7.775 -23.215  0.00  0.00    +0.138 C 
ATOM     18  C   UNL     1      34.231  -7.252 -24.048  0.00  0.00    +0.044 C 
ATOM     19  C   UNL     1      32.883  -6.935 -21.951  0.00  0.00    +0.044 C 
ATOM     20  C   UNL     1      31.773  -7.792 -24.036  0.00  0.00    +0.044 C 
ENDBRANCH  16  17
ENDBRANCH  14  16
ENDBRANCH  11  13
ENDBRANCH   9  11
ENDBRANCH   4   8
BRANCH   1  21
ATOM     21  C   UNL     1      35.493 -18.076 -22.811  0.00  0.00    +0.054 C 
BRANCH  21  24
ATOM     22  O   UNL     1      36.962 -20.371 -20.183  0.00  0.00    -0.421 OA
ATOM     23  O   UNL     1      37.856 -18.774 -21.533  0.00  0.00    -0.245 OA
ATOM     24  C   UNL     1      35.513 -19.139 -21.746  0.00  0.00    +0.091 A 
ATOM     25  C   UNL     1      34.445 -19.836 -21.313  0.00  0.00    +0.139 A 
ATOM     26  C   UNL     1      36.863 -19.395 -21.166  0.00  0.00    +0.345 A 
ATOM     27  C   UNL     1      34.584 -20.858 -20.274  0.00  0.00    +0.068 A 
ATOM     28  C   UNL     1      35.845 -21.097 -19.738  0.00  0.00    +0.152 A 
ATOM     29  C   UNL     1      33.510 -21.617 -19.786  0.00  0.00    +0.006 C 
ATOM     30  C   UNL     1      36.064 -22.054 -18.746  0.00  0.00    +0.038 C 
ATOM     31  C   UNL     1      33.713 -22.580 -18.791  0.00  0.00    +0.000 C 
ATOM     32  C   UNL     1      34.988 -22.799 -18.273  0.00  0.00    +0.003 C 
BRANCH  25  33
ATOM     33  O   UNL     1      33.158 -19.667 -21.780  0.00  0.00    -0.506 OA
ATOM     34  H   UNL     1      32.442 -20.081 -21.342  0.00  0.00    +0.292 HD
ENDBRANCH  25  33
ENDBRANCH  21  24
BRANCH  21  35
ATOM     35  C   UNL     1      34.596 -18.525 -23.983  0.00  0.00    +0.009 C 
ATOM     36  C   UNL     1      34.582 -17.527 -25.136  0.00  0.00    +0.001 C 
ENDBRANCH  21  35
ENDBRANCH   1  21
TORSDOF 9
ENDMDL
MODEL 2
REMARK VINA RESULT:     -11.3      4.590     11.610
REMARK  Name = 54689025
REMARK  9 active torsions:
REMARK  status: ('A' for Active; 'I' for Inactive)
REMARK    1  A    between atoms: C_1  and  C_21
REMARK    2  A    between atoms: C_4  and  N_8
REMARK    3  A    between atoms: C_9  and  C_11
REMARK    4  A    between atoms: C_11  and  N_13
REMARK    5  A    between atoms: C_14  and  O_16
REMARK    6  A    between atoms: O_16  and  C_17
REMARK    7  A    between atoms: C_21  and  C_24
REMARK    8  A    between atoms: C_21  and  C_35
REMARK    9  A    between atoms: C_25  and  O_33
REMARK                            x       y       z     vdW  Elec       q    Type
REMARK                         _______ _______ _______ _____ _____    ______ ____
ROOT
ATOM      1  C   UNL     1      34.815 -20.441 -20.875  0.00  0.00    -0.017 C 
ATOM      2  C   UNL     1      35.180 -21.235 -19.788  0.00  0.00    +0.011 C 
ATOM      3  C   UNL     1      33.467 -20.239 -21.170  0.00  0.00    -0.004 C 
ATOM      4  C   UNL     1      34.197 -21.828 -18.996  0.00  0.00    +0.050 C 
ATOM      5  C   UNL     1      32.484 -20.833 -20.379  0.00  0.00    +0.001 C 
ATOM      6  C   UNL     1      32.849 -21.627 -19.292  0.00  0.00    +0.015 C 
ENDROOT
BRANCH   4   8
ATOM      7  O   UNL     1      36.592 -21.677 -17.189  0.00  0.00    -0.273 OA
ATOM      8  N   UNL     1      34.561 -22.624 -17.909  0.00  0.00    -0.283 N 
ATOM      9  C   UNL     1      35.698 -22.512 -17.092  0.00  0.00    +0.246 C 
ATOM     10  H   UNL     1      33.942 -23.356 -17.686  0.00  0.00    +0.155 HD
BRANCH   9  11
ATOM     11  C   UNL     1      35.704 -23.586 -16.020  0.00  0.00    +0.179 C 
BRANCH  11  13
ATOM     12  O   UNL     1      37.561 -23.040 -13.853  0.00  0.00    -0.226 OA
ATOM     13  N   UNL     1      37.027 -24.109 -15.844  0.00  0.00    -0.262 N 
ATOM     14  C   UNL     1      37.851 -23.796 -14.776  0.00  0.00    +0.402 C 
ATOM     15  H   UNL     1      37.372 -24.730 -16.526  0.00  0.00    +0.153 HD
BRANCH  14  16
ATOM     16  O   UNL     1      39.044 -24.453 -14.895  0.00  0.00    -0.442 OA
BRANCH  16  17
ATOM     17  C   UNL     1      39.127 -25.718 -14.230  0.00  0.00    +0.138 C 
ATOM     18  C   UNL     1      38.782 -25.517 -12.755  0.00  0.00    +0.044 C 
ATOM     19  C   UNL     1      40.561 -26.223 -14.382  0.00  0.00    +0.044 C 
ATOM     20  C   UNL     1      38.144 -26.682 -14.893  0.00  0.00    +0.044 C 
ENDBRANCH  16  17
ENDBRANCH  14  16
ENDBRANCH  11  13
ENDBRANCH   9  11
ENDBRANCH   4   8
BRANCH   1  21
ATOM     21  C   UNL     1      35.886 -19.795 -21.736  0.00  0.00    +0.054 C 
BRANCH  21  24
ATOM     22  O   UNL     1      34.527 -17.539 -24.455  0.00  0.00    -0.421 OA
ATOM     23  O   UNL     1      35.091 -19.741 -24.395  0.00  0.00    -0.245 OA
ATOM     24  C   UNL     1      35.376 -18.527 -22.367  0.00  0.00    +0.091 A 
ATOM     25  C   UNL     1      35.253 -17.338 -21.747  0.00  0.00    +0.139 A 
ATOM     26  C   UNL     1      34.997 -18.671 -23.802  0.00  0.00    +0.345 A 
ATOM     27  C   UNL     1      34.754 -16.164 -22.465  0.00  0.00    +0.068 A 
ATOM     28  C   UNL     1      34.404 -16.300 -23.804  0.00  0.00    +0.152 A 
ATOM     29  C   UNL     1      34.607 -14.900 -21.875  0.00  0.00    +0.006 C 
ATOM     30  C   UNL     1      33.921 -15.230 -24.560  0.00  0.00    +0.038 C 
ATOM     31  C   UNL     1      34.123 -13.818 -22.619  0.00  0.00    +0.000 C 
ATOM     32  C   UNL     1      33.782 -13.983 -23.960  0.00  0.00    +0.003 C 
BRANCH  25  33
ATOM     33  O   UNL     1      35.570 -17.108 -20.424  0.00  0.00    -0.506 OA
ATOM     34  H   UNL     1      36.398 -16.735 -20.199  0.00  0.00    +0.292 HD
ENDBRANCH  25  33
ENDBRANCH  21  24
BRANCH  21  35
ATOM     35  C   UNL     1      37.202 -19.514 -20.982  0.00  0.00    +0.009 C 
ATOM     36  C   UNL     1      38.280 -18.908 -21.874  0.00  0.00    +0.001 C 
ENDBRANCH  21  35
ENDBRANCH   1  21
TORSDOF 9
ENDMDL
MODEL 3
REMARK VINA RESULT:     -11.1      4.623     11.000
REMARK  Name = 54689025
REMARK  9 active torsions:
REMARK  status: ('A' for Active; 'I' for Inactive)
REMARK    1  A    between atoms: C_1  and  C_21
REMARK    2  A    between atoms: C_4  and  N_8
REMARK    3  A    between atoms: C_9  and  C_11
REMARK    4  A    between atoms: C_11  and  N_13
REMARK    5  A    between atoms: C_14  and  O_16
REMARK    6  A    between atoms: O_16  and  C_17
REMARK    7  A    between atoms: C_21  and  C_24
REMARK    8  A    between atoms: C_21  and  C_35
REMARK    9  A    between atoms: C_25  and  O_33
REMARK                            x       y       z     vdW  Elec       q    Type
REMARK                         _______ _______ _______ _____ _____    ______ ____
ROOT
ATOM      1  C   UNL     1      35.008 -20.490 -20.826  0.00  0.00    -0.017 C 
ATOM      2  C   UNL     1      35.439 -21.287 -19.766  0.00  0.00    +0.011 C 
ATOM      3  C   UNL     1      33.643 -20.320 -21.060  0.00  0.00    -0.004 C 
ATOM      4  C   UNL     1      34.507 -21.914 -18.939  0.00  0.00    +0.050 C 
ATOM      5  C   UNL     1      32.711 -20.948 -20.234  0.00  0.00    +0.001 C 
ATOM      6  C   UNL     1      33.143 -21.744 -19.174  0.00  0.00    +0.015 C 
ENDROOT
BRANCH   4   8
ATOM      7  O   UNL     1      36.739 -21.497 -16.971  0.00  0.00    -0.273 OA
ATOM      8  N   UNL     1      34.939 -22.712 -17.879  0.00  0.00    -0.283 N 
ATOM      9  C   UNL     1      35.993 -22.472 -16.984  0.00  0.00    +0.246 C 
ATOM     10  H   UNL     1      34.439 -23.550 -17.741  0.00  0.00    +0.155 HD
BRANCH   9  11
ATOM     11  C   UNL     1      36.119 -23.602 -15.978  0.00  0.00    +0.179 C 
BRANCH  11  13
ATOM     12  O   UNL     1      34.706 -24.026 -13.475  0.00  0.00    -0.226 OA
ATOM     13  N   UNL     1      34.851 -24.241 -15.783  0.00  0.00    -0.262 N 
ATOM     14  C   UNL     1      34.244 -24.403 -14.548  0.00  0.00    +0.402 C 
ATOM     15  H   UNL     1      34.381 -24.586 -16.576  0.00  0.00    +0.153 HD
BRANCH  14  16
ATOM     16  O   UNL     1      33.048 -25.047 -14.694  0.00  0.00    -0.442 OA
BRANCH  16  17
ATOM     17  C   UNL     1      31.889 -24.207 -14.738  0.00  0.00    +0.138 C 
ATOM     18  C   UNL     1      31.944 -23.240 -13.556  0.00  0.00    +0.044 C 
ATOM     19  C   UNL     1      30.662 -25.112 -14.635  0.00  0.00    +0.044 C 
ATOM     20  C   UNL     1      31.888 -23.448 -16.064  0.00  0.00    +0.044 C 
ENDBRANCH  16  17
ENDBRANCH  14  16
ENDBRANCH  11  13
ENDBRANCH   9  11
ENDBRANCH   4   8
BRANCH   1  21
ATOM     21  C   UNL     1      36.023 -19.808 -21.725  0.00  0.00    +0.054 C 
BRANCH  21  24
ATOM     22  O   UNL     1      34.478 -17.560 -24.351  0.00  0.00    -0.421 OA
ATOM     23  O   UNL     1      35.092 -19.751 -24.339  0.00  0.00    -0.245 OA
ATOM     24  C   UNL     1      35.454 -18.547 -22.318  0.00  0.00    +0.091 A 
ATOM     25  C   UNL     1      35.338 -17.365 -21.682  0.00  0.00    +0.139 A 
ATOM     26  C   UNL     1      35.005 -18.687 -23.733  0.00  0.00    +0.345 A 
ATOM     27  C   UNL     1      34.777 -16.197 -22.362  0.00  0.00    +0.068 A 
ATOM     28  C   UNL     1      34.362 -16.330 -23.683  0.00  0.00    +0.152 A 
ATOM     29  C   UNL     1      34.633 -14.941 -21.754  0.00  0.00    +0.006 C 
ATOM     30  C   UNL     1      33.818 -15.265 -24.404  0.00  0.00    +0.038 C 
ATOM     31  C   UNL     1      34.089 -13.864 -22.463  0.00  0.00    +0.000 C 
ATOM     32  C   UNL     1      33.683 -14.026 -23.786  0.00  0.00    +0.003 C 
BRANCH  25  33
ATOM     33  O   UNL     1      35.716 -17.139 -20.375  0.00  0.00    -0.506 OA
ATOM     34  H   UNL     1      36.622 -17.171 -20.137  0.00  0.00    +0.292 HD
ENDBRANCH  25  33
ENDBRANCH  21  24
BRANCH  21  35
ATOM     35  C   UNL     1      37.363 -19.502 -21.026  0.00  0.00    +0.009 C 
ATOM     36  C   UNL     1      38.392 -18.877 -21.962  0.00  0.00    +0.001 C 
ENDBRANCH  21  35
ENDBRANCH   1  21
TORSDOF 9
ENDMDL
MODEL 4
REMARK VINA RESULT:     -11.1      3.709      6.159
REMARK  Name = 54689025
REMARK  9 active torsions:
REMARK  status: ('A' for Active; 'I' for Inactive)
REMARK    1  A    between atoms: C_1  and  C_21
REMARK    2  A    between atoms: C_4  and  N_8
REMARK    3  A    between atoms: C_9  and  C_11
REMARK    4  A    between atoms: C_11  and  N_13
REMARK    5  A    between atoms: C_14  and  O_16
REMARK    6  A    between atoms: O_16  and  C_17
REMARK    7  A    between atoms: C_21  and  C_24
REMARK    8  A    between atoms: C_21  and  C_35
REMARK    9  A    between atoms: C_25  and  O_33
REMARK                            x       y       z     vdW  Elec       q    Type
REMARK                         _______ _______ _______ _____ _____    ______ ____
ROOT
ATOM      1  C   UNL     1      33.091 -11.930 -23.142  0.00  0.00    -0.017 C 
ATOM      2  C   UNL     1      32.860 -10.578 -22.895  0.00  0.00    +0.011 C 
ATOM      3  C   UNL     1      32.395 -12.901 -22.420  0.00  0.00    -0.004 C 
ATOM      4  C   UNL     1      31.932 -10.194 -21.927  0.00  0.00    +0.050 C 
ATOM      5  C   UNL     1      31.468 -12.517 -21.451  0.00  0.00    +0.001 C 
ATOM      6  C   UNL     1      31.236 -11.165 -21.205  0.00  0.00    +0.015 C 
ENDROOT
BRANCH   4   8
ATOM      7  O   UNL     1      32.840  -8.448 -19.657  0.00  0.00    -0.273 OA
ATOM      8  N   UNL     1      31.700  -8.841 -21.678  0.00  0.00    -0.283 N 
ATOM      9  C   UNL     1      32.149  -8.067 -20.596  0.00  0.00    +0.246 C 
ATOM     10  H   UNL     1      31.153  -8.368 -22.347  0.00  0.00    +0.155 HD
BRANCH   9  11
ATOM     11  C   UNL     1      31.667  -6.632 -20.718  0.00  0.00    +0.179 C 
BRANCH  11  13
ATOM     12  O   UNL     1      30.508  -4.751 -22.604  0.00  0.00    -0.226 OA
ATOM     13  N   UNL     1      32.315  -5.979 -21.818  0.00  0.00    -0.262 N 
ATOM     14  C   UNL     1      31.685  -5.091 -22.674  0.00  0.00    +0.402 C 
ATOM     15  H   UNL     1      33.267  -6.175 -21.975  0.00  0.00    +0.153 HD
BRANCH  14  16
ATOM     16  O   UNL     1      32.568  -4.642 -23.616  0.00  0.00    -0.442 OA
BRANCH  16  17
ATOM     17  C   UNL     1      32.836  -5.541 -24.697  0.00  0.00    +0.138 C 
ATOM     18  C   UNL     1      34.211  -6.171 -24.476  0.00  0.00    +0.044 C 
ATOM     19  C   UNL     1      32.821  -4.724 -25.988  0.00  0.00    +0.044 C 
ATOM     20  C   UNL     1      31.744  -6.609 -24.724  0.00  0.00    +0.044 C 
ENDBRANCH  16  17
ENDBRANCH  14  16
ENDBRANCH  11  13
ENDBRANCH   9  11
ENDBRANCH   4   8
BRANCH   1  21
ATOM     21  C   UNL     1      34.101 -12.347 -24.196  0.00  0.00    +0.054 C 
BRANCH  21  24
ATOM     22  O   UNL     1      33.042 -15.467 -26.062  0.00  0.00    -0.421 OA
ATOM     23  O   UNL     1      32.702 -13.246 -26.418  0.00  0.00    -0.245 OA
ATOM     24  C   UNL     1      33.987 -13.817 -24.498  0.00  0.00    +0.091 A 
ATOM     25  C   UNL     1      34.523 -14.812 -23.764  0.00  0.00    +0.139 A 
ATOM     26  C   UNL     1      33.198 -14.129 -25.725  0.00  0.00    +0.345 A 
ATOM     27  C   UNL     1      34.340 -16.213 -24.148  0.00  0.00    +0.068 A 
ATOM     28  C   UNL     1      33.600 -16.500 -25.290  0.00  0.00    +0.152 A 
ATOM     29  C   UNL     1      34.870 -17.290 -23.423  0.00  0.00    +0.006 C 
ATOM     30  C   UNL     1      33.377 -17.808 -25.725  0.00  0.00    +0.038 C 
ATOM     31  C   UNL     1      34.657 -18.607 -23.845  0.00  0.00    +0.000 C 
ATOM     32  C   UNL     1      33.910 -18.865 -24.994  0.00  0.00    +0.003 C 
BRANCH  25  33
ATOM     33  O   UNL     1      35.273 -14.625 -22.622  0.00  0.00    -0.506 OA
ATOM     34  H   UNL     1      35.443 -13.759 -22.309  0.00  0.00    +0.292 HD
ENDBRANCH  25  33
ENDBRANCH  21  24
BRANCH  21  35
ATOM     35  C   UNL     1      34.003 -11.534 -25.504  0.00  0.00    +0.009 C 
ATOM     36  C   UNL     1      35.239 -10.682 -25.767  0.00  0.00    +0.001 C 
ENDBRANCH  21  35
ENDBRANCH   1  21
TORSDOF 9
ENDMDL
MODEL 5
REMARK VINA RESULT:     -10.5      4.729     11.447
REMARK  Name = 54689025
REMARK  9 active torsions:
REMARK  status: ('A' for Active; 'I' for Inactive)
REMARK    1  A    between atoms: C_1  and  C_21
REMARK    2  A    between atoms: C_4  and  N_8
REMARK    3  A    between atoms: C_9  and  C_11
REMARK    4  A    between atoms: C_11  and  N_13
REMARK    5  A    between atoms: C_14  and  O_16
REMARK    6  A    between atoms: O_16  and  C_17
REMARK    7  A    between atoms: C_21  and  C_24
REMARK    8  A    between atoms: C_21  and  C_35
REMARK    9  A    between atoms: C_25  and  O_33
REMARK                            x       y       z     vdW  Elec       q    Type
REMARK                         _______ _______ _______ _____ _____    ______ ____
ROOT
ATOM      1  C   UNL     1      34.885 -20.410 -20.906  0.00  0.00    -0.017 C 
ATOM      2  C   UNL     1      35.259 -21.354 -19.950  0.00  0.00    +0.011 C 
ATOM      3  C   UNL     1      33.538 -20.091 -21.083  0.00  0.00    -0.004 C 
ATOM      4  C   UNL     1      34.287 -21.978 -19.169  0.00  0.00    +0.050 C 
ATOM      5  C   UNL     1      32.566 -20.717 -20.302  0.00  0.00    +0.001 C 
ATOM      6  C   UNL     1      32.941 -21.660 -19.345  0.00  0.00    +0.015 C 
ENDROOT
BRANCH   4   8
ATOM      7  O   UNL     1      32.827 -22.971 -16.738  0.00  0.00    -0.273 OA
ATOM      8  N   UNL     1      34.661 -22.923 -18.213  0.00  0.00    -0.283 N 
ATOM      9  C   UNL     1      33.939 -23.354 -17.088  0.00  0.00    +0.246 C 
ATOM     10  H   UNL     1      35.543 -23.342 -18.344  0.00  0.00    +0.155 HD
BRANCH   9  11
ATOM     11  C   UNL     1      34.717 -24.401 -16.312  0.00  0.00    +0.179 C 
BRANCH  11  13
ATOM     12  O   UNL     1      34.058 -24.603 -13.490  0.00  0.00    -0.226 OA
ATOM     13  N   UNL     1      35.400 -23.797 -15.205  0.00  0.00    -0.262 N 
ATOM     14  C   UNL     1      35.017 -23.945 -13.882  0.00  0.00    +0.402 C 
ATOM     15  H   UNL     1      36.190 -23.242 -15.397  0.00  0.00    +0.153 HD
BRANCH  14  16
ATOM     16  O   UNL     1      35.866 -23.250 -13.067  0.00  0.00    -0.442 OA
BRANCH  16  17
ATOM     17  C   UNL     1      36.696 -24.042 -12.210  0.00  0.00    +0.138 C 
ATOM     18  C   UNL     1      35.875 -24.461 -10.991  0.00  0.00    +0.044 C 
ATOM     19  C   UNL     1      37.880 -23.174 -11.788  0.00  0.00    +0.044 C 
ATOM     20  C   UNL     1      37.176 -25.264 -12.991  0.00  0.00    +0.044 C 
ENDBRANCH  16  17
ENDBRANCH  14  16
ENDBRANCH  11  13
ENDBRANCH   9  11
ENDBRANCH   4   8
BRANCH   1  21
ATOM     21  C   UNL     1      35.943 -19.729 -21.756  0.00  0.00    +0.054 C 
BRANCH  21  24
ATOM     22  O   UNL     1      34.884 -16.105 -22.031  0.00  0.00    -0.421 OA
ATOM     23  O   UNL     1      35.800 -17.339 -20.354  0.00  0.00    -0.245 OA
ATOM     24  C   UNL     1      35.396 -18.485 -22.401  0.00  0.00    +0.091 A 
ATOM     25  C   UNL     1      34.939 -18.392 -23.665  0.00  0.00    +0.139 A 
ATOM     26  C   UNL     1      35.385 -17.290 -21.508  0.00  0.00    +0.345 A 
ATOM     27  C   UNL     1      34.417 -17.127 -24.186  0.00  0.00    +0.068 A 
ATOM     28  C   UNL     1      34.405 -16.016 -23.349  0.00  0.00    +0.152 A 
ATOM     29  C   UNL     1      33.925 -16.971 -25.489  0.00  0.00    +0.006 C 
ATOM     30  C   UNL     1      33.924 -14.774 -23.767  0.00  0.00    +0.038 C 
ATOM     31  C   UNL     1      33.440 -15.732 -25.924  0.00  0.00    +0.000 C 
ATOM     32  C   UNL     1      33.439 -14.636 -25.063  0.00  0.00    +0.003 C 
BRANCH  25  33
ATOM     33  O   UNL     1      34.915 -19.435 -24.566  0.00  0.00    -0.506 OA
ATOM     34  H   UNL     1      34.760 -19.266 -25.475  0.00  0.00    +0.292 HD
ENDBRANCH  25  33
ENDBRANCH  21  24
BRANCH  21  35
ATOM     35  C   UNL     1      37.237 -19.395 -20.985  0.00  0.00    +0.009 C 
ATOM     36  C   UNL     1      38.361 -18.907 -21.892  0.00  0.00    +0.001 C 
ENDBRANCH  21  35
ENDBRANCH   1  21
TORSDOF 9
ENDMDL
MODEL 6
REMARK VINA RESULT:     -10.2      1.080      2.132
REMARK  Name = 54689025
REMARK  9 active torsions:
REMARK  status: ('A' for Active; 'I' for Inactive)
REMARK    1  A    between atoms: C_1  and  C_21
REMARK    2  A    between atoms: C_4  and  N_8
REMARK    3  A    between atoms: C_9  and  C_11
REMARK    4  A    between atoms: C_11  and  N_13
REMARK    5  A    between atoms: C_14  and  O_16
REMARK    6  A    between atoms: O_16  and  C_17
REMARK    7  A    between atoms: C_21  and  C_24
REMARK    8  A    between atoms: C_21  and  C_35
REMARK    9  A    between atoms: C_25  and  O_33
REMARK                            x       y       z     vdW  Elec       q    Type
REMARK                         _______ _______ _______ _____ _____    ______ ____
ROOT
ATOM      1  C   UNL     1      35.076 -17.308 -22.137  0.00  0.00    -0.017 C 
ATOM      2  C   UNL     1      34.924 -16.266 -23.052  0.00  0.00    +0.011 C 
ATOM      3  C   UNL     1      35.060 -17.042 -20.768  0.00  0.00    -0.004 C 
ATOM      4  C   UNL     1      34.755 -14.958 -22.598  0.00  0.00    +0.050 C 
ATOM      5  C   UNL     1      34.893 -15.734 -20.314  0.00  0.00    +0.001 C 
ATOM      6  C   UNL     1      34.740 -14.692 -21.228  0.00  0.00    +0.015 C 
ENDROOT
BRANCH   4   8
ATOM      7  O   UNL     1      32.590 -12.892 -22.854  0.00  0.00    -0.273 OA
ATOM      8  N   UNL     1      34.604 -13.915 -23.513  0.00  0.00    -0.283 N 
ATOM      9  C   UNL     1      33.567 -12.972 -23.591  0.00  0.00    +0.246 C 
ATOM     10  H   UNL     1      35.316 -13.830 -24.188  0.00  0.00    +0.155 HD
BRANCH   9  11
ATOM     11  C   UNL     1      33.796 -12.008 -24.741  0.00  0.00    +0.179 C 
BRANCH  11  13
ATOM     12  O   UNL     1      35.002  -9.569 -23.722  0.00  0.00    -0.226 OA
ATOM     13  N   UNL     1      33.153 -10.754 -24.477  0.00  0.00    -0.262 N 
ATOM     14  C   UNL     1      33.806  -9.634 -23.988  0.00  0.00    +0.402 C 
ATOM     15  H   UNL     1      32.187 -10.684 -24.653  0.00  0.00    +0.153 HD
BRANCH  14  16
ATOM     16  O   UNL     1      32.922  -8.601 -23.844  0.00  0.00    -0.442 OA
BRANCH  16  17
ATOM     17  C   UNL     1      32.520  -8.308 -22.502  0.00  0.00    +0.138 C 
ATOM     18  C   UNL     1      32.145  -9.617 -21.809  0.00  0.00    +0.044 C 
ATOM     19  C   UNL     1      31.312  -7.375 -22.578  0.00  0.00    +0.044 C 
ATOM     20  C   UNL     1      33.682  -7.624 -21.784  0.00  0.00    +0.044 C 
ENDBRANCH  16  17
ENDBRANCH  14  16
ENDBRANCH  11  13
ENDBRANCH   9  11
ENDBRANCH   4   8
BRANCH   1  21
ATOM     21  C   UNL     1      35.258 -18.732 -22.631  0.00  0.00    +0.054 C 
BRANCH  21  24
ATOM     22  O   UNL     1      33.292 -21.079 -20.405  0.00  0.00    -0.421 OA
ATOM     23  O   UNL     1      32.724 -19.768 -22.174  0.00  0.00    -0.245 OA
ATOM     24  C   UNL     1      35.014 -19.721 -21.524  0.00  0.00    +0.091 A 
ATOM     25  C   UNL     1      35.946 -20.192 -20.674  0.00  0.00    +0.139 A 
ATOM     26  C   UNL     1      33.596 -20.173 -21.412  0.00  0.00    +0.345 A 
ATOM     27  C   UNL     1      35.592 -21.148 -19.623  0.00  0.00    +0.068 A 
ATOM     28  C   UNL     1      34.269 -21.565 -19.519  0.00  0.00    +0.152 A 
ATOM     29  C   UNL     1      36.517 -21.671 -18.708  0.00  0.00    +0.006 C 
ATOM     30  C   UNL     1      33.848 -22.473 -18.546  0.00  0.00    +0.038 C 
ATOM     31  C   UNL     1      36.111 -22.583 -17.727  0.00  0.00    +0.000 C 
ATOM     32  C   UNL     1      34.778 -22.981 -17.645  0.00  0.00    +0.003 C 
BRANCH  25  33
ATOM     33  O   UNL     1      37.280 -19.842 -20.702  0.00  0.00    -0.506 OA
ATOM     34  H   UNL     1      37.802 -20.044 -21.454  0.00  0.00    +0.292 HD
ENDBRANCH  25  33
ENDBRANCH  21  24
BRANCH  21  35
ATOM     35  C   UNL     1      34.379 -19.081 -23.850  0.00  0.00    +0.009 C 
ATOM     36  C   UNL     1      35.009 -20.137 -24.753  0.00  0.00    +0.001 C 
ENDBRANCH  21  35
ENDBRANCH   1  21
TORSDOF 9
ENDMDL
MODEL 7
REMARK VINA RESULT:     -10.1      2.388     11.494
REMARK  Name = 54689025
REMARK  9 active torsions:
REMARK  status: ('A' for Active; 'I' for Inactive)
REMARK    1  A    between atoms: C_1  and  C_21
REMARK    2  A    between atoms: C_4  and  N_8
REMARK    3  A    between atoms: C_9  and  C_11
REMARK    4  A    between atoms: C_11  and  N_13
REMARK    5  A    between atoms: C_14  and  O_16
REMARK    6  A    between atoms: O_16  and  C_17
REMARK    7  A    between atoms: C_21  and  C_24
REMARK    8  A    between atoms: C_21  and  C_35
REMARK    9  A    between atoms: C_25  and  O_33
REMARK                            x       y       z     vdW  Elec       q    Type
REMARK                         _______ _______ _______ _____ _____    ______ ____
ROOT
ATOM      1  C   UNL     1      33.196 -10.041 -23.036  0.00  0.00    -0.017 C 
ATOM      2  C   UNL     1      33.194 -11.414 -23.282  0.00  0.00    +0.011 C 
ATOM      3  C   UNL     1      34.049  -9.205 -23.755  0.00  0.00    -0.004 C 
ATOM      4  C   UNL     1      34.045 -11.951 -24.248  0.00  0.00    +0.050 C 
ATOM      5  C   UNL     1      34.901  -9.741 -24.721  0.00  0.00    +0.001 C 
ATOM      6  C   UNL     1      34.899 -11.114 -24.968  0.00  0.00    +0.015 C 
ENDROOT
BRANCH   4   8
ATOM      7  O   UNL     1      34.457 -14.265 -22.377  0.00  0.00    -0.273 OA
ATOM      8  N   UNL     1      34.044 -13.324 -24.495  0.00  0.00    -0.283 N 
ATOM      9  C   UNL     1      34.243 -14.371 -23.580  0.00  0.00    +0.246 C 
ATOM     10  H   UNL     1      33.882 -13.593 -25.428  0.00  0.00    +0.155 HD
BRANCH   9  11
ATOM     11  C   UNL     1      34.160 -15.720 -24.272  0.00  0.00    +0.179 C 
BRANCH  11  13
ATOM     12  O   UNL     1      34.017 -18.621 -24.273  0.00  0.00    -0.226 OA
ATOM     13  N   UNL     1      35.079 -16.645 -23.676  0.00  0.00    -0.262 N 
ATOM     14  C   UNL     1      34.935 -18.022 -23.723  0.00  0.00    +0.402 C 
ATOM     15  H   UNL     1      35.861 -16.279 -23.203  0.00  0.00    +0.153 HD
BRANCH  14  16
ATOM     16  O   UNL     1      35.970 -18.624 -23.065  0.00  0.00    -0.442 OA
BRANCH  16  17
ATOM     17  C   UNL     1      35.791 -18.808 -21.656  0.00  0.00    +0.138 C 
ATOM     18  C   UNL     1      35.390 -17.469 -21.038  0.00  0.00    +0.044 C 
ATOM     19  C   UNL     1      37.123 -19.288 -21.082  0.00  0.00    +0.044 C 
ATOM     20  C   UNL     1      34.701 -19.856 -21.437  0.00  0.00    +0.044 C 
ENDBRANCH  16  17
ENDBRANCH  14  16
ENDBRANCH  11  13
ENDBRANCH   9  11
ENDBRANCH   4   8
BRANCH   1  21
ATOM     21  C   UNL     1      32.269  -9.458 -21.985  0.00  0.00    +0.054 C 
BRANCH  21  24
ATOM     22  O   UNL     1      32.395  -5.776 -21.110  0.00  0.00    -0.421 OA
ATOM     23  O   UNL     1      32.984  -7.666 -19.989  0.00  0.00    -0.245 OA
ATOM     24  C   UNL     1      32.102  -7.975 -22.179  0.00  0.00    +0.091 A 
ATOM     25  C   UNL     1      31.615  -7.379 -23.284  0.00  0.00    +0.139 A 
ATOM     26  C   UNL     1      32.529  -7.155 -21.008  0.00  0.00    +0.345 A 
ATOM     27  C   UNL     1      31.486  -5.922 -23.359  0.00  0.00    +0.068 A 
ATOM     28  C   UNL     1      31.882  -5.161 -22.264  0.00  0.00    +0.152 A 
ATOM     29  C   UNL     1      30.983  -5.245 -24.479  0.00  0.00    +0.006 C 
ATOM     30  C   UNL     1      31.792  -3.768 -22.253  0.00  0.00    +0.038 C 
ATOM     31  C   UNL     1      30.887  -3.849 -24.485  0.00  0.00    +0.000 C 
ATOM     32  C   UNL     1      31.290  -3.112 -23.373  0.00  0.00    +0.003 C 
BRANCH  25  33
ATOM     33  O   UNL     1      31.202  -8.048 -24.417  0.00  0.00    -0.506 OA
ATOM     34  H   UNL     1      31.833  -8.342 -25.044  0.00  0.00    +0.292 HD
ENDBRANCH  25  33
ENDBRANCH  21  24
BRANCH  21  35
ATOM     35  C   UNL     1      30.886 -10.139 -21.932  0.00  0.00    +0.009 C 
ATOM     36  C   UNL     1      30.721 -11.055 -20.724  0.00  0.00    +0.001 C 
ENDBRANCH  21  35
ENDBRANCH   1  21
TORSDOF 9
ENDMDL
MODEL 8
REMARK VINA RESULT:      -9.8      2.203     10.467
REMARK  Name = 54689025
REMARK  9 active torsions:
REMARK  status: ('A' for Active; 'I' for Inactive)
REMARK    1  A    between atoms: C_1  and  C_21
REMARK    2  A    between atoms: C_4  and  N_8
REMARK    3  A    between atoms: C_9  and  C_11
REMARK    4  A    between atoms: C_11  and  N_13
REMARK    5  A    between atoms: C_14  and  O_16
REMARK    6  A    between atoms: O_16  and  C_17
REMARK    7  A    between atoms: C_21  and  C_24
REMARK    8  A    between atoms: C_21  and  C_35
REMARK    9  A    between atoms: C_25  and  O_33
REMARK                            x       y       z     vdW  Elec       q    Type
REMARK                         _______ _______ _______ _____ _____    ______ ____
ROOT
ATOM      1  C   UNL     1      33.241 -12.614 -24.119  0.00  0.00    -0.017 C 
ATOM      2  C   UNL     1      33.122 -14.003 -24.110  0.00  0.00    +0.011 C 
ATOM      3  C   UNL     1      33.363 -11.932 -25.330  0.00  0.00    -0.004 C 
ATOM      4  C   UNL     1      33.123 -14.711 -25.312  0.00  0.00    +0.050 C 
ATOM      5  C   UNL     1      33.366 -12.640 -26.532  0.00  0.00    +0.001 C 
ATOM      6  C   UNL     1      33.245 -14.029 -26.523  0.00  0.00    +0.015 C 
ENDROOT
BRANCH   4   8
ATOM      7  O   UNL     1      35.088 -16.838 -26.111  0.00  0.00    -0.273 OA
ATOM      8  N   UNL     1      33.004 -16.102 -25.304  0.00  0.00    -0.283 N 
ATOM      9  C   UNL     1      33.957 -17.057 -25.690  0.00  0.00    +0.246 C 
ATOM     10  H   UNL     1      32.142 -16.457 -24.986  0.00  0.00    +0.155 HD
BRANCH   9  11
ATOM     11  C   UNL     1      33.414 -18.465 -25.520  0.00  0.00    +0.179 C 
BRANCH  11  13
ATOM     12  O   UNL     1      34.706 -17.461 -23.119  0.00  0.00    -0.226 OA
ATOM     13  N   UNL     1      34.210 -19.197 -24.580  0.00  0.00    -0.262 N 
ATOM     14  C   UNL     1      34.793 -18.639 -23.454  0.00  0.00    +0.402 C 
ATOM     15  H   UNL     1      34.352 -20.158 -24.744  0.00  0.00    +0.153 HD
BRANCH  14  16
ATOM     16  O   UNL     1      35.486 -19.592 -22.762  0.00  0.00    -0.442 OA
BRANCH  16  17
ATOM     17  C   UNL     1      35.343 -19.556 -21.338  0.00  0.00    +0.138 C 
ATOM     18  C   UNL     1      33.930 -20.012 -20.978  0.00  0.00    +0.044 C 
ATOM     19  C   UNL     1      35.572 -18.113 -20.891  0.00  0.00    +0.044 C 
ATOM     20  C   UNL     1      36.390 -20.482 -20.720  0.00  0.00    +0.044 C 
ENDBRANCH  16  17
ENDBRANCH  14  16
ENDBRANCH  11  13
ENDBRANCH   9  11
ENDBRANCH   4   8
BRANCH   1  21
ATOM     21  C   UNL     1      33.239 -11.843 -22.811  0.00  0.00    +0.054 C 
BRANCH  21  24
ATOM     22  O   UNL     1      31.425  -8.522 -22.909  0.00  0.00    -0.421 OA
ATOM     23  O   UNL     1      30.818 -10.611 -22.245  0.00  0.00    -0.245 OA
ATOM     24  C   UNL     1      33.044 -10.371 -23.054  0.00  0.00    +0.091 A 
ATOM     25  C   UNL     1      33.972  -9.528 -23.547  0.00  0.00    +0.139 A 
ATOM     26  C   UNL     1      31.684  -9.871 -22.702  0.00  0.00    +0.345 A 
ATOM     27  C   UNL     1      33.667  -8.111 -23.753  0.00  0.00    +0.068 A 
ATOM     28  C   UNL     1      32.396  -7.648 -23.426  0.00  0.00    +0.152 A 
ATOM     29  C   UNL     1      34.589  -7.187 -24.264  0.00  0.00    +0.006 C 
ATOM     30  C   UNL     1      32.024  -6.313 -23.593  0.00  0.00    +0.038 C 
ATOM     31  C   UNL     1      34.232  -5.845 -24.437  0.00  0.00    +0.000 C 
ATOM     32  C   UNL     1      32.951  -5.409 -24.102  0.00  0.00    +0.003 C 
BRANCH  25  33
ATOM     33  O   UNL     1      35.255  -9.893 -23.894  0.00  0.00    -0.506 OA
ATOM     34  H   UNL     1      35.825 -10.270 -23.253  0.00  0.00    +0.292 HD
ENDBRANCH  25  33
ENDBRANCH  21  24
BRANCH  21  35
ATOM     35  C   UNL     1      32.195 -12.351 -21.795  0.00  0.00    +0.009 C 
ATOM     36  C   UNL     1      32.706 -13.510 -20.946  0.00  0.00    +0.001 C 
ENDBRANCH  21  35
ENDBRANCH   1  21
TORSDOF 9
ENDMDL
MODEL 9
REMARK VINA RESULT:      -9.6      2.261     10.782
REMARK  Name = 54689025
REMARK  9 active torsions:
REMARK  status: ('A' for Active; 'I' for Inactive)
REMARK    1  A    between atoms: C_1  and  C_21
REMARK    2  A    between atoms: C_4  and  N_8
REMARK    3  A    between atoms: C_9  and  C_11
REMARK    4  A    between atoms: C_11  and  N_13
REMARK    5  A    between atoms: C_14  and  O_16
REMARK    6  A    between atoms: O_16  and  C_17
REMARK    7  A    between atoms: C_21  and  C_24
REMARK    8  A    between atoms: C_21  and  C_35
REMARK    9  A    between atoms: C_25  and  O_33
REMARK                            x       y       z     vdW  Elec       q    Type
REMARK                         _______ _______ _______ _____ _____    ______ ____
ROOT
ATOM      1  C   UNL     1      33.215 -11.823 -24.027  0.00  0.00    -0.017 C 
ATOM      2  C   UNL     1      33.276 -13.204 -23.838  0.00  0.00    +0.011 C 
ATOM      3  C   UNL     1      33.279 -11.292 -25.316  0.00  0.00    -0.004 C 
ATOM      4  C   UNL     1      33.400 -14.054 -24.937  0.00  0.00    +0.050 C 
ATOM      5  C   UNL     1      33.405 -12.143 -26.415  0.00  0.00    +0.001 C 
ATOM      6  C   UNL     1      33.465 -13.523 -26.225  0.00  0.00    +0.015 C 
ENDROOT
BRANCH   4   8
ATOM      7  O   UNL     1      33.438 -16.293 -26.939  0.00  0.00    -0.273 OA
ATOM      8  N   UNL     1      33.463 -15.435 -24.748  0.00  0.00    -0.283 N 
ATOM      9  C   UNL     1      33.477 -16.446 -25.722  0.00  0.00    +0.246 C 
ATOM     10  H   UNL     1      33.503 -15.739 -23.812  0.00  0.00    +0.155 HD
BRANCH   9  11
ATOM     11  C   UNL     1      33.553 -17.819 -25.080  0.00  0.00    +0.179 C 
BRANCH  11  13
ATOM     12  O   UNL     1      35.003 -20.150 -24.129  0.00  0.00    -0.226 OA
ATOM     13  N   UNL     1      34.613 -17.861 -24.115  0.00  0.00    -0.262 N 
ATOM     14  C   UNL     1      35.254 -19.022 -23.716  0.00  0.00    +0.402 C 
ATOM     15  H   UNL     1      34.903 -17.011 -23.711  0.00  0.00    +0.153 HD
BRANCH  14  16
ATOM     16  O   UNL     1      36.215 -18.731 -22.788  0.00  0.00    -0.442 OA
BRANCH  16  17
ATOM     17  C   UNL     1      35.810 -18.834 -21.418  0.00  0.00    +0.138 C 
ATOM     18  C   UNL     1      35.432 -17.442 -20.917  0.00  0.00    +0.044 C 
ATOM     19  C   UNL     1      36.997 -19.386 -20.629  0.00  0.00    +0.044 C 
ATOM     20  C   UNL     1      34.619 -19.787 -21.334  0.00  0.00    +0.044 C 
ENDBRANCH  16  17
ENDBRANCH  14  16
ENDBRANCH  11  13
ENDBRANCH   9  11
ENDBRANCH   4   8
BRANCH   1  21
ATOM     21  C   UNL     1      33.078 -10.898 -22.832  0.00  0.00    +0.054 C 
BRANCH  21  24
ATOM     22  O   UNL     1      34.552  -7.649 -24.098  0.00  0.00    -0.421 OA
ATOM     23  O   UNL     1      35.430  -9.710 -23.704  0.00  0.00    -0.245 OA
ATOM     24  C   UNL     1      33.104  -9.456 -23.261  0.00  0.00    +0.091 A 
ATOM     25  C   UNL     1      32.047  -8.622 -23.272  0.00  0.00    +0.139 A 
ATOM     26  C   UNL     1      34.448  -8.974 -23.696  0.00  0.00    +0.345 A 
ATOM     27  C   UNL     1      32.191  -7.230 -23.702  0.00  0.00    +0.068 A 
ATOM     28  C   UNL     1      33.445  -6.783 -24.104  0.00  0.00    +0.152 A 
ATOM     29  C   UNL     1      31.129  -6.315 -23.732  0.00  0.00    +0.006 C 
ATOM     30  C   UNL     1      33.669  -5.471 -24.527  0.00  0.00    +0.038 C 
ATOM     31  C   UNL     1      31.336  -4.997 -24.154  0.00  0.00    +0.000 C 
ATOM     32  C   UNL     1      32.604  -4.576 -24.549  0.00  0.00    +0.003 C 
BRANCH  25  33
ATOM     33  O   UNL     1      30.768  -8.976 -22.897  0.00  0.00    -0.506 OA
ATOM     34  H   UNL     1      30.098  -9.068 -23.545  0.00  0.00    +0.292 HD
ENDBRANCH  25  33
ENDBRANCH  21  24
BRANCH  21  35
ATOM     35  C   UNL     1      31.822 -11.169 -21.979  0.00  0.00    +0.009 C 
ATOM     36  C   UNL     1      32.064 -10.978 -20.485  0.00  0.00    +0.001 C 
ENDBRANCH  21  35
ENDBRANCH   1  21
TORSDOF 9
ENDMDL
