MODEL 1
REMARK VINA RESULT:     -12.3      0.000      0.000
REMARK  Name = 25023705
REMARK  6 active torsions:
REMARK  status: ('A' for Active; 'I' for Inactive)
REMARK    1  A    between atoms: C_1  and  C_8
REMARK    2  A    between atoms: C_1  and  C_20
REMARK    3  A    between atoms: C_20  and  N_22
REMARK    4  A    between atoms: C_23  and  C_25
REMARK    5  A    between atoms: C_30  and  O_31
REMARK    6  A    between atoms: O_31  and  C_32
REMARK                            x       y       z     vdW  Elec       q    Type
REMARK                         _______ _______ _______ _____ _____    ______ ____
ROOT
ATOM      1  C   UNL     1      32.776 -24.065 -15.175  0.00  0.00    +0.066 C 
ATOM      2  C   UNL     1      32.263 -22.610 -15.048  0.00  0.00    +0.009 C 
ATOM      3  C   UNL     1      31.666 -24.974 -14.592  0.00  0.00    +0.009 C 
ENDROOT
BRANCH   1   8
ATOM      4  N   UNL     1      35.198 -24.512 -15.200  0.00  0.00    -0.347 NA
ATOM      5  N   UNL     1      37.466 -24.953 -15.354  0.00  0.00    -0.266 NA
ATOM      6  N   UNL     1      38.899 -24.868 -13.420  0.00  0.00    -0.316 NA
ATOM      7  N   UNL     1      39.763 -25.403 -15.530  0.00  0.00    -0.283 N 
ATOM      8  C   UNL     1      34.126 -24.179 -14.441  0.00  0.00    +0.122 C 
ATOM      9  C   UNL     1      34.180 -23.946 -13.084  0.00  0.00    +0.026 C 
ATOM     10  C   UNL     1      35.416 -24.062 -12.473  0.00  0.00    +0.001 C 
ATOM     11  C   UNL     1      36.399 -24.625 -14.616  0.00  0.00    +0.137 C 
ATOM     12  C   UNL     1      36.538 -24.405 -13.241  0.00  0.00    +0.199 C 
ATOM     13  C   UNL     1      37.814 -24.540 -12.699  0.00  0.00    +0.187 C 
ATOM     14  C   UNL     1      38.655 -25.057 -14.725  0.00  0.00    +0.207 C 
ATOM     15  H   UNL     1      39.642 -25.554 -16.495  0.00  0.00    +0.156 HD
ATOM     16  H   UNL     1      40.656 -25.493 -15.125  0.00  0.00    +0.156 HD
ATOM     17  N   UNL     1      38.007 -24.326 -11.311  0.00  0.00    -0.334 N 
ATOM     18  H   UNL     1      38.905 -24.421 -10.920  0.00  0.00    +0.144 HD
ATOM     19  H   UNL     1      37.243 -24.085 -10.739  0.00  0.00    +0.144 HD
ENDBRANCH   1   8
BRANCH   1  20
ATOM     20  C   UNL     1      32.937 -24.391 -16.687  0.00  0.00    +0.096 C 
BRANCH  20  22
ATOM     21  O   UNL     1      33.838 -24.506 -19.410  0.00  0.00    -0.270 OA
ATOM     22  N   UNL     1      33.459 -23.299 -17.466  0.00  0.00    -0.300 N 
ATOM     23  C   UNL     1      33.873 -23.450 -18.784  0.00  0.00    +0.246 C 
ATOM     24  H   UNL     1      33.526 -22.409 -17.049  0.00  0.00    +0.150 HD
BRANCH  23  25
ATOM     25  C   UNL     1      34.413 -22.232 -19.441  0.00  0.00    +0.054 C 
ATOM     26  C   UNL     1      35.788 -22.003 -19.463  0.00  0.00    +0.008 C 
ATOM     27  C   UNL     1      33.542 -21.317 -20.035  0.00  0.00    +0.008 C 
ATOM     28  C   UNL     1      36.293 -20.859 -20.080  0.00  0.00    +0.038 C 
ATOM     29  C   UNL     1      34.048 -20.173 -20.652  0.00  0.00    +0.038 C 
ATOM     30  C   UNL     1      35.424 -19.944 -20.673  0.00  0.00    +0.145 C 
BRANCH  30  31
ATOM     31  O   UNL     1      35.917 -18.826 -21.273  0.00  0.00    -0.453 OA
BRANCH  31  32
ATOM     32  C   UNL     1      35.395 -18.473 -22.506  0.00  0.00    +0.145 C 
ATOM     33  C   UNL     1      35.307 -17.129 -22.866  0.00  0.00    +0.037 C 
ATOM     34  C   UNL     1      34.957 -19.462 -23.387  0.00  0.00    +0.037 C 
ATOM     35  C   UNL     1      34.780 -16.772 -24.108  0.00  0.00    +0.003 C 
ATOM     36  C   UNL     1      34.430 -19.106 -24.629  0.00  0.00    +0.003 C 
ATOM     37  C   UNL     1      34.342 -17.761 -24.989  0.00  0.00    +0.000 C 
ENDBRANCH  31  32
ENDBRANCH  30  31
ENDBRANCH  23  25
ENDBRANCH  20  22
ENDBRANCH   1  20
TORSDOF 6
ENDMDL
MODEL 2
REMARK VINA RESULT:     -11.4      2.373      4.732
REMARK  Name = 25023705
REMARK  6 active torsions:
REMARK  status: ('A' for Active; 'I' for Inactive)
REMARK    1  A    between atoms: C_1  and  C_8
REMARK    2  A    between atoms: C_1  and  C_20
REMARK    3  A    between atoms: C_20  and  N_22
REMARK    4  A    between atoms: C_23  and  C_25
REMARK    5  A    between atoms: C_30  and  O_31
REMARK    6  A    between atoms: O_31  and  C_32
REMARK                            x       y       z     vdW  Elec       q    Type
REMARK                         _______ _______ _______ _____ _____    ______ ____
ROOT
ATOM      1  C   UNL     1      34.223 -22.602 -18.936  0.00  0.00    +0.066 C 
ATOM      2  C   UNL     1      32.899 -21.839 -19.183  0.00  0.00    +0.009 C 
ATOM      3  C   UNL     1      34.209 -23.824 -19.886  0.00  0.00    +0.009 C 
ENDROOT
BRANCH   1   8
ATOM      4  N   UNL     1      33.188 -23.492 -16.886  0.00  0.00    -0.347 NA
ATOM      5  N   UNL     1      32.104 -24.349 -15.028  0.00  0.00    -0.266 NA
ATOM      6  N   UNL     1      33.215 -24.546 -12.901  0.00  0.00    -0.316 NA
ATOM      7  N   UNL     1      30.988 -25.220 -13.156  0.00  0.00    -0.283 N 
ATOM      8  C   UNL     1      34.309 -22.972 -17.443  0.00  0.00    +0.122 C 
ATOM      9  C   UNL     1      35.487 -22.762 -16.760  0.00  0.00    +0.026 C 
ATOM     10  C   UNL     1      35.511 -23.111 -15.421  0.00  0.00    +0.001 C 
ATOM     11  C   UNL     1      33.203 -23.834 -15.590  0.00  0.00    +0.137 C 
ATOM     12  C   UNL     1      34.362 -23.651 -14.827  0.00  0.00    +0.199 C 
ATOM     13  C   UNL     1      34.308 -24.027 -13.486  0.00  0.00    +0.187 C 
ATOM     14  C   UNL     1      32.163 -24.678 -13.721  0.00  0.00    +0.207 C 
ATOM     15  H   UNL     1      30.184 -25.339 -13.712  0.00  0.00    +0.156 HD
ATOM     16  H   UNL     1      30.972 -25.479 -12.206  0.00  0.00    +0.156 HD
ATOM     17  N   UNL     1      35.455 -23.863 -12.671  0.00  0.00    -0.334 N 
ATOM     18  H   UNL     1      35.425 -24.125 -11.722  0.00  0.00    +0.144 HD
ATOM     19  H   UNL     1      36.281 -23.486 -13.052  0.00  0.00    +0.144 HD
ENDBRANCH   1   8
BRANCH   1  20
ATOM     20  C   UNL     1      35.402 -21.673 -19.345  0.00  0.00    +0.096 C 
BRANCH  20  22
ATOM     21  O   UNL     1      36.938 -19.421 -20.245  0.00  0.00    -0.270 OA
ATOM     22  N   UNL     1      35.116 -20.837 -20.483  0.00  0.00    -0.300 N 
ATOM     23  C   UNL     1      35.922 -19.764 -20.843  0.00  0.00    +0.246 C 
ATOM     24  H   UNL     1      34.319 -21.034 -21.027  0.00  0.00    +0.150 HD
BRANCH  23  25
ATOM     25  C   UNL     1      35.476 -18.984 -22.026  0.00  0.00    +0.054 C 
ATOM     26  C   UNL     1      35.875 -17.656 -22.177  0.00  0.00    +0.008 C 
ATOM     27  C   UNL     1      34.657 -19.580 -22.986  0.00  0.00    +0.008 C 
ATOM     28  C   UNL     1      35.456 -16.924 -23.288  0.00  0.00    +0.038 C 
ATOM     29  C   UNL     1      34.238 -18.848 -24.096  0.00  0.00    +0.038 C 
ATOM     30  C   UNL     1      34.637 -17.520 -24.247  0.00  0.00    +0.145 C 
BRANCH  30  31
ATOM     31  O   UNL     1      34.225 -16.805 -25.329  0.00  0.00    -0.453 OA
BRANCH  31  32
ATOM     32  C   UNL     1      33.910 -15.470 -25.137  0.00  0.00    +0.145 C 
ATOM     33  C   UNL     1      33.943 -14.924 -23.854  0.00  0.00    +0.037 C 
ATOM     34  C   UNL     1      33.556 -14.673 -26.226  0.00  0.00    +0.037 C 
ATOM     35  C   UNL     1      33.624 -13.580 -23.660  0.00  0.00    +0.003 C 
ATOM     36  C   UNL     1      33.237 -13.329 -26.032  0.00  0.00    +0.003 C 
ATOM     37  C   UNL     1      33.271 -12.782 -24.749  0.00  0.00    +0.000 C 
ENDBRANCH  31  32
ENDBRANCH  30  31
ENDBRANCH  23  25
ENDBRANCH  20  22
ENDBRANCH   1  20
TORSDOF 6
ENDMDL
MODEL 3
REMARK VINA RESULT:     -11.4      2.693      5.072
REMARK  Name = 25023705
REMARK  6 active torsions:
REMARK  status: ('A' for Active; 'I' for Inactive)
REMARK    1  A    between atoms: C_1  and  C_8
REMARK    2  A    between atoms: C_1  and  C_20
REMARK    3  A    between atoms: C_20  and  N_22
REMARK    4  A    between atoms: C_23  and  C_25
REMARK    5  A    between atoms: C_30  and  O_31
REMARK    6  A    between atoms: O_31  and  C_32
REMARK                            x       y       z     vdW  Elec       q    Type
REMARK                         _______ _______ _______ _____ _____    ______ ____
ROOT
ATOM      1  C   UNL     1      35.033 -22.015 -19.645  0.00  0.00    +0.066 C 
ATOM      2  C   UNL     1      33.669 -21.283 -19.674  0.00  0.00    +0.009 C 
ATOM      3  C   UNL     1      34.896 -23.234 -20.588  0.00  0.00    +0.009 C 
ENDROOT
BRANCH   1   8
ATOM      4  N   UNL     1      34.397 -23.047 -17.500  0.00  0.00    -0.347 NA
ATOM      5  N   UNL     1      33.683 -24.050 -15.539  0.00  0.00    -0.266 NA
ATOM      6  N   UNL     1      35.087 -24.131 -13.584  0.00  0.00    -0.316 NA
ATOM      7  N   UNL     1      32.942 -25.071 -13.560  0.00  0.00    -0.283 N 
ATOM      8  C   UNL     1      35.362 -22.387 -18.186  0.00  0.00    +0.122 C 
ATOM      9  C   UNL     1      36.588 -22.042 -17.660  0.00  0.00    +0.026 C 
ATOM     10  C   UNL     1      36.834 -22.399 -16.346  0.00  0.00    +0.001 C 
ATOM     11  C   UNL     1      34.628 -23.397 -16.228  0.00  0.00    +0.137 C 
ATOM     12  C   UNL     1      35.848 -23.083 -15.619  0.00  0.00    +0.199 C 
ATOM     13  C   UNL     1      36.021 -23.476 -14.294  0.00  0.00    +0.187 C 
ATOM     14  C   UNL     1      33.957 -24.383 -14.260  0.00  0.00    +0.207 C 
ATOM     15  H   UNL     1      32.091 -25.281 -14.008  0.00  0.00    +0.156 HD
ATOM     16  H   UNL     1      33.086 -25.339 -12.623  0.00  0.00    +0.156 HD
ATOM     17  N   UNL     1      37.239 -23.181 -13.633  0.00  0.00    -0.334 N 
ATOM     18  H   UNL     1      37.369 -23.455 -12.696  0.00  0.00    +0.144 HD
ATOM     19  H   UNL     1      37.954 -22.702 -14.110  0.00  0.00    +0.144 HD
ENDBRANCH   1   8
BRANCH   1  20
ATOM     20  C   UNL     1      36.109 -21.057 -20.229  0.00  0.00    +0.096 C 
BRANCH  20  22
ATOM     21  O   UNL     1      37.578 -18.930 -21.478  0.00  0.00    -0.270 OA
ATOM     22  N   UNL     1      35.593 -19.771 -20.622  0.00  0.00    -0.300 N 
ATOM     23  C   UNL     1      36.384 -18.800 -21.223  0.00  0.00    +0.246 C 
ATOM     24  H   UNL     1      34.642 -19.573 -20.459  0.00  0.00    +0.150 HD
BRANCH  23  25
ATOM     25  C   UNL     1      35.707 -17.517 -21.545  0.00  0.00    +0.054 C 
ATOM     26  C   UNL     1      35.198 -16.721 -20.519  0.00  0.00    +0.008 C 
ATOM     27  C   UNL     1      35.581 -17.109 -22.874  0.00  0.00    +0.008 C 
ATOM     28  C   UNL     1      34.562 -15.517 -20.822  0.00  0.00    +0.038 C 
ATOM     29  C   UNL     1      34.946 -15.905 -23.175  0.00  0.00    +0.038 C 
ATOM     30  C   UNL     1      34.436 -15.109 -22.150  0.00  0.00    +0.145 C 
BRANCH  30  31
ATOM     31  O   UNL     1      33.813 -13.935 -22.445  0.00  0.00    -0.453 OA
BRANCH  31  32
ATOM     32  C   UNL     1      33.672 -13.600 -23.781  0.00  0.00    +0.145 C 
ATOM     33  C   UNL     1      33.977 -12.309 -24.211  0.00  0.00    +0.037 C 
ATOM     34  C   UNL     1      33.223 -14.553 -24.696  0.00  0.00    +0.037 C 
ATOM     35  C   UNL     1      33.834 -11.969 -25.557  0.00  0.00    +0.003 C 
ATOM     36  C   UNL     1      33.080 -14.213 -26.042  0.00  0.00    +0.003 C 
ATOM     37  C   UNL     1      33.385 -12.922 -26.472  0.00  0.00    +0.000 C 
ENDBRANCH  31  32
ENDBRANCH  30  31
ENDBRANCH  23  25
ENDBRANCH  20  22
ENDBRANCH   1  20
TORSDOF 6
ENDMDL
MODEL 4
REMARK VINA RESULT:     -11.2      0.958      1.978
REMARK  Name = 25023705
REMARK  6 active torsions:
REMARK  status: ('A' for Active; 'I' for Inactive)
REMARK    1  A    between atoms: C_1  and  C_8
REMARK    2  A    between atoms: C_1  and  C_20
REMARK    3  A    between atoms: C_20  and  N_22
REMARK    4  A    between atoms: C_23  and  C_25
REMARK    5  A    between atoms: C_30  and  O_31
REMARK    6  A    between atoms: O_31  and  C_32
REMARK                            x       y       z     vdW  Elec       q    Type
REMARK                         _______ _______ _______ _____ _____    ______ ____
ROOT
ATOM      1  C   UNL     1      32.303 -23.961 -15.303  0.00  0.00    +0.066 C 
ATOM      2  C   UNL     1      32.051 -22.457 -15.039  0.00  0.00    +0.009 C 
ATOM      3  C   UNL     1      31.120 -24.724 -14.659  0.00  0.00    +0.009 C 
ENDROOT
BRANCH   1   8
ATOM      4  N   UNL     1      33.898 -24.015 -13.427  0.00  0.00    -0.347 NA
ATOM      5  N   UNL     1      35.306 -24.006 -11.588  0.00  0.00    -0.266 NA
ATOM      6  N   UNL     1      37.521 -24.944 -11.695  0.00  0.00    -0.316 NA
ATOM      7  N   UNL     1      36.719 -23.988  -9.714  0.00  0.00    -0.283 N 
ATOM      8  C   UNL     1      33.680 -24.340 -14.724  0.00  0.00    +0.122 C 
ATOM      9  C   UNL     1      34.602 -24.973 -15.530  0.00  0.00    +0.026 C 
ATOM     10  C   UNL     1      35.823 -25.291 -14.962  0.00  0.00    +0.001 C 
ATOM     11  C   UNL     1      35.078 -24.321 -12.869  0.00  0.00    +0.137 C 
ATOM     12  C   UNL     1      36.068 -24.964 -13.620  0.00  0.00    +0.199 C 
ATOM     13  C   UNL     1      37.270 -25.251 -12.979  0.00  0.00    +0.187 C 
ATOM     14  C   UNL     1      36.507 -24.331 -11.067  0.00  0.00    +0.207 C 
ATOM     15  H   UNL     1      36.008 -23.535  -9.205  0.00  0.00    +0.156 HD
ATOM     16  H   UNL     1      37.577 -24.200  -9.280  0.00  0.00    +0.156 HD
ATOM     17  N   UNL     1      38.304 -25.902 -13.696  0.00  0.00    -0.334 N 
ATOM     18  H   UNL     1      39.158 -26.108 -13.250  0.00  0.00    +0.144 HD
ATOM     19  H   UNL     1      38.170 -26.147 -14.640  0.00  0.00    +0.144 HD
ENDBRANCH   1   8
BRANCH   1  20
ATOM     20  C   UNL     1      32.264 -24.196 -16.839  0.00  0.00    +0.096 C 
BRANCH  20  22
ATOM     21  O   UNL     1      33.822 -24.534 -19.226  0.00  0.00    -0.270 OA
ATOM     22  N   UNL     1      32.901 -23.156 -17.605  0.00  0.00    -0.300 N 
ATOM     23  C   UNL     1      33.639 -23.417 -18.752  0.00  0.00    +0.246 C 
ATOM     24  H   UNL     1      32.811 -22.223 -17.302  0.00  0.00    +0.150 HD
BRANCH  23  25
ATOM     25  C   UNL     1      34.256 -22.237 -19.412  0.00  0.00    +0.054 C 
ATOM     26  C   UNL     1      35.641 -22.078 -19.403  0.00  0.00    +0.008 C 
ATOM     27  C   UNL     1      33.448 -21.288 -20.039  0.00  0.00    +0.008 C 
ATOM     28  C   UNL     1      36.219 -20.970 -20.022  0.00  0.00    +0.038 C 
ATOM     29  C   UNL     1      34.027 -20.180 -20.658  0.00  0.00    +0.038 C 
ATOM     30  C   UNL     1      35.412 -20.021 -20.649  0.00  0.00    +0.145 C 
BRANCH  30  31
ATOM     31  O   UNL     1      35.976 -18.938 -21.250  0.00  0.00    -0.453 OA
BRANCH  31  32
ATOM     32  C   UNL     1      35.443 -18.522 -22.459  0.00  0.00    +0.145 C 
ATOM     33  C   UNL     1      35.409 -17.164 -22.775  0.00  0.00    +0.037 C 
ATOM     34  C   UNL     1      34.938 -19.461 -23.359  0.00  0.00    +0.037 C 
ATOM     35  C   UNL     1      34.870 -16.744 -23.991  0.00  0.00    +0.003 C 
ATOM     36  C   UNL     1      34.399 -19.041 -24.575  0.00  0.00    +0.003 C 
ATOM     37  C   UNL     1      34.365 -17.683 -24.891  0.00  0.00    +0.000 C 
ENDBRANCH  31  32
ENDBRANCH  30  31
ENDBRANCH  23  25
ENDBRANCH  20  22
ENDBRANCH   1  20
TORSDOF 6
ENDMDL
MODEL 5
REMARK VINA RESULT:     -11.2      2.392      4.997
REMARK  Name = 25023705
REMARK  6 active torsions:
REMARK  status: ('A' for Active; 'I' for Inactive)
REMARK    1  A    between atoms: C_1  and  C_8
REMARK    2  A    between atoms: C_1  and  C_20
REMARK    3  A    between atoms: C_20  and  N_22
REMARK    4  A    between atoms: C_23  and  C_25
REMARK    5  A    between atoms: C_30  and  O_31
REMARK    6  A    between atoms: O_31  and  C_32
REMARK                            x       y       z     vdW  Elec       q    Type
REMARK                         _______ _______ _______ _____ _____    ______ ____
ROOT
ATOM      1  C   UNL     1      34.611 -23.738 -15.341  0.00  0.00    +0.066 C 
ATOM      2  C   UNL     1      35.426 -24.539 -14.297  0.00  0.00    +0.009 C 
ATOM      3  C   UNL     1      34.920 -22.242 -15.085  0.00  0.00    +0.009 C 
ENDROOT
BRANCH   1   8
ATOM      4  N   UNL     1      32.262 -23.491 -16.041  0.00  0.00    -0.347 NA
ATOM      5  N   UNL     1      30.095 -23.173 -16.793  0.00  0.00    -0.266 NA
ATOM      6  N   UNL     1      28.235 -24.333 -15.796  0.00  0.00    -0.316 NA
ATOM      7  N   UNL     1      27.904 -22.838 -17.567  0.00  0.00    -0.283 N 
ATOM      8  C   UNL     1      33.121 -24.102 -15.191  0.00  0.00    +0.122 C 
ATOM      9  C   UNL     1      32.741 -25.007 -14.223  0.00  0.00    +0.026 C 
ATOM     10  C   UNL     1      31.391 -25.299 -14.128  0.00  0.00    +0.001 C 
ATOM     11  C   UNL     1      30.954 -23.770 -15.957  0.00  0.00    +0.137 C 
ATOM     12  C   UNL     1      30.486 -24.678 -15.001  0.00  0.00    +0.199 C 
ATOM     13  C   UNL     1      29.115 -24.920 -14.967  0.00  0.00    +0.187 C 
ATOM     14  C   UNL     1      28.786 -23.482 -16.672  0.00  0.00    +0.207 C 
ATOM     15  H   UNL     1      28.256 -22.202 -18.232  0.00  0.00    +0.156 HD
ATOM     16  H   UNL     1      26.938 -23.025 -17.526  0.00  0.00    +0.156 HD
ATOM     17  N   UNL     1      28.592 -25.832 -14.017  0.00  0.00    -0.334 N 
ATOM     18  H   UNL     1      27.624 -26.009 -13.987  0.00  0.00    +0.144 HD
ATOM     19  H   UNL     1      29.196 -26.288 -13.388  0.00  0.00    +0.144 HD
ENDBRANCH   1   8
BRANCH   1  20
ATOM     20  C   UNL     1      35.133 -24.114 -16.757  0.00  0.00    +0.096 C 
BRANCH  20  22
ATOM     21  O   UNL     1      33.925 -23.732 -19.332  0.00  0.00    -0.270 OA
ATOM     22  N   UNL     1      35.312 -22.983 -17.631  0.00  0.00    -0.300 N 
ATOM     23  C   UNL     1      34.683 -22.886 -18.865  0.00  0.00    +0.246 C 
ATOM     24  H   UNL     1      35.904 -22.251 -17.342  0.00  0.00    +0.150 HD
BRANCH  23  25
ATOM     25  C   UNL     1      34.992 -21.669 -19.660  0.00  0.00    +0.054 C 
ATOM     26  C   UNL     1      33.962 -20.951 -20.265  0.00  0.00    +0.008 C 
ATOM     27  C   UNL     1      36.315 -21.247 -19.801  0.00  0.00    +0.008 C 
ATOM     28  C   UNL     1      34.254 -19.809 -21.012  0.00  0.00    +0.038 C 
ATOM     29  C   UNL     1      36.606 -20.105 -20.547  0.00  0.00    +0.038 C 
ATOM     30  C   UNL     1      35.576 -19.387 -21.153  0.00  0.00    +0.145 C 
BRANCH  30  31
ATOM     31  O   UNL     1      35.861 -18.275 -21.884  0.00  0.00    -0.453 OA
BRANCH  31  32
ATOM     32  C   UNL     1      35.225 -18.126 -23.105  0.00  0.00    +0.145 C 
ATOM     33  C   UNL     1      34.981 -16.850 -23.613  0.00  0.00    +0.037 C 
ATOM     34  C   UNL     1      34.828 -19.252 -23.826  0.00  0.00    +0.037 C 
ATOM     35  C   UNL     1      34.340 -16.700 -24.843  0.00  0.00    +0.003 C 
ATOM     36  C   UNL     1      34.186 -19.102 -25.056  0.00  0.00    +0.003 C 
ATOM     37  C   UNL     1      33.942 -17.826 -25.564  0.00  0.00    +0.000 C 
ENDBRANCH  31  32
ENDBRANCH  30  31
ENDBRANCH  23  25
ENDBRANCH  20  22
ENDBRANCH   1  20
TORSDOF 6
ENDMDL
MODEL 6
REMARK VINA RESULT:     -11.1      4.984      8.269
REMARK  Name = 25023705
REMARK  6 active torsions:
REMARK  status: ('A' for Active; 'I' for Inactive)
REMARK    1  A    between atoms: C_1  and  C_8
REMARK    2  A    between atoms: C_1  and  C_20
REMARK    3  A    between atoms: C_20  and  N_22
REMARK    4  A    between atoms: C_23  and  C_25
REMARK    5  A    between atoms: C_30  and  O_31
REMARK    6  A    between atoms: O_31  and  C_32
REMARK                            x       y       z     vdW  Elec       q    Type
REMARK                         _______ _______ _______ _____ _____    ______ ____
ROOT
ATOM      1  C   UNL     1      35.388 -19.020 -22.052  0.00  0.00    +0.066 C 
ATOM      2  C   UNL     1      34.107 -18.663 -22.845  0.00  0.00    +0.009 C 
ATOM      3  C   UNL     1      36.416 -19.535 -23.089  0.00  0.00    +0.009 C 
ENDROOT
BRANCH   1   8
ATOM      4  N   UNL     1      36.019 -20.407 -20.117  0.00  0.00    -0.347 NA
ATOM      5  N   UNL     1      36.734 -21.660 -18.305  0.00  0.00    -0.266 NA
ATOM      6  N   UNL     1      35.248 -23.157 -17.145  0.00  0.00    -0.316 NA
ATOM      7  N   UNL     1      37.478 -22.922 -16.471  0.00  0.00    -0.283 N 
ATOM      8  C   UNL     1      35.025 -20.052 -20.967  0.00  0.00    +0.122 C 
ATOM      9  C   UNL     1      33.743 -20.554 -20.913  0.00  0.00    +0.026 C 
ATOM     10  C   UNL     1      33.469 -21.479 -19.920  0.00  0.00    +0.001 C 
ATOM     11  C   UNL     1      35.762 -21.301 -19.152  0.00  0.00    +0.137 C 
ATOM     12  C   UNL     1      34.484 -21.858 -19.030  0.00  0.00    +0.199 C 
ATOM     13  C   UNL     1      34.286 -22.782 -18.006  0.00  0.00    +0.187 C 
ATOM     14  C   UNL     1      36.432 -22.563 -17.350  0.00  0.00    +0.207 C 
ATOM     15  H   UNL     1      38.369 -22.517 -16.577  0.00  0.00    +0.156 HD
ATOM     16  H   UNL     1      37.315 -23.577 -15.754  0.00  0.00    +0.156 HD
ATOM     17  N   UNL     1      33.010 -23.375 -17.840  0.00  0.00    -0.334 N 
ATOM     18  H   UNL     1      32.862 -24.028 -17.118  0.00  0.00    +0.144 HD
ATOM     19  H   UNL     1      32.272 -23.134 -18.445  0.00  0.00    +0.144 HD
ENDBRANCH   1   8
BRANCH   1  20
ATOM     20  C   UNL     1      35.943 -17.715 -21.414  0.00  0.00    +0.096 C 
BRANCH  20  22
ATOM     21  O   UNL     1      35.655 -15.662 -23.399  0.00  0.00    -0.270 OA
ATOM     22  N   UNL     1      34.998 -16.628 -21.396  0.00  0.00    -0.300 N 
ATOM     23  C   UNL     1      34.933 -15.678 -22.406  0.00  0.00    +0.246 C 
ATOM     24  H   UNL     1      34.374 -16.556 -20.637  0.00  0.00    +0.150 HD
BRANCH  23  25
ATOM     25  C   UNL     1      33.921 -14.604 -22.226  0.00  0.00    +0.054 C 
ATOM     26  C   UNL     1      33.256 -14.470 -21.008  0.00  0.00    +0.008 C 
ATOM     27  C   UNL     1      33.637 -13.732 -23.278  0.00  0.00    +0.008 C 
ATOM     28  C   UNL     1      32.306 -13.463 -20.840  0.00  0.00    +0.038 C 
ATOM     29  C   UNL     1      32.686 -12.725 -23.109  0.00  0.00    +0.038 C 
ATOM     30  C   UNL     1      32.021 -12.591 -21.891  0.00  0.00    +0.145 C 
BRANCH  30  31
ATOM     31  O   UNL     1      31.092 -11.609 -21.728  0.00  0.00    -0.453 OA
BRANCH  31  32
ATOM     32  C   UNL     1      31.548 -10.331 -21.451  0.00  0.00    +0.145 C 
ATOM     33  C   UNL     1      31.730  -9.416 -22.487  0.00  0.00    +0.037 C 
ATOM     34  C   UNL     1      31.826  -9.960 -20.135  0.00  0.00    +0.037 C 
ATOM     35  C   UNL     1      32.190  -8.129 -22.209  0.00  0.00    +0.003 C 
ATOM     36  C   UNL     1      32.287  -8.673 -19.857  0.00  0.00    +0.003 C 
ATOM     37  C   UNL     1      32.468  -7.758 -20.893  0.00  0.00    +0.000 C 
ENDBRANCH  31  32
ENDBRANCH  30  31
ENDBRANCH  23  25
ENDBRANCH  20  22
ENDBRANCH   1  20
TORSDOF 6
ENDMDL
MODEL 7
REMARK VINA RESULT:     -11.1      2.065      3.915
REMARK  Name = 25023705
REMARK  6 active torsions:
REMARK  status: ('A' for Active; 'I' for Inactive)
REMARK    1  A    between atoms: C_1  and  C_8
REMARK    2  A    between atoms: C_1  and  C_20
REMARK    3  A    between atoms: C_20  and  N_22
REMARK    4  A    between atoms: C_23  and  C_25
REMARK    5  A    between atoms: C_30  and  O_31
REMARK    6  A    between atoms: O_31  and  C_32
REMARK                            x       y       z     vdW  Elec       q    Type
REMARK                         _______ _______ _______ _____ _____    ______ ____
ROOT
ATOM      1  C   UNL     1      34.259 -22.715 -18.704  0.00  0.00    +0.066 C 
ATOM      2  C   UNL     1      32.943 -21.909 -18.824  0.00  0.00    +0.009 C 
ATOM      3  C   UNL     1      34.167 -23.861 -19.741  0.00  0.00    +0.009 C 
ENDROOT
BRANCH   1   8
ATOM      4  N   UNL     1      35.676 -23.383 -16.804  0.00  0.00    -0.347 NA
ATOM      5  N   UNL     1      37.115 -23.987 -15.093  0.00  0.00    -0.266 NA
ATOM      6  N   UNL     1      36.289 -24.679 -12.939  0.00  0.00    -0.316 NA
ATOM      7  N   UNL     1      38.589 -24.597 -13.371  0.00  0.00    -0.283 N 
ATOM      8  C   UNL     1      34.410 -23.200 -17.250  0.00  0.00    +0.122 C 
ATOM      9  C   UNL     1      33.281 -23.421 -16.490  0.00  0.00    +0.026 C 
ATOM     10  C   UNL     1      33.472 -23.857 -15.190  0.00  0.00    +0.001 C 
ATOM     11  C   UNL     1      35.869 -23.804 -15.546  0.00  0.00    +0.137 C 
ATOM     12  C   UNL     1      34.775 -24.052 -14.710  0.00  0.00    +0.199 C 
ATOM     13  C   UNL     1      35.047 -24.488 -13.415  0.00  0.00    +0.187 C 
ATOM     14  C   UNL     1      37.263 -24.413 -13.821  0.00  0.00    +0.207 C 
ATOM     15  H   UNL     1      39.343 -24.417 -13.977  0.00  0.00    +0.156 HD
ATOM     16  H   UNL     1      38.758 -24.906 -12.451  0.00  0.00    +0.156 HD
ATOM     17  N   UNL     1      33.973 -24.752 -12.529  0.00  0.00    -0.334 N 
ATOM     18  H   UNL     1      34.157 -25.061 -11.612  0.00  0.00    +0.144 HD
ATOM     19  H   UNL     1      33.044 -24.628 -12.830  0.00  0.00    +0.144 HD
ENDBRANCH   1   8
BRANCH   1  20
ATOM     20  C   UNL     1      35.437 -21.782 -19.103  0.00  0.00    +0.096 C 
BRANCH  20  22
ATOM     21  O   UNL     1      37.050 -19.617 -20.078  0.00  0.00    -0.270 OA
ATOM     22  N   UNL     1      35.161 -20.952 -20.247  0.00  0.00    -0.300 N 
ATOM     23  C   UNL     1      36.005 -19.923 -20.645  0.00  0.00    +0.246 C 
ATOM     24  H   UNL     1      34.342 -21.121 -20.768  0.00  0.00    +0.150 HD
BRANCH  23  25
ATOM     25  C   UNL     1      35.565 -19.142 -21.830  0.00  0.00    +0.054 C 
ATOM     26  C   UNL     1      36.050 -17.851 -22.034  0.00  0.00    +0.008 C 
ATOM     27  C   UNL     1      34.665 -19.701 -22.738  0.00  0.00    +0.008 C 
ATOM     28  C   UNL     1      35.636 -17.118 -23.146  0.00  0.00    +0.038 C 
ATOM     29  C   UNL     1      34.252 -18.968 -23.851  0.00  0.00    +0.038 C 
ATOM     30  C   UNL     1      34.737 -17.676 -24.054  0.00  0.00    +0.145 C 
BRANCH  30  31
ATOM     31  O   UNL     1      34.331 -16.960 -25.138  0.00  0.00    -0.453 OA
BRANCH  31  32
ATOM     32  C   UNL     1      33.986 -15.633 -24.941  0.00  0.00    +0.145 C 
ATOM     33  C   UNL     1      34.199 -15.035 -23.699  0.00  0.00    +0.037 C 
ATOM     34  C   UNL     1      33.426 -14.896 -25.984  0.00  0.00    +0.037 C 
ATOM     35  C   UNL     1      33.851 -13.699 -23.499  0.00  0.00    +0.003 C 
ATOM     36  C   UNL     1      33.078 -13.559 -25.784  0.00  0.00    +0.003 C 
ATOM     37  C   UNL     1      33.290 -12.962 -24.542  0.00  0.00    +0.000 C 
ENDBRANCH  31  32
ENDBRANCH  30  31
ENDBRANCH  23  25
ENDBRANCH  20  22
ENDBRANCH   1  20
TORSDOF 6
ENDMDL
MODEL 8
REMARK VINA RESULT:     -11.1      8.986     14.195
REMARK  Name = 25023705
REMARK  6 active torsions:
REMARK  status: ('A' for Active; 'I' for Inactive)
REMARK    1  A    between atoms: C_1  and  C_8
REMARK    2  A    between atoms: C_1  and  C_20
REMARK    3  A    between atoms: C_20  and  N_22
REMARK    4  A    between atoms: C_23  and  C_25
REMARK    5  A    between atoms: C_30  and  O_31
REMARK    6  A    between atoms: O_31  and  C_32
REMARK                            x       y       z     vdW  Elec       q    Type
REMARK                         _______ _______ _______ _____ _____    ______ ____
ROOT
ATOM      1  C   UNL     1      31.873 -11.384 -21.793  0.00  0.00    +0.066 C 
ATOM      2  C   UNL     1      30.414 -11.234 -21.296  0.00  0.00    +0.009 C 
ATOM      3  C   UNL     1      32.695 -11.904 -20.589  0.00  0.00    +0.009 C 
ENDROOT
BRANCH   1   8
ATOM      4  N   UNL     1      31.628  -8.939 -21.967  0.00  0.00    -0.347 NA
ATOM      5  N   UNL     1      31.292  -6.649 -22.051  0.00  0.00    -0.266 NA
ATOM      6  N   UNL     1      32.750  -5.209 -23.315  0.00  0.00    -0.316 NA
ATOM      7  N   UNL     1      30.936  -4.330 -22.124  0.00  0.00    -0.283 N 
ATOM      8  C   UNL     1      32.352 -10.023 -22.335  0.00  0.00    +0.122 C 
ATOM      9  C   UNL     1      33.464  -9.973 -23.148  0.00  0.00    +0.026 C 
ATOM     10  C   UNL     1      33.852  -8.727 -23.609  0.00  0.00    +0.001 C 
ATOM     11  C   UNL     1      31.999  -7.729 -22.408  0.00  0.00    +0.137 C 
ATOM     12  C   UNL     1      33.116  -7.593 -23.238  0.00  0.00    +0.199 C 
ATOM     13  C   UNL     1      33.445  -6.306 -23.661  0.00  0.00    +0.187 C 
ATOM     14  C   UNL     1      31.700  -5.451 -22.518  0.00  0.00    +0.207 C 
ATOM     15  H   UNL     1      30.153  -4.450 -21.540  0.00  0.00    +0.156 HD
ATOM     16  H   UNL     1      31.187  -3.430 -22.435  0.00  0.00    +0.156 HD
ATOM     17  N   UNL     1      34.568  -6.116 -24.503  0.00  0.00    -0.334 N 
ATOM     18  H   UNL     1      34.807  -5.210 -24.806  0.00  0.00    +0.144 HD
ATOM     19  H   UNL     1      35.109  -6.888 -24.785  0.00  0.00    +0.144 HD
ENDBRANCH   1   8
BRANCH   1  20
ATOM     20  C   UNL     1      31.895 -12.465 -22.910  0.00  0.00    +0.096 C 
BRANCH  20  22
ATOM     21  O   UNL     1      34.194 -13.484 -24.294  0.00  0.00    -0.270 OA
ATOM     22  N   UNL     1      32.653 -13.641 -22.568  0.00  0.00    -0.300 N 
ATOM     23  C   UNL     1      33.757 -14.058 -23.301  0.00  0.00    +0.246 C 
ATOM     24  H   UNL     1      32.378 -14.169 -21.784  0.00  0.00    +0.150 HD
BRANCH  23  25
ATOM     25  C   UNL     1      34.415 -15.306 -22.834  0.00  0.00    +0.054 C 
ATOM     26  C   UNL     1      34.788 -16.283 -23.755  0.00  0.00    +0.008 C 
ATOM     27  C   UNL     1      34.657 -15.498 -21.473  0.00  0.00    +0.008 C 
ATOM     28  C   UNL     1      35.405 -17.455 -23.316  0.00  0.00    +0.038 C 
ATOM     29  C   UNL     1      35.273 -16.670 -21.034  0.00  0.00    +0.038 C 
ATOM     30  C   UNL     1      35.647 -17.649 -21.956  0.00  0.00    +0.145 C 
BRANCH  30  31
ATOM     31  O   UNL     1      36.246 -18.793 -21.527  0.00  0.00    -0.453 OA
BRANCH  31  32
ATOM     32  C   UNL     1      35.444 -19.761 -20.945  0.00  0.00    +0.145 C 
ATOM     33  C   UNL     1      36.017 -20.759 -20.158  0.00  0.00    +0.037 C 
ATOM     34  C   UNL     1      34.064 -19.738 -21.148  0.00  0.00    +0.037 C 
ATOM     35  C   UNL     1      35.210 -21.735 -19.572  0.00  0.00    +0.003 C 
ATOM     36  C   UNL     1      33.257 -20.714 -20.562  0.00  0.00    +0.003 C 
ATOM     37  C   UNL     1      33.830 -21.712 -19.775  0.00  0.00    +0.000 C 
ENDBRANCH  31  32
ENDBRANCH  30  31
ENDBRANCH  23  25
ENDBRANCH  20  22
ENDBRANCH   1  20
TORSDOF 6
ENDMDL
MODEL 9
REMARK VINA RESULT:     -11.1      8.829     13.768
REMARK  Name = 25023705
REMARK  6 active torsions:
REMARK  status: ('A' for Active; 'I' for Inactive)
REMARK    1  A    between atoms: C_1  and  C_8
REMARK    2  A    between atoms: C_1  and  C_20
REMARK    3  A    between atoms: C_20  and  N_22
REMARK    4  A    between atoms: C_23  and  C_25
REMARK    5  A    between atoms: C_30  and  O_31
REMARK    6  A    between atoms: O_31  and  C_32
REMARK                            x       y       z     vdW  Elec       q    Type
REMARK                         _______ _______ _______ _____ _____    ______ ____
ROOT
ATOM      1  C   UNL     1      32.010 -11.866 -21.746  0.00  0.00    +0.066 C 
ATOM      2  C   UNL     1      30.579 -12.274 -22.175  0.00  0.00    +0.009 C 
ATOM      3  C   UNL     1      32.294 -12.601 -20.414  0.00  0.00    +0.009 C 
ENDROOT
BRANCH   1   8
ATOM      4  N   UNL     1      32.141  -9.646 -22.806  0.00  0.00    -0.347 NA
ATOM      5  N   UNL     1      32.264  -7.619 -23.920  0.00  0.00    -0.266 NA
ATOM      6  N   UNL     1      32.319  -5.529 -22.726  0.00  0.00    -0.316 NA
ATOM      7  N   UNL     1      32.390  -5.575 -25.066  0.00  0.00    -0.283 N 
ATOM      8  C   UNL     1      32.073 -10.330 -21.638  0.00  0.00    +0.122 C 
ATOM      9  C   UNL     1      32.060  -9.739 -20.393  0.00  0.00    +0.026 C 
ATOM     10  C   UNL     1      32.119  -8.357 -20.351  0.00  0.00    +0.001 C 
ATOM     11  C   UNL     1      32.198  -8.307 -22.773  0.00  0.00    +0.137 C 
ATOM     12  C   UNL     1      32.189  -7.631 -21.549  0.00  0.00    +0.199 C 
ATOM     13  C   UNL     1      32.252  -6.239 -21.588  0.00  0.00    +0.187 C 
ATOM     14  C   UNL     1      32.321  -6.274 -23.841  0.00  0.00    +0.207 C 
ATOM     15  H   UNL     1      32.395  -6.072 -25.916  0.00  0.00    +0.156 HD
ATOM     16  H   UNL     1      32.433  -4.591 -25.070  0.00  0.00    +0.156 HD
ATOM     17  N   UNL     1      32.245  -5.508 -20.375  0.00  0.00    -0.334 N 
ATOM     18  H   UNL     1      32.290  -4.524 -20.393  0.00  0.00    +0.144 HD
ATOM     19  H   UNL     1      32.198  -5.982 -19.514  0.00  0.00    +0.144 HD
ENDBRANCH   1   8
BRANCH   1  20
ATOM     20  C   UNL     1      33.005 -12.388 -22.820  0.00  0.00    +0.096 C 
BRANCH  20  22
ATOM     21  O   UNL     1      33.913 -14.391 -24.665  0.00  0.00    -0.270 OA
ATOM     22  N   UNL     1      33.611 -13.651 -22.488  0.00  0.00    -0.300 N 
ATOM     23  C   UNL     1      34.021 -14.562 -23.454  0.00  0.00    +0.246 C 
ATOM     24  H   UNL     1      33.740 -13.879 -21.538  0.00  0.00    +0.150 HD
BRANCH  23  25
ATOM     25  C   UNL     1      34.603 -15.831 -22.947  0.00  0.00    +0.054 C 
ATOM     26  C   UNL     1      34.866 -16.879 -23.829  0.00  0.00    +0.008 C 
ATOM     27  C   UNL     1      34.885 -15.974 -21.588  0.00  0.00    +0.008 C 
ATOM     28  C   UNL     1      35.412 -18.071 -23.352  0.00  0.00    +0.038 C 
ATOM     29  C   UNL     1      35.431 -17.166 -21.111  0.00  0.00    +0.038 C 
ATOM     30  C   UNL     1      35.694 -18.214 -21.994  0.00  0.00    +0.145 C 
BRANCH  30  31
ATOM     31  O   UNL     1      36.224 -19.378 -21.528  0.00  0.00    -0.453 OA
BRANCH  31  32
ATOM     32  C   UNL     1      35.388 -20.232 -20.828  0.00  0.00    +0.145 C 
ATOM     33  C   UNL     1      34.005 -20.137 -20.986  0.00  0.00    +0.037 C 
ATOM     34  C   UNL     1      35.928 -21.186 -19.965  0.00  0.00    +0.037 C 
ATOM     35  C   UNL     1      33.162 -20.996 -20.280  0.00  0.00    +0.003 C 
ATOM     36  C   UNL     1      35.085 -22.045 -19.260  0.00  0.00    +0.003 C 
ATOM     37  C   UNL     1      33.703 -21.950 -19.417  0.00  0.00    +0.000 C 
ENDBRANCH  31  32
ENDBRANCH  30  31
ENDBRANCH  23  25
ENDBRANCH  20  22
ENDBRANCH   1  20
TORSDOF 6
ENDMDL
