MODEL 1
REMARK VINA RESULT:     -11.7      0.000      0.000
REMARK  Name = 11538455
REMARK  6 active torsions:
REMARK  status: ('A' for Active; 'I' for Inactive)
REMARK    1  A    between atoms: C_4  and  C_19
REMARK    2  A    between atoms: C_12  and  C_15
REMARK    3  A    between atoms: N_14  and  O_17
REMARK    4  A    between atoms: C_19  and  N_20
REMARK    5  A    between atoms: N_20  and  C_23
REMARK    6  A    between atoms: C_23  and  C_25
REMARK                            x       y       z     vdW  Elec       q    Type
REMARK                         _______ _______ _______ _____ _____    ______ ____
ROOT
ATOM      1  N   UNL     1      35.187 -22.368 -17.924  0.00  0.00    -0.253 N 
ATOM      2  N   UNL     1      36.570 -23.288 -16.246  0.00  0.00    -0.203 NA
ATOM      3  N   UNL     1      34.171 -23.327 -16.021  0.00  0.00    -0.180 NA
ATOM      4  C   UNL     1      34.903 -21.159 -20.539  0.00  0.00    -0.018 C 
ATOM      5  C   UNL     1      36.105 -20.858 -19.639  0.00  0.00    +0.020 C 
ATOM      6  C   UNL     1      33.686 -21.495 -19.671  0.00  0.00    +0.020 C 
ATOM      7  C   UNL     1      36.393 -22.013 -18.679  0.00  0.00    +0.101 C 
ATOM      8  C   UNL     1      33.982 -22.650 -18.716  0.00  0.00    +0.101 C 
ATOM      9  C   UNL     1      35.313 -23.016 -16.689  0.00  0.00    +0.090 C 
ATOM     10  C   UNL     1      36.655 -23.910 -15.052  0.00  0.00    +0.170 C 
ATOM     11  C   UNL     1      34.329 -23.948 -14.834  0.00  0.00    +0.113 C 
ATOM     12  C   UNL     1      35.559 -24.268 -14.295  0.00  0.00    +0.078 C 
ENDROOT
BRANCH  12  15
ATOM     13  O   UNL     1      34.939 -24.648 -12.062  0.00  0.00    -0.268 OA
ATOM     14  N   UNL     1      36.687 -25.897 -12.897  0.00  0.00    -0.194 N 
ATOM     15  C   UNL     1      35.689 -24.937 -13.015  0.00  0.00    +0.267 C 
ATOM     16  H   UNL     1      37.276 -26.122 -13.653  0.00  0.00    +0.183 HD
BRANCH  14  17
ATOM     17  O   UNL     1      36.815 -26.531 -11.652  0.00  0.00    -0.295 OA
ATOM     18  H   UNL     1      36.440 -25.964 -10.960  0.00  0.00    +0.241 HD
ENDBRANCH  14  17
ENDBRANCH  12  15
BRANCH   4  19
ATOM     19  C   UNL     1      34.605 -19.979 -21.461  0.00  0.00    -0.081 C 
BRANCH  19  20
ATOM     20  N   UNL     1      35.328 -18.792 -21.034  0.00  0.00    +0.386 N 
ATOM     21  H   UNL     1      35.924 -19.031 -20.241  0.00  0.00    -0.084 HD
ATOM     22  H   UNL     1      34.652 -18.076 -20.769  0.00  0.00    -0.084 HD
BRANCH  20  23
ATOM     23  C   UNL     1      36.158 -18.269 -22.113  0.00  0.00    -0.053 C 
BRANCH  23  25
ATOM     24  N   UNL     1      34.309 -16.494 -24.714  0.00  0.00    -0.284 N 
ATOM     25  C   UNL     1      35.365 -17.334 -22.983  0.00  0.00    -0.028 C 
ATOM     26  C   UNL     1      34.862 -16.079 -22.594  0.00  0.00    +0.009 C 
ATOM     27  C   UNL     1      35.022 -17.579 -24.277  0.00  0.00    +0.059 C 
ATOM     28  C   UNL     1      34.196 -15.563 -23.707  0.00  0.00    +0.051 C 
ATOM     29  C   UNL     1      34.899 -15.315 -21.410  0.00  0.00    +0.001 C 
ATOM     30  C   UNL     1      33.561 -14.315 -23.696  0.00  0.00    +0.015 C 
ATOM     31  C   UNL     1      33.759 -16.363 -26.046  0.00  0.00    +0.117 C 
ATOM     32  C   UNL     1      34.268 -14.065 -21.384  0.00  0.00    +0.000 C 
ATOM     33  C   UNL     1      33.610 -13.575 -22.511  0.00  0.00    +0.001 C 
ENDBRANCH  23  25
ENDBRANCH  20  23
ENDBRANCH  19  20
ENDBRANCH   4  19
TORSDOF 6
ENDMDL
MODEL 2
REMARK VINA RESULT:     -11.5      0.751      1.897
REMARK  Name = 11538455
REMARK  6 active torsions:
REMARK  status: ('A' for Active; 'I' for Inactive)
REMARK    1  A    between atoms: C_4  and  C_19
REMARK    2  A    between atoms: C_12  and  C_15
REMARK    3  A    between atoms: N_14  and  O_17
REMARK    4  A    between atoms: C_19  and  N_20
REMARK    5  A    between atoms: N_20  and  C_23
REMARK    6  A    between atoms: C_23  and  C_25
REMARK                            x       y       z     vdW  Elec       q    Type
REMARK                         _______ _______ _______ _____ _____    ______ ____
ROOT
ATOM      1  N   UNL     1      35.219 -22.398 -17.902  0.00  0.00    -0.253 N 
ATOM      2  N   UNL     1      36.588 -23.305 -16.206  0.00  0.00    -0.203 NA
ATOM      3  N   UNL     1      34.187 -23.375 -16.017  0.00  0.00    -0.180 NA
ATOM      4  C   UNL     1      34.960 -21.185 -20.518  0.00  0.00    -0.018 C 
ATOM      5  C   UNL     1      36.145 -20.872 -19.599  0.00  0.00    +0.020 C 
ATOM      6  C   UNL     1      33.735 -21.539 -19.670  0.00  0.00    +0.020 C 
ATOM      7  C   UNL     1      36.432 -22.025 -18.638  0.00  0.00    +0.101 C 
ATOM      8  C   UNL     1      34.030 -22.693 -18.713  0.00  0.00    +0.101 C 
ATOM      9  C   UNL     1      35.334 -23.048 -16.667  0.00  0.00    +0.090 C 
ATOM     10  C   UNL     1      36.663 -23.929 -15.012  0.00  0.00    +0.170 C 
ATOM     11  C   UNL     1      34.334 -23.997 -14.830  0.00  0.00    +0.113 C 
ATOM     12  C   UNL     1      35.559 -24.303 -14.272  0.00  0.00    +0.078 C 
ENDROOT
BRANCH  12  15
ATOM     13  O   UNL     1      34.897 -24.712 -12.057  0.00  0.00    -0.268 OA
ATOM     14  N   UNL     1      36.701 -25.905 -12.854  0.00  0.00    -0.194 N 
ATOM     15  C   UNL     1      35.679 -24.974 -12.993  0.00  0.00    +0.267 C 
ATOM     16  H   UNL     1      37.315 -26.110 -13.597  0.00  0.00    +0.183 HD
BRANCH  14  17
ATOM     17  O   UNL     1      36.818 -26.541 -11.610  0.00  0.00    -0.295 OA
ATOM     18  H   UNL     1      35.956 -26.900 -11.348  0.00  0.00    +0.241 HD
ENDBRANCH  14  17
ENDBRANCH  12  15
BRANCH   4  19
ATOM     19  C   UNL     1      34.661 -20.007 -21.441  0.00  0.00    -0.081 C 
BRANCH  19  20
ATOM     20  N   UNL     1      35.859 -19.216 -21.678  0.00  0.00    +0.386 N 
ATOM     21  H   UNL     1      36.679 -19.818 -21.589  0.00  0.00    -0.084 HD
ATOM     22  H   UNL     1      35.893 -18.463 -20.991  0.00  0.00    -0.084 HD
BRANCH  20  23
ATOM     23  C   UNL     1      35.842 -18.628 -23.011  0.00  0.00    -0.053 C 
BRANCH  23  25
ATOM     24  N   UNL     1      34.644 -15.262 -22.254  0.00  0.00    -0.284 N 
ATOM     25  C   UNL     1      35.253 -17.245 -22.971  0.00  0.00    -0.028 C 
ATOM     26  C   UNL     1      34.594 -16.603 -24.035  0.00  0.00    +0.009 C 
ATOM     27  C   UNL     1      35.279 -16.419 -21.889  0.00  0.00    +0.059 C 
ATOM     28  C   UNL     1      34.216 -15.346 -23.559  0.00  0.00    +0.051 C 
ATOM     29  C   UNL     1      34.273 -16.950 -25.362  0.00  0.00    +0.001 C 
ATOM     30  C   UNL     1      33.529 -14.415 -24.347  0.00  0.00    +0.015 C 
ATOM     31  C   UNL     1      34.461 -14.123 -21.380  0.00  0.00    +0.117 C 
ATOM     32  C   UNL     1      33.586 -16.029 -26.163  0.00  0.00    +0.000 C 
ATOM     33  C   UNL     1      33.221 -14.781 -25.660  0.00  0.00    +0.001 C 
ENDBRANCH  23  25
ENDBRANCH  20  23
ENDBRANCH  19  20
ENDBRANCH   4  19
TORSDOF 6
ENDMDL
MODEL 3
REMARK VINA RESULT:     -10.9      2.420      2.780
REMARK  Name = 11538455
REMARK  6 active torsions:
REMARK  status: ('A' for Active; 'I' for Inactive)
REMARK    1  A    between atoms: C_4  and  C_19
REMARK    2  A    between atoms: C_12  and  C_15
REMARK    3  A    between atoms: N_14  and  O_17
REMARK    4  A    between atoms: C_19  and  N_20
REMARK    5  A    between atoms: N_20  and  C_23
REMARK    6  A    between atoms: C_23  and  C_25
REMARK                            x       y       z     vdW  Elec       q    Type
REMARK                         _______ _______ _______ _____ _____    ______ ____
ROOT
ATOM      1  N   UNL     1      33.669 -22.117 -18.668  0.00  0.00    -0.253 N 
ATOM      2  N   UNL     1      33.778 -23.622 -16.853  0.00  0.00    -0.203 NA
ATOM      3  N   UNL     1      31.691 -22.587 -17.469  0.00  0.00    -0.180 NA
ATOM      4  C   UNL     1      34.956 -20.811 -20.909  0.00  0.00    -0.018 C 
ATOM      5  C   UNL     1      35.712 -21.117 -19.612  0.00  0.00    +0.020 C 
ATOM      6  C   UNL     1      33.472 -20.597 -20.596  0.00  0.00    +0.020 C 
ATOM      7  C   UNL     1      35.108 -22.313 -18.876  0.00  0.00    +0.101 C 
ATOM      8  C   UNL     1      32.876 -21.797 -19.863  0.00  0.00    +0.101 C 
ATOM      9  C   UNL     1      33.024 -22.798 -17.629  0.00  0.00    +0.090 C 
ATOM     10  C   UNL     1      33.126 -24.260 -15.859  0.00  0.00    +0.170 C 
ATOM     11  C   UNL     1      31.102 -23.258 -16.457  0.00  0.00    +0.113 C 
ATOM     12  C   UNL     1      31.776 -24.116 -15.612  0.00  0.00    +0.078 C 
ENDROOT
BRANCH  12  15
ATOM     13  O   UNL     1      30.621 -25.954 -14.717  0.00  0.00    -0.268 OA
ATOM     14  N   UNL     1      31.024 -24.175 -13.307  0.00  0.00    -0.194 N 
ATOM     15  C   UNL     1      31.108 -24.820 -14.536  0.00  0.00    +0.267 C 
ATOM     16  H   UNL     1      31.411 -23.280 -13.169  0.00  0.00    +0.183 HD
BRANCH  14  17
ATOM     17  O   UNL     1      30.366 -24.858 -12.274  0.00  0.00    -0.295 OA
ATOM     18  H   UNL     1      30.952 -24.922 -11.504  0.00  0.00    +0.241 HD
ENDBRANCH  14  17
ENDBRANCH  12  15
BRANCH   4  19
ATOM     19  C   UNL     1      35.547 -19.589 -21.608  0.00  0.00    -0.081 C 
BRANCH  19  20
ATOM     20  N   UNL     1      34.834 -19.302 -22.843  0.00  0.00    +0.386 N 
ATOM     21  H   UNL     1      33.968 -18.809 -22.621  0.00  0.00    -0.084 HD
ATOM     22  H   UNL     1      34.632 -20.184 -23.314  0.00  0.00    -0.084 HD
BRANCH  20  23
ATOM     23  C   UNL     1      35.639 -18.474 -23.731  0.00  0.00    -0.053 C 
BRANCH  23  25
ATOM     24  N   UNL     1      33.865 -15.592 -25.102  0.00  0.00    -0.284 N 
ATOM     25  C   UNL     1      34.935 -17.180 -24.030  0.00  0.00    -0.028 C 
ATOM     26  C   UNL     1      34.705 -16.140 -23.110  0.00  0.00    +0.009 C 
ATOM     27  C   UNL     1      34.418 -16.836 -25.241  0.00  0.00    +0.059 C 
ATOM     28  C   UNL     1      34.025 -15.143 -23.811  0.00  0.00    +0.051 C 
ATOM     29  C   UNL     1      35.000 -15.932 -21.748  0.00  0.00    +0.001 C 
ATOM     30  C   UNL     1      33.624 -13.941 -23.216  0.00  0.00    +0.015 C 
ATOM     31  C   UNL     1      33.207 -14.868 -26.169  0.00  0.00    +0.117 C 
ATOM     32  C   UNL     1      34.606 -14.734 -21.139  0.00  0.00    +0.000 C 
ATOM     33  C   UNL     1      33.928 -13.755 -21.864  0.00  0.00    +0.001 C 
ENDBRANCH  23  25
ENDBRANCH  20  23
ENDBRANCH  19  20
ENDBRANCH   4  19
TORSDOF 6
ENDMDL
MODEL 4
REMARK VINA RESULT:     -10.8      2.471      3.288
REMARK  Name = 11538455
REMARK  6 active torsions:
REMARK  status: ('A' for Active; 'I' for Inactive)
REMARK    1  A    between atoms: C_4  and  C_19
REMARK    2  A    between atoms: C_12  and  C_15
REMARK    3  A    between atoms: N_14  and  O_17
REMARK    4  A    between atoms: C_19  and  N_20
REMARK    5  A    between atoms: N_20  and  C_23
REMARK    6  A    between atoms: C_23  and  C_25
REMARK                            x       y       z     vdW  Elec       q    Type
REMARK                         _______ _______ _______ _____ _____    ______ ____
ROOT
ATOM      1  N   UNL     1      34.046 -22.473 -18.083  0.00  0.00    -0.253 N 
ATOM      2  N   UNL     1      33.640 -23.805 -16.177  0.00  0.00    -0.203 NA
ATOM      3  N   UNL     1      31.816 -22.776 -17.371  0.00  0.00    -0.180 NA
ATOM      4  C   UNL     1      35.899 -21.417 -20.041  0.00  0.00    -0.018 C 
ATOM      5  C   UNL     1      36.303 -21.621 -18.577  0.00  0.00    +0.020 C 
ATOM      6  C   UNL     1      34.396 -21.134 -20.121  0.00  0.00    +0.020 C 
ATOM      7  C   UNL     1      35.481 -22.726 -17.915  0.00  0.00    +0.101 C 
ATOM      8  C   UNL     1      33.582 -22.244 -19.458  0.00  0.00    +0.101 C 
ATOM      9  C   UNL     1      33.136 -23.037 -17.181  0.00  0.00    +0.090 C 
ATOM     10  C   UNL     1      32.736 -24.330 -15.324  0.00  0.00    +0.170 C 
ATOM     11  C   UNL     1      30.968 -23.333 -16.482  0.00  0.00    +0.113 C 
ATOM     12  C   UNL     1      31.375 -24.127 -15.429  0.00  0.00    +0.078 C 
ENDROOT
BRANCH  12  15
ATOM     13  O   UNL     1      30.635 -24.656 -13.264  0.00  0.00    -0.268 OA
ATOM     14  N   UNL     1      29.311 -25.335 -15.024  0.00  0.00    -0.194 N 
ATOM     15  C   UNL     1      30.433 -24.709 -14.493  0.00  0.00    +0.267 C 
ATOM     16  H   UNL     1      29.155 -25.374 -15.996  0.00  0.00    +0.183 HD
BRANCH  14  17
ATOM     17  O   UNL     1      28.411 -25.907 -14.114  0.00  0.00    -0.295 OA
ATOM     18  H   UNL     1      27.993 -25.207 -13.589  0.00  0.00    +0.241 HD
ENDBRANCH  14  17
ENDBRANCH  12  15
BRANCH   4  19
ATOM     19  C   UNL     1      36.701 -20.282 -20.674  0.00  0.00    -0.081 C 
BRANCH  19  20
ATOM     20  N   UNL     1      35.897 -19.074 -20.776  0.00  0.00    +0.386 N 
ATOM     21  H   UNL     1      35.869 -18.614 -19.865  0.00  0.00    -0.084 HD
ATOM     22  H   UNL     1      34.957 -19.332 -21.075  0.00  0.00    -0.084 HD
BRANCH  20  23
ATOM     23  C   UNL     1      36.459 -18.154 -21.756  0.00  0.00    -0.053 C 
BRANCH  23  25
ATOM     24  N   UNL     1      34.379 -18.568 -24.728  0.00  0.00    -0.284 N 
ATOM     25  C   UNL     1      35.557 -18.042 -22.954  0.00  0.00    -0.028 C 
ATOM     26  C   UNL     1      34.946 -16.860 -23.412  0.00  0.00    +0.009 C 
ATOM     27  C   UNL     1      35.204 -19.078 -23.762  0.00  0.00    +0.059 C 
ATOM     28  C   UNL     1      34.203 -17.217 -24.539  0.00  0.00    +0.051 C 
ATOM     29  C   UNL     1      34.940 -15.515 -22.994  0.00  0.00    +0.001 C 
ATOM     30  C   UNL     1      33.451 -16.291 -25.273  0.00  0.00    +0.015 C 
ATOM     31  C   UNL     1      33.783 -19.354 -25.788  0.00  0.00    +0.117 C 
ATOM     32  C   UNL     1      34.193 -14.577 -23.717  0.00  0.00    +0.000 C 
ATOM     33  C   UNL     1      33.460 -14.962 -24.839  0.00  0.00    +0.001 C 
ENDBRANCH  23  25
ENDBRANCH  20  23
ENDBRANCH  19  20
ENDBRANCH   4  19
TORSDOF 6
ENDMDL
MODEL 5
REMARK VINA RESULT:     -10.7      2.453      3.770
REMARK  Name = 11538455
REMARK  6 active torsions:
REMARK  status: ('A' for Active; 'I' for Inactive)
REMARK    1  A    between atoms: C_4  and  C_19
REMARK    2  A    between atoms: C_12  and  C_15
REMARK    3  A    between atoms: N_14  and  O_17
REMARK    4  A    between atoms: C_19  and  N_20
REMARK    5  A    between atoms: N_20  and  C_23
REMARK    6  A    between atoms: C_23  and  C_25
REMARK                            x       y       z     vdW  Elec       q    Type
REMARK                         _______ _______ _______ _____ _____    ______ ____
ROOT
ATOM      1  N   UNL     1      34.221 -22.707 -17.669  0.00  0.00    -0.253 N 
ATOM      2  N   UNL     1      33.770 -23.886 -15.675  0.00  0.00    -0.203 NA
ATOM      3  N   UNL     1      31.971 -23.090 -17.067  0.00  0.00    -0.180 NA
ATOM      4  C   UNL     1      36.133 -21.713 -19.603  0.00  0.00    -0.018 C 
ATOM      5  C   UNL     1      36.451 -21.757 -18.105  0.00  0.00    +0.020 C 
ATOM      6  C   UNL     1      34.624 -21.537 -19.800  0.00  0.00    +0.020 C 
ATOM      7  C   UNL     1      35.655 -22.850 -17.392  0.00  0.00    +0.101 C 
ATOM      8  C   UNL     1      33.836 -22.634 -19.085  0.00  0.00    +0.101 C 
ATOM      9  C   UNL     1      33.289 -23.246 -16.774  0.00  0.00    +0.090 C 
ATOM     10  C   UNL     1      32.845 -24.390 -14.832  0.00  0.00    +0.170 C 
ATOM     11  C   UNL     1      31.101 -23.619 -16.182  0.00  0.00    +0.113 C 
ATOM     12  C   UNL     1      31.484 -24.287 -15.036  0.00  0.00    +0.078 C 
ENDROOT
BRANCH  12  15
ATOM     13  O   UNL     1      30.739 -24.846 -12.881  0.00  0.00    -0.268 OA
ATOM     14  N   UNL     1      29.355 -25.380 -14.645  0.00  0.00    -0.194 N 
ATOM     15  C   UNL     1      30.519 -24.843 -14.109  0.00  0.00    +0.267 C 
ATOM     16  H   UNL     1      29.186 -25.375 -15.616  0.00  0.00    +0.183 HD
BRANCH  14  17
ATOM     17  O   UNL     1      28.432 -25.928 -13.743  0.00  0.00    -0.295 OA
ATOM     18  H   UNL     1      28.096 -25.229 -13.160  0.00  0.00    +0.241 HD
ENDBRANCH  14  17
ENDBRANCH  12  15
BRANCH   4  19
ATOM     19  C   UNL     1      36.905 -20.589 -20.290  0.00  0.00    -0.081 C 
BRANCH  19  20
ATOM     20  N   UNL     1      35.996 -19.611 -20.866  0.00  0.00    +0.386 N 
ATOM     21  H   UNL     1      35.453 -19.179 -20.117  0.00  0.00    -0.084 HD
ATOM     22  H   UNL     1      35.379 -20.087 -21.524  0.00  0.00    -0.084 HD
BRANCH  20  23
ATOM     23  C   UNL     1      36.728 -18.574 -21.582  0.00  0.00    -0.053 C 
BRANCH  23  25
ATOM     24  N   UNL     1      34.650 -16.191 -23.408  0.00  0.00    -0.284 N 
ATOM     25  C   UNL     1      35.809 -17.818 -22.501  0.00  0.00    -0.028 C 
ATOM     26  C   UNL     1      35.125 -18.361 -23.604  0.00  0.00    +0.009 C 
ATOM     27  C   UNL     1      35.514 -16.495 -22.391  0.00  0.00    +0.059 C 
ATOM     28  C   UNL     1      34.395 -17.312 -24.165  0.00  0.00    +0.051 C 
ATOM     29  C   UNL     1      35.042 -19.637 -24.195  0.00  0.00    +0.001 C 
ATOM     30  C   UNL     1      33.581 -17.475 -25.293  0.00  0.00    +0.015 C 
ATOM     31  C   UNL     1      34.095 -14.874 -23.641  0.00  0.00    +0.117 C 
ATOM     32  C   UNL     1      34.232 -19.816 -25.324  0.00  0.00    +0.000 C 
ATOM     33  C   UNL     1      33.514 -18.750 -25.863  0.00  0.00    +0.001 C 
ENDBRANCH  23  25
ENDBRANCH  20  23
ENDBRANCH  19  20
ENDBRANCH   4  19
TORSDOF 6
ENDMDL
MODEL 6
REMARK VINA RESULT:     -10.7      6.280     10.402
REMARK  Name = 11538455
REMARK  6 active torsions:
REMARK  status: ('A' for Active; 'I' for Inactive)
REMARK    1  A    between atoms: C_4  and  C_19
REMARK    2  A    between atoms: C_12  and  C_15
REMARK    3  A    between atoms: N_14  and  O_17
REMARK    4  A    between atoms: C_19  and  N_20
REMARK    5  A    between atoms: N_20  and  C_23
REMARK    6  A    between atoms: C_23  and  C_25
REMARK                            x       y       z     vdW  Elec       q    Type
REMARK                         _______ _______ _______ _____ _____    ______ ____
ROOT
ATOM      1  N   UNL     1      33.468 -13.570 -22.067  0.00  0.00    -0.253 N 
ATOM      2  N   UNL     1      34.665 -15.332 -23.085  0.00  0.00    -0.203 NA
ATOM      3  N   UNL     1      34.281 -15.319 -20.706  0.00  0.00    -0.180 NA
ATOM      4  C   UNL     1      31.910 -11.142 -22.312  0.00  0.00    -0.018 C 
ATOM      5  C   UNL     1      33.079 -11.448 -23.254  0.00  0.00    +0.020 C 
ATOM      6  C   UNL     1      32.163 -11.802 -20.953  0.00  0.00    +0.020 C 
ATOM      7  C   UNL     1      33.315 -12.952 -23.389  0.00  0.00    +0.101 C 
ATOM      8  C   UNL     1      32.397 -13.305 -21.097  0.00  0.00    +0.101 C 
ATOM      9  C   UNL     1      34.161 -14.781 -21.948  0.00  0.00    +0.090 C 
ATOM     10  C   UNL     1      35.329 -16.496 -22.934  0.00  0.00    +0.170 C 
ATOM     11  C   UNL     1      34.956 -16.484 -20.628  0.00  0.00    +0.113 C 
ATOM     12  C   UNL     1      35.507 -17.125 -21.719  0.00  0.00    +0.078 C 
ENDROOT
BRANCH  12  15
ATOM     13  O   UNL     1      37.198 -18.634 -22.333  0.00  0.00    -0.268 OA
ATOM     14  N   UNL     1      35.778 -19.278 -20.636  0.00  0.00    -0.194 N 
ATOM     15  C   UNL     1      36.226 -18.378 -21.596  0.00  0.00    +0.267 C 
ATOM     16  H   UNL     1      35.010 -19.071 -20.055  0.00  0.00    +0.183 HD
BRANCH  14  17
ATOM     17  O   UNL     1      36.470 -20.493 -20.532  0.00  0.00    -0.295 OA
ATOM     18  H   UNL     1      37.278 -20.453 -21.067  0.00  0.00    +0.241 HD
ENDBRANCH  14  17
ENDBRANCH  12  15
BRANCH   4  19
ATOM     19  C   UNL     1      31.716  -9.636 -22.158  0.00  0.00    -0.081 C 
BRANCH  19  20
ATOM     20  N   UNL     1      31.937  -9.223 -20.781  0.00  0.00    +0.386 N 
ATOM     21  H   UNL     1      32.262 -10.025 -20.240  0.00  0.00    -0.084 HD
ATOM     22  H   UNL     1      31.058  -8.869 -20.402  0.00  0.00    -0.084 HD
BRANCH  20  23
ATOM     23  C   UNL     1      32.935  -8.163 -20.706  0.00  0.00    -0.053 C 
BRANCH  23  25
ATOM     24  N   UNL     1      31.485  -5.250 -22.365  0.00  0.00    -0.284 N 
ATOM     25  C   UNL     1      32.544  -7.007 -21.585  0.00  0.00    -0.028 C 
ATOM     26  C   UNL     1      33.183  -6.634 -22.782  0.00  0.00    +0.009 C 
ATOM     27  C   UNL     1      31.510  -6.157 -21.339  0.00  0.00    +0.059 C 
ATOM     28  C   UNL     1      32.495  -5.517 -23.260  0.00  0.00    +0.051 C 
ATOM     29  C   UNL     1      34.279  -7.123 -23.520  0.00  0.00    +0.001 C 
ATOM     30  C   UNL     1      32.849  -4.862 -24.446  0.00  0.00    +0.015 C 
ATOM     31  C   UNL     1      30.527  -4.171 -22.474  0.00  0.00    +0.117 C 
ATOM     32  C   UNL     1      34.645  -6.479 -24.708  0.00  0.00    +0.000 C 
ATOM     33  C   UNL     1      33.939  -5.365 -25.161  0.00  0.00    +0.001 C 
ENDBRANCH  23  25
ENDBRANCH  20  23
ENDBRANCH  19  20
ENDBRANCH   4  19
TORSDOF 6
ENDMDL
MODEL 7
REMARK VINA RESULT:     -10.4      8.481     14.249
REMARK  Name = 11538455
REMARK  6 active torsions:
REMARK  status: ('A' for Active; 'I' for Inactive)
REMARK    1  A    between atoms: C_4  and  C_19
REMARK    2  A    between atoms: C_12  and  C_15
REMARK    3  A    between atoms: N_14  and  O_17
REMARK    4  A    between atoms: C_19  and  N_20
REMARK    5  A    between atoms: N_20  and  C_23
REMARK    6  A    between atoms: C_23  and  C_25
REMARK                            x       y       z     vdW  Elec       q    Type
REMARK                         _______ _______ _______ _____ _____    ______ ____
ROOT
ATOM      1  N   UNL     1      32.724  -9.306 -23.290  0.00  0.00    -0.253 N 
ATOM      2  N   UNL     1      33.208  -7.072 -23.880  0.00  0.00    -0.203 NA
ATOM      3  N   UNL     1      31.225  -7.609 -22.621  0.00  0.00    -0.180 NA
ATOM      4  C   UNL     1      33.505 -12.093 -23.214  0.00  0.00    -0.018 C 
ATOM      5  C   UNL     1      33.868 -11.186 -24.394  0.00  0.00    +0.020 C 
ATOM      6  C   UNL     1      32.199 -11.605 -22.578  0.00  0.00    +0.020 C 
ATOM      7  C   UNL     1      33.955  -9.719 -23.972  0.00  0.00    +0.101 C 
ATOM      8  C   UNL     1      32.295 -10.139 -22.158  0.00  0.00    +0.101 C 
ATOM      9  C   UNL     1      32.374  -7.950 -23.262  0.00  0.00    +0.090 C 
ATOM     10  C   UNL     1      32.839  -5.775 -23.836  0.00  0.00    +0.170 C 
ATOM     11  C   UNL     1      30.917  -6.296 -22.615  0.00  0.00    +0.113 C 
ATOM     12  C   UNL     1      31.694  -5.324 -23.212  0.00  0.00    +0.078 C 
ENDROOT
BRANCH  12  15
ATOM     13  O   UNL     1      31.811  -3.119 -24.009  0.00  0.00    -0.268 OA
ATOM     14  N   UNL     1      30.441  -3.513 -22.199  0.00  0.00    -0.194 N 
ATOM     15  C   UNL     1      31.331  -3.921 -23.185  0.00  0.00    +0.267 C 
ATOM     16  H   UNL     1      30.063  -4.151 -21.550  0.00  0.00    +0.183 HD
BRANCH  14  17
ATOM     17  O   UNL     1      30.103  -2.152 -22.170  0.00  0.00    -0.295 OA
ATOM     18  H   UNL     1      30.913  -1.617 -22.176  0.00  0.00    +0.241 HD
ENDBRANCH  14  17
ENDBRANCH  12  15
BRANCH   4  19
ATOM     19  C   UNL     1      33.382 -13.547 -23.662  0.00  0.00    -0.081 C 
BRANCH  19  20
ATOM     20  N   UNL     1      33.558 -14.453 -22.538  0.00  0.00    +0.386 N 
ATOM     21  H   UNL     1      32.959 -15.269 -22.670  0.00  0.00    -0.084 HD
ATOM     22  H   UNL     1      33.308 -13.961 -21.680  0.00  0.00    -0.084 HD
BRANCH  20  23
ATOM     23  C   UNL     1      34.944 -14.892 -22.433  0.00  0.00    -0.053 C 
BRANCH  23  25
ATOM     24  N   UNL     1      35.349 -18.477 -21.867  0.00  0.00    -0.284 N 
ATOM     25  C   UNL     1      35.028 -16.393 -22.474  0.00  0.00    -0.028 C 
ATOM     26  C   UNL     1      34.732 -17.200 -23.588  0.00  0.00    +0.009 C 
ATOM     27  C   UNL     1      35.402 -17.180 -21.430  0.00  0.00    +0.059 C 
ATOM     28  C   UNL     1      34.943 -18.518 -23.181  0.00  0.00    +0.051 C 
ATOM     29  C   UNL     1      34.305 -16.957 -24.909  0.00  0.00    +0.001 C 
ATOM     30  C   UNL     1      34.748 -19.613 -24.033  0.00  0.00    +0.015 C 
ATOM     31  C   UNL     1      35.675 -19.626 -21.050  0.00  0.00    +0.117 C 
ATOM     32  C   UNL     1      34.106 -18.042 -25.773  0.00  0.00    +0.000 C 
ATOM     33  C   UNL     1      34.325 -19.348 -25.338  0.00  0.00    +0.001 C 
ENDBRANCH  23  25
ENDBRANCH  20  23
ENDBRANCH  19  20
ENDBRANCH   4  19
TORSDOF 6
ENDMDL
MODEL 8
REMARK VINA RESULT:     -10.4      2.176      3.168
REMARK  Name = 11538455
REMARK  6 active torsions:
REMARK  status: ('A' for Active; 'I' for Inactive)
REMARK    1  A    between atoms: C_4  and  C_19
REMARK    2  A    between atoms: C_12  and  C_15
REMARK    3  A    between atoms: N_14  and  O_17
REMARK    4  A    between atoms: C_19  and  N_20
REMARK    5  A    between atoms: N_20  and  C_23
REMARK    6  A    between atoms: C_23  and  C_25
REMARK                            x       y       z     vdW  Elec       q    Type
REMARK                         _______ _______ _______ _____ _____    ______ ____
ROOT
ATOM      1  N   UNL     1      34.099 -21.919 -18.875  0.00  0.00    -0.253 N 
ATOM      2  N   UNL     1      34.183 -23.469 -17.097  0.00  0.00    -0.203 NA
ATOM      3  N   UNL     1      32.100 -22.434 -17.729  0.00  0.00    -0.180 NA
ATOM      4  C   UNL     1      35.421 -20.548 -21.055  0.00  0.00    -0.018 C 
ATOM      5  C   UNL     1      36.153 -20.881 -19.751  0.00  0.00    +0.020 C 
ATOM      6  C   UNL     1      33.930 -20.351 -20.767  0.00  0.00    +0.020 C 
ATOM      7  C   UNL     1      35.543 -22.100 -19.058  0.00  0.00    +0.101 C 
ATOM      8  C   UNL     1      33.328 -21.574 -20.077  0.00  0.00    +0.101 C 
ATOM      9  C   UNL     1      33.438 -22.631 -17.867  0.00  0.00    +0.090 C 
ATOM     10  C   UNL     1      33.515 -24.138 -16.133  0.00  0.00    +0.170 C 
ATOM     11  C   UNL     1      31.496 -23.134 -16.747  0.00  0.00    +0.113 C 
ATOM     12  C   UNL     1      32.159 -24.009 -15.910  0.00  0.00    +0.078 C 
ENDROOT
BRANCH  12  15
ATOM     13  O   UNL     1      30.252 -24.978 -14.942  0.00  0.00    -0.268 OA
ATOM     14  N   UNL     1      32.234 -25.165 -13.780  0.00  0.00    -0.194 N 
ATOM     15  C   UNL     1      31.475 -24.745 -14.866  0.00  0.00    +0.267 C 
ATOM     16  H   UNL     1      33.200 -24.980 -13.725  0.00  0.00    +0.183 HD
BRANCH  14  17
ATOM     17  O   UNL     1      31.563 -25.866 -12.767  0.00  0.00    -0.295 OA
ATOM     18  H   UNL     1      32.171 -26.498 -12.353  0.00  0.00    +0.241 HD
ENDBRANCH  14  17
ENDBRANCH  12  15
BRANCH   4  19
ATOM     19  C   UNL     1      36.017 -19.304 -21.710  0.00  0.00    -0.081 C 
BRANCH  19  20
ATOM     20  N   UNL     1      35.026 -18.244 -21.808  0.00  0.00    +0.386 N 
ATOM     21  H   UNL     1      34.305 -18.394 -21.102  0.00  0.00    -0.084 HD
ATOM     22  H   UNL     1      34.619 -18.264 -22.743  0.00  0.00    -0.084 HD
BRANCH  20  23
ATOM     23  C   UNL     1      35.635 -16.937 -21.596  0.00  0.00    -0.053 C 
BRANCH  23  25
ATOM     24  N   UNL     1      33.827 -14.000 -22.795  0.00  0.00    -0.284 N 
ATOM     25  C   UNL     1      34.875 -15.873 -22.337  0.00  0.00    -0.028 C 
ATOM     26  C   UNL     1      34.452 -15.950 -23.677  0.00  0.00    +0.009 C 
ATOM     27  C   UNL     1      34.489 -14.680 -21.808  0.00  0.00    +0.059 C 
ATOM     28  C   UNL     1      33.789 -14.752 -23.947  0.00  0.00    +0.051 C 
ATOM     29  C   UNL     1      34.559 -16.912 -24.701  0.00  0.00    +0.001 C 
ATOM     30  C   UNL     1      33.224 -14.465 -25.195  0.00  0.00    +0.015 C 
ATOM     31  C   UNL     1      33.256 -12.680 -22.633  0.00  0.00    +0.117 C 
ATOM     32  C   UNL     1      33.999 -16.640 -25.956  0.00  0.00    +0.000 C 
ATOM     33  C   UNL     1      33.342 -15.433 -26.197  0.00  0.00    +0.001 C 
ENDBRANCH  23  25
ENDBRANCH  20  23
ENDBRANCH  19  20
ENDBRANCH   4  19
TORSDOF 6
ENDMDL
MODEL 9
REMARK VINA RESULT:     -10.2      8.859     14.232
REMARK  Name = 11538455
REMARK  6 active torsions:
REMARK  status: ('A' for Active; 'I' for Inactive)
REMARK    1  A    between atoms: C_4  and  C_19
REMARK    2  A    between atoms: C_12  and  C_15
REMARK    3  A    between atoms: N_14  and  O_17
REMARK    4  A    between atoms: C_19  and  N_20
REMARK    5  A    between atoms: N_20  and  C_23
REMARK    6  A    between atoms: C_23  and  C_25
REMARK                            x       y       z     vdW  Elec       q    Type
REMARK                         _______ _______ _______ _____ _____    ______ ____
ROOT
ATOM      1  N   UNL     1      32.365  -9.281 -22.909  0.00  0.00    -0.253 N 
ATOM      2  N   UNL     1      32.978  -7.180 -23.795  0.00  0.00    -0.203 NA
ATOM      3  N   UNL     1      31.061  -7.394 -22.350  0.00  0.00    -0.180 NA
ATOM      4  C   UNL     1      32.927 -12.098 -22.550  0.00  0.00    -0.018 C 
ATOM      5  C   UNL     1      33.268 -11.368 -23.853  0.00  0.00    +0.020 C 
ATOM      6  C   UNL     1      31.716 -11.429 -21.892  0.00  0.00    +0.020 C 
ATOM      7  C   UNL     1      33.503  -9.876 -23.618  0.00  0.00    +0.101 C 
ATOM      8  C   UNL     1      31.960  -9.938 -21.659  0.00  0.00    +0.101 C 
ATOM      9  C   UNL     1      32.126  -7.906 -23.021  0.00  0.00    +0.090 C 
ATOM     10  C   UNL     1      32.717  -5.860 -23.884  0.00  0.00    +0.170 C 
ATOM     11  C   UNL     1      30.859  -6.067 -22.483  0.00  0.00    +0.113 C 
ATOM     12  C   UNL     1      31.663  -5.242 -23.243  0.00  0.00    +0.078 C 
ENDROOT
BRANCH  12  15
ATOM     13  O   UNL     1      32.009  -3.133 -24.217  0.00  0.00    -0.268 OA
ATOM     14  N   UNL     1      30.503  -3.255 -22.475  0.00  0.00    -0.194 N 
ATOM     15  C   UNL     1      31.415  -3.818 -23.360  0.00  0.00    +0.267 C 
ATOM     16  H   UNL     1      30.036  -3.801 -21.801  0.00  0.00    +0.183 HD
BRANCH  14  17
ATOM     17  O   UNL     1      30.278  -1.875 -22.586  0.00  0.00    -0.295 OA
ATOM     18  H   UNL     1      29.407  -1.659 -22.220  0.00  0.00    +0.241 HD
ENDBRANCH  14  17
ENDBRANCH  12  15
BRANCH   4  19
ATOM     19  C   UNL     1      32.654 -13.578 -22.811  0.00  0.00    -0.081 C 
BRANCH  19  20
ATOM     20  N   UNL     1      33.336 -14.027 -24.015  0.00  0.00    +0.386 N 
ATOM     21  H   UNL     1      33.490 -13.227 -24.629  0.00  0.00    -0.084 HD
ATOM     22  H   UNL     1      32.754 -14.725 -24.477  0.00  0.00    -0.084 HD
BRANCH  20  23
ATOM     23  C   UNL     1      34.622 -14.634 -23.692  0.00  0.00    -0.053 C 
BRANCH  23  25
ATOM     24  N   UNL     1      34.241 -18.088 -24.815  0.00  0.00    -0.284 N 
ATOM     25  C   UNL     1      34.568 -16.123 -23.894  0.00  0.00    -0.028 C 
ATOM     26  C   UNL     1      34.957 -17.092 -22.951  0.00  0.00    +0.009 C 
ATOM     27  C   UNL     1      34.134 -16.739 -25.027  0.00  0.00    +0.059 C 
ATOM     28  C   UNL     1      34.741 -18.332 -23.556  0.00  0.00    +0.051 C 
ATOM     29  C   UNL     1      35.473 -17.057 -21.641  0.00  0.00    +0.001 C 
ATOM     30  C   UNL     1      35.016 -19.545 -22.912  0.00  0.00    +0.015 C 
ATOM     31  C   UNL     1      33.878 -19.097 -25.786  0.00  0.00    +0.117 C 
ATOM     32  C   UNL     1      35.753 -18.262 -20.984  0.00  0.00    +0.000 C 
ATOM     33  C   UNL     1      35.527 -19.486 -21.613  0.00  0.00    +0.001 C 
ENDBRANCH  23  25
ENDBRANCH  20  23
ENDBRANCH  19  20
ENDBRANCH   4  19
TORSDOF 6
ENDMDL
