MODEL 1
REMARK VINA RESULT:     -11.3      0.000      0.000
REMARK  Name = 5312137
REMARK  3 active torsions:
REMARK  status: ('A' for Active; 'I' for Inactive)
REMARK    1  A    between atoms: C_3  and  C_20
REMARK    2  A    between atoms: C_7  and  S_23
REMARK    3  A    between atoms: S_23  and  N_26
REMARK                            x       y       z     vdW  Elec       q    Type
REMARK                         _______ _______ _______ _____ _____    ______ ____
ROOT
ATOM      1  O   UNL     1      32.893 -21.266 -20.456  0.00  0.00    -0.270 OA
ATOM      2  N   UNL     1      32.897 -22.610 -18.513  0.00  0.00    -0.280 N 
ATOM      3  C   UNL     1      35.767 -20.874 -19.789  0.00  0.00    +0.019 C 
ATOM      4  C   UNL     1      34.877 -21.621 -19.093  0.00  0.00    +0.056 C 
ATOM      5  C   UNL     1      35.096 -22.398 -17.877  0.00  0.00    +0.019 C 
ATOM      6  C   UNL     1      33.862 -22.977 -17.569  0.00  0.00    +0.051 C 
ATOM      7  C   UNL     1      36.041 -23.446 -15.958  0.00  0.00    +0.122 C 
ATOM      8  C   UNL     1      36.201 -22.622 -17.078  0.00  0.00    +0.021 C 
ATOM      9  C   UNL     1      33.438 -21.771 -19.492  0.00  0.00    +0.250 C 
ATOM     10  C   UNL     1      33.683 -23.792 -16.469  0.00  0.00    +0.016 C 
ATOM     11  C   UNL     1      34.794 -24.025 -15.656  0.00  0.00    +0.021 C 
ATOM     12  H   UNL     1      31.957 -22.905 -18.491  0.00  0.00    +0.155 HD
ENDROOT
BRANCH   3  20
ATOM     13  N   UNL     1      35.610 -18.782 -20.914  0.00  0.00    -0.316 N 
ATOM     14  C   UNL     1      35.297 -18.267 -22.141  0.00  0.00    +0.021 C 
ATOM     15  C   UNL     1      34.963 -19.311 -22.980  0.00  0.00    -0.012 C 
ATOM     16  C   UNL     1      35.288 -16.822 -22.488  0.00  0.00    +0.041 C 
ATOM     17  C   UNL     1      34.583 -19.102 -24.404  0.00  0.00    +0.027 C 
ATOM     18  C   UNL     1      35.228 -16.656 -24.019  0.00  0.00    +0.006 C 
ATOM     19  C   UNL     1      34.224 -17.627 -24.672  0.00  0.00    +0.005 C 
ATOM     20  C   UNL     1      35.486 -20.148 -20.957  0.00  0.00    +0.048 C 
ATOM     21  C   UNL     1      35.087 -20.504 -22.229  0.00  0.00    +0.011 C 
ATOM     22  H   UNL     1      35.881 -18.256 -20.127  0.00  0.00    +0.152 HD
ENDBRANCH   3  20
BRANCH   7  23
ATOM     23  S   UNL     1      37.410 -23.759 -14.916  0.00  0.00    +0.063 S 
ATOM     24  O   UNL     1      38.611 -23.795 -15.745  0.00  0.00    -0.153 OA
ATOM     25  O   UNL     1      37.358 -22.818 -13.804  0.00  0.00    -0.153 OA
BRANCH  23  26
ATOM     26  N   UNL     1      37.099 -25.352 -14.317  0.00  0.00    -0.153 NA
ATOM     27  C   UNL     1      37.798 -26.483 -14.979  0.00  0.00    +0.115 C 
ATOM     28  C   UNL     1      37.022 -25.530 -12.845  0.00  0.00    +0.115 C 
ENDBRANCH  23  26
ENDBRANCH   7  23
TORSDOF 3
ENDMDL
MODEL 2
REMARK VINA RESULT:     -10.2      8.770     13.493
REMARK  Name = 5312137
REMARK  3 active torsions:
REMARK  status: ('A' for Active; 'I' for Inactive)
REMARK    1  A    between atoms: C_3  and  C_20
REMARK    2  A    between atoms: C_7  and  S_23
REMARK    3  A    between atoms: S_23  and  N_26
REMARK                            x       y       z     vdW  Elec       q    Type
REMARK                         _______ _______ _______ _____ _____    ______ ____
ROOT
ATOM      1  O   UNL     1      32.175 -13.990 -21.719  0.00  0.00    -0.270 OA
ATOM      2  N   UNL     1      31.699 -11.859 -20.819  0.00  0.00    -0.280 N 
ATOM      3  C   UNL     1      33.493 -12.419 -23.877  0.00  0.00    +0.019 C 
ATOM      4  C   UNL     1      32.863 -11.915 -22.788  0.00  0.00    +0.056 C 
ATOM      5  C   UNL     1      32.677 -10.518 -22.410  0.00  0.00    +0.019 C 
ATOM      6  C   UNL     1      31.965 -10.541 -21.208  0.00  0.00    +0.051 C 
ATOM      7  C   UNL     1      32.691  -8.137 -22.329  0.00  0.00    +0.122 C 
ATOM      8  C   UNL     1      33.049  -9.319 -22.987  0.00  0.00    +0.021 C 
ATOM      9  C   UNL     1      32.219 -12.774 -21.739  0.00  0.00    +0.250 C 
ATOM     10  C   UNL     1      31.602  -9.388 -20.542  0.00  0.00    +0.016 C 
ATOM     11  C   UNL     1      31.974  -8.171 -21.118  0.00  0.00    +0.021 C 
ATOM     12  H   UNL     1      31.210 -12.109 -20.001  0.00  0.00    +0.155 HD
ENDROOT
BRANCH   3  20
ATOM     13  N   UNL     1      34.449 -14.540 -23.374  0.00  0.00    -0.316 N 
ATOM     14  C   UNL     1      34.452 -15.829 -23.831  0.00  0.00    +0.021 C 
ATOM     15  C   UNL     1      33.637 -15.900 -24.943  0.00  0.00    -0.012 C 
ATOM     16  C   UNL     1      35.233 -16.946 -23.240  0.00  0.00    +0.041 C 
ATOM     17  C   UNL     1      33.402 -17.169 -25.683  0.00  0.00    +0.027 C 
ATOM     18  C   UNL     1      34.721 -18.288 -23.798  0.00  0.00    +0.006 C 
ATOM     19  C   UNL     1      34.460 -18.229 -25.316  0.00  0.00    +0.005 C 
ATOM     20  C   UNL     1      33.635 -13.782 -24.179  0.00  0.00    +0.048 C 
ATOM     21  C   UNL     1      33.116 -14.601 -25.160  0.00  0.00    +0.011 C 
ATOM     22  H   UNL     1      34.950 -14.210 -22.594  0.00  0.00    +0.152 HD
ENDBRANCH   3  20
BRANCH   7  23
ATOM     23  S   UNL     1      33.140  -6.595 -23.020  0.00  0.00    +0.063 S 
ATOM     24  O   UNL     1      32.680  -5.544 -22.119  0.00  0.00    -0.153 OA
ATOM     25  O   UNL     1      34.556  -6.648 -23.365  0.00  0.00    -0.153 OA
BRANCH  23  26
ATOM     26  N   UNL     1      32.211  -6.526 -24.478  0.00  0.00    -0.153 NA
ATOM     27  C   UNL     1      30.800  -6.985 -24.415  0.00  0.00    +0.115 C 
ATOM     28  C   UNL     1      32.367  -5.324 -25.335  0.00  0.00    +0.115 C 
ENDBRANCH  23  26
ENDBRANCH   7  23
TORSDOF 3
ENDMDL
MODEL 3
REMARK VINA RESULT:     -10.1      2.731      8.696
REMARK  Name = 5312137
REMARK  3 active torsions:
REMARK  status: ('A' for Active; 'I' for Inactive)
REMARK    1  A    between atoms: C_3  and  C_20
REMARK    2  A    between atoms: C_7  and  S_23
REMARK    3  A    between atoms: S_23  and  N_26
REMARK                            x       y       z     vdW  Elec       q    Type
REMARK                         _______ _______ _______ _____ _____    ______ ____
ROOT
ATOM      1  O   UNL     1      34.451 -23.682 -16.494  0.00  0.00    -0.270 OA
ATOM      2  N   UNL     1      33.485 -22.628 -18.375  0.00  0.00    -0.280 N 
ATOM      3  C   UNL     1      36.883 -22.174 -17.313  0.00  0.00    +0.019 C 
ATOM      4  C   UNL     1      35.679 -22.151 -17.934  0.00  0.00    +0.056 C 
ATOM      5  C   UNL     1      35.283 -21.406 -19.123  0.00  0.00    +0.019 C 
ATOM      6  C   UNL     1      33.943 -21.731 -19.348  0.00  0.00    +0.051 C 
ATOM      7  C   UNL     1      35.234 -19.989 -21.039  0.00  0.00    +0.122 C 
ATOM      8  C   UNL     1      35.947 -20.533 -19.963  0.00  0.00    +0.021 C 
ATOM      9  C   UNL     1      34.495 -22.943 -17.460  0.00  0.00    +0.250 C 
ATOM     10  C   UNL     1      33.221 -21.208 -20.401  0.00  0.00    +0.016 C 
ATOM     11  C   UNL     1      33.884 -20.324 -21.255  0.00  0.00    +0.021 C 
ATOM     12  H   UNL     1      32.570 -22.991 -18.340  0.00  0.00    +0.155 HD
ENDROOT
BRANCH   3  20
ATOM     13  N   UNL     1      36.551 -22.604 -14.995  0.00  0.00    -0.316 N 
ATOM     14  C   UNL     1      36.990 -23.438 -14.005  0.00  0.00    +0.021 C 
ATOM     15  C   UNL     1      37.930 -24.295 -14.542  0.00  0.00    -0.012 C 
ATOM     16  C   UNL     1      36.547 -23.394 -12.588  0.00  0.00    +0.041 C 
ATOM     17  C   UNL     1      38.604 -25.349 -13.736  0.00  0.00    +0.027 C 
ATOM     18  C   UNL     1      36.988 -24.683 -11.867  0.00  0.00    +0.006 C 
ATOM     19  C   UNL     1      38.432 -25.088 -12.226  0.00  0.00    +0.005 C 
ATOM     20  C   UNL     1      37.196 -22.918 -16.165  0.00  0.00    +0.048 C 
ATOM     21  C   UNL     1      38.057 -23.966 -15.913  0.00  0.00    +0.011 C 
ATOM     22  H   UNL     1      35.880 -21.891 -14.885  0.00  0.00    +0.152 HD
ENDBRANCH   3  20
BRANCH   7  23
ATOM     23  S   UNL     1      36.032 -18.880 -22.129  0.00  0.00    +0.063 S 
ATOM     24  O   UNL     1      37.394 -18.673 -21.649  0.00  0.00    -0.153 OA
ATOM     25  O   UNL     1      35.839 -19.365 -23.490  0.00  0.00    -0.153 OA
BRANCH  23  26
ATOM     26  N   UNL     1      35.140 -17.411 -21.926  0.00  0.00    -0.153 NA
ATOM     27  C   UNL     1      35.203 -16.748 -20.599  0.00  0.00    +0.115 C 
ATOM     28  C   UNL     1      35.169 -16.430 -23.040  0.00  0.00    +0.115 C 
ENDBRANCH  23  26
ENDBRANCH   7  23
TORSDOF 3
ENDMDL
MODEL 4
REMARK VINA RESULT:      -9.9      5.736      9.269
REMARK  Name = 5312137
REMARK  3 active torsions:
REMARK  status: ('A' for Active; 'I' for Inactive)
REMARK    1  A    between atoms: C_3  and  C_20
REMARK    2  A    between atoms: C_7  and  S_23
REMARK    3  A    between atoms: S_23  and  N_26
REMARK                            x       y       z     vdW  Elec       q    Type
REMARK                         _______ _______ _______ _____ _____    ______ ____
ROOT
ATOM      1  O   UNL     1      32.851 -13.075 -25.511  0.00  0.00    -0.270 OA
ATOM      2  N   UNL     1      33.471 -15.350 -25.657  0.00  0.00    -0.280 N 
ATOM      3  C   UNL     1      34.074 -13.258 -22.804  0.00  0.00    +0.019 C 
ATOM      4  C   UNL     1      33.983 -14.259 -23.712  0.00  0.00    +0.056 C 
ATOM      5  C   UNL     1      34.448 -15.637 -23.595  0.00  0.00    +0.019 C 
ATOM      6  C   UNL     1      34.112 -16.255 -24.803  0.00  0.00    +0.051 C 
ATOM      7  C   UNL     1      35.391 -17.689 -22.836  0.00  0.00    +0.122 C 
ATOM      8  C   UNL     1      35.090 -16.343 -22.596  0.00  0.00    +0.021 C 
ATOM      9  C   UNL     1      33.349 -14.091 -25.062  0.00  0.00    +0.250 C 
ATOM     10  C   UNL     1      34.399 -17.581 -25.060  0.00  0.00    +0.016 C 
ATOM     11  C   UNL     1      35.048 -18.301 -24.056  0.00  0.00    +0.021 C 
ATOM     12  H   UNL     1      33.149 -15.572 -26.561  0.00  0.00    +0.155 HD
ENDROOT
BRANCH   3  20
ATOM     13  N   UNL     1      34.457 -11.024 -23.531  0.00  0.00    -0.316 N 
ATOM     14  C   UNL     1      33.813  -9.821 -23.624  0.00  0.00    +0.021 C 
ATOM     15  C   UNL     1      32.534  -9.972 -23.126  0.00  0.00    -0.012 C 
ATOM     16  C   UNL     1      34.414  -8.565 -24.142  0.00  0.00    +0.041 C 
ATOM     17  C   UNL     1      31.553  -8.853 -23.093  0.00  0.00    +0.027 C 
ATOM     18  C   UNL     1      33.302  -7.532 -24.411  0.00  0.00    +0.006 C 
ATOM     19  C   UNL     1      32.254  -7.494 -23.281  0.00  0.00    +0.005 C 
ATOM     20  C   UNL     1      33.602 -11.948 -22.983  0.00  0.00    +0.048 C 
ATOM     21  C   UNL     1      32.401 -11.323 -22.724  0.00  0.00    +0.011 C 
ATOM     22  H   UNL     1      35.384 -11.198 -23.812  0.00  0.00    +0.152 HD
ENDBRANCH   3  20
BRANCH   7  23
ATOM     23  S   UNL     1      36.203 -18.623 -21.602  0.00  0.00    +0.063 S 
ATOM     24  O   UNL     1      37.514 -19.008 -22.114  0.00  0.00    -0.153 OA
ATOM     25  O   UNL     1      36.135 -17.879 -20.350  0.00  0.00    -0.153 OA
BRANCH  23  26
ATOM     26  N   UNL     1      35.221 -20.041 -21.464  0.00  0.00    -0.153 NA
ATOM     27  C   UNL     1      35.698 -21.121 -20.563  0.00  0.00    +0.115 C 
ATOM     28  C   UNL     1      33.751 -19.853 -21.378  0.00  0.00    +0.115 C 
ENDBRANCH  23  26
ENDBRANCH   7  23
TORSDOF 3
ENDMDL
MODEL 5
REMARK VINA RESULT:      -9.9      1.377      1.722
REMARK  Name = 5312137
REMARK  3 active torsions:
REMARK  status: ('A' for Active; 'I' for Inactive)
REMARK    1  A    between atoms: C_3  and  C_20
REMARK    2  A    between atoms: C_7  and  S_23
REMARK    3  A    between atoms: S_23  and  N_26
REMARK                            x       y       z     vdW  Elec       q    Type
REMARK                         _______ _______ _______ _____ _____    ______ ____
ROOT
ATOM      1  O   UNL     1      32.374 -20.680 -20.433  0.00  0.00    -0.270 OA
ATOM      2  N   UNL     1      31.966 -22.082 -18.575  0.00  0.00    -0.280 N 
ATOM      3  C   UNL     1      35.230 -21.224 -19.796  0.00  0.00    +0.019 C 
ATOM      4  C   UNL     1      34.154 -21.708 -19.129  0.00  0.00    +0.056 C 
ATOM      5  C   UNL     1      34.124 -22.589 -17.968  0.00  0.00    +0.019 C 
ATOM      6  C   UNL     1      32.772 -22.784 -17.672  0.00  0.00    +0.051 C 
ATOM      7  C   UNL     1      34.703 -23.994 -16.132  0.00  0.00    +0.122 C 
ATOM      8  C   UNL     1      35.107 -23.189 -17.204  0.00  0.00    +0.021 C 
ATOM      9  C   UNL     1      32.738 -21.387 -19.511  0.00  0.00    +0.250 C 
ATOM     10  C   UNL     1      32.351 -23.574 -16.621  0.00  0.00    +0.016 C 
ATOM     11  C   UNL     1      33.338 -24.184 -15.844  0.00  0.00    +0.021 C 
ATOM     12  H   UNL     1      30.981 -22.078 -18.554  0.00  0.00    +0.155 HD
ENDROOT
BRANCH   3  20
ATOM     13  N   UNL     1      35.299 -19.024 -20.701  0.00  0.00    -0.316 N 
ATOM     14  C   UNL     1      35.234 -18.377 -21.904  0.00  0.00    +0.021 C 
ATOM     15  C   UNL     1      35.071 -19.321 -22.898  0.00  0.00    -0.012 C 
ATOM     16  C   UNL     1      35.293 -16.904 -22.090  0.00  0.00    +0.041 C 
ATOM     17  C   UNL     1      34.979 -18.957 -24.339  0.00  0.00    +0.027 C 
ATOM     18  C   UNL     1      35.536 -16.579 -23.577  0.00  0.00    +0.006 C 
ATOM     19  C   UNL     1      34.680 -17.455 -24.513  0.00  0.00    +0.005 C 
ATOM     20  C   UNL     1      35.185 -20.375 -20.912  0.00  0.00    +0.048 C 
ATOM     21  C   UNL     1      35.044 -20.589 -22.268  0.00  0.00    +0.011 C 
ATOM     22  H   UNL     1      35.409 -18.589 -19.824  0.00  0.00    +0.152 HD
ENDBRANCH   3  20
BRANCH   7  23
ATOM     23  S   UNL     1      35.910 -24.774 -15.137  0.00  0.00    +0.063 S 
ATOM     24  O   UNL     1      35.542 -24.574 -13.739  0.00  0.00    -0.153 OA
ATOM     25  O   UNL     1      36.087 -26.137 -15.623  0.00  0.00    -0.153 OA
BRANCH  23  26
ATOM     26  N   UNL     1      37.347 -23.870 -15.470  0.00  0.00    -0.153 NA
ATOM     27  C   UNL     1      37.309 -22.406 -15.223  0.00  0.00    +0.115 C 
ATOM     28  C   UNL     1      38.644 -24.469 -15.067  0.00  0.00    +0.115 C 
ENDBRANCH  23  26
ENDBRANCH   7  23
TORSDOF 3
ENDMDL
MODEL 6
REMARK VINA RESULT:      -9.6      8.882     13.252
REMARK  Name = 5312137
REMARK  3 active torsions:
REMARK  status: ('A' for Active; 'I' for Inactive)
REMARK    1  A    between atoms: C_3  and  C_20
REMARK    2  A    between atoms: C_7  and  S_23
REMARK    3  A    between atoms: S_23  and  N_26
REMARK                            x       y       z     vdW  Elec       q    Type
REMARK                         _______ _______ _______ _____ _____    ______ ____
ROOT
ATOM      1  O   UNL     1      32.628 -14.140 -21.203  0.00  0.00    -0.270 OA
ATOM      2  N   UNL     1      31.919 -11.995 -20.513  0.00  0.00    -0.280 N 
ATOM      3  C   UNL     1      33.457 -12.707 -23.676  0.00  0.00    +0.019 C 
ATOM      4  C   UNL     1      32.870 -12.154 -22.588  0.00  0.00    +0.056 C 
ATOM      5  C   UNL     1      32.508 -10.759 -22.360  0.00  0.00    +0.019 C 
ATOM      6  C   UNL     1      31.934 -10.718 -21.086  0.00  0.00    +0.051 C 
ATOM      7  C   UNL     1      32.157  -8.411 -22.566  0.00  0.00    +0.122 C 
ATOM      8  C   UNL     1      32.627  -9.610 -23.117  0.00  0.00    +0.021 C 
ATOM      9  C   UNL     1      32.479 -12.944 -21.373  0.00  0.00    +0.250 C 
ATOM     10  C   UNL     1      31.465  -9.549 -20.523  0.00  0.00    +0.016 C 
ATOM     11  C   UNL     1      31.581  -8.382 -21.282  0.00  0.00    +0.021 C 
ATOM     12  H   UNL     1      31.561 -12.199 -19.618  0.00  0.00    +0.155 HD
ENDROOT
BRANCH   3  20
ATOM     13  N   UNL     1      33.170 -14.763 -24.840  0.00  0.00    -0.316 N 
ATOM     14  C   UNL     1      33.616 -16.055 -24.821  0.00  0.00    +0.021 C 
ATOM     15  C   UNL     1      34.517 -16.191 -23.785  0.00  0.00    -0.012 C 
ATOM     16  C   UNL     1      33.169 -17.130 -25.745  0.00  0.00    +0.041 C 
ATOM     17  C   UNL     1      35.210 -17.474 -23.490  0.00  0.00    +0.027 C 
ATOM     18  C   UNL     1      34.129 -18.332 -25.644  0.00  0.00    +0.006 C 
ATOM     19  C   UNL     1      34.507 -18.657 -24.186  0.00  0.00    +0.005 C 
ATOM     20  C   UNL     1      33.780 -14.064 -23.829  0.00  0.00    +0.048 C 
ATOM     21  C   UNL     1      34.624 -14.925 -23.158  0.00  0.00    +0.011 C 
ATOM     22  H   UNL     1      32.516 -14.394 -25.477  0.00  0.00    +0.152 HD
ENDBRANCH   3  20
BRANCH   7  23
ATOM     23  S   UNL     1      32.286  -6.931 -23.486  0.00  0.00    +0.063 S 
ATOM     24  O   UNL     1      31.362  -7.014 -24.612  0.00  0.00    -0.153 OA
ATOM     25  O   UNL     1      32.159  -5.810 -22.562  0.00  0.00    -0.153 OA
BRANCH  23  26
ATOM     26  N   UNL     1      33.907  -6.977 -24.091  0.00  0.00    -0.153 NA
ATOM     27  C   UNL     1      34.342  -5.864 -24.973  0.00  0.00    +0.115 C 
ATOM     28  C   UNL     1      34.979  -7.394 -23.152  0.00  0.00    +0.115 C 
ENDBRANCH  23  26
ENDBRANCH   7  23
TORSDOF 3
ENDMDL
MODEL 7
REMARK VINA RESULT:      -9.5      8.831     13.368
REMARK  Name = 5312137
REMARK  3 active torsions:
REMARK  status: ('A' for Active; 'I' for Inactive)
REMARK    1  A    between atoms: C_3  and  C_20
REMARK    2  A    between atoms: C_7  and  S_23
REMARK    3  A    between atoms: S_23  and  N_26
REMARK                            x       y       z     vdW  Elec       q    Type
REMARK                         _______ _______ _______ _____ _____    ______ ____
ROOT
ATOM      1  O   UNL     1      32.456 -13.912 -21.230  0.00  0.00    -0.270 OA
ATOM      2  N   UNL     1      31.868 -11.864 -20.210  0.00  0.00    -0.280 N 
ATOM      3  C   UNL     1      33.127 -12.180 -23.557  0.00  0.00    +0.019 C 
ATOM      4  C   UNL     1      32.645 -11.765 -22.360  0.00  0.00    +0.056 C 
ATOM      5  C   UNL     1      32.343 -10.406 -21.923  0.00  0.00    +0.019 C 
ATOM      6  C   UNL     1      31.875 -10.523 -20.612  0.00  0.00    +0.051 C 
ATOM      7  C   UNL     1      32.047  -8.045 -21.793  0.00  0.00    +0.122 C 
ATOM      8  C   UNL     1      32.435  -9.169 -22.532  0.00  0.00    +0.021 C 
ATOM      9  C   UNL     1      32.329 -12.702 -21.230  0.00  0.00    +0.250 C 
ATOM     10  C   UNL     1      31.487  -9.429 -19.865  0.00  0.00    +0.016 C 
ATOM     11  C   UNL     1      31.577  -8.175 -20.472  0.00  0.00    +0.021 C 
ATOM     12  H   UNL     1      31.577 -12.177 -19.323  0.00  0.00    +0.155 HD
ENDROOT
BRANCH   3  20
ATOM     13  N   UNL     1      34.281 -14.219 -23.136  0.00  0.00    -0.316 N 
ATOM     14  C   UNL     1      34.404 -15.483 -23.641  0.00  0.00    +0.021 C 
ATOM     15  C   UNL     1      33.593 -15.589 -24.754  0.00  0.00    -0.012 C 
ATOM     16  C   UNL     1      35.291 -16.543 -23.094  0.00  0.00    +0.041 C 
ATOM     17  C   UNL     1      33.476 -16.847 -25.541  0.00  0.00    +0.027 C 
ATOM     18  C   UNL     1      34.904 -17.906 -23.701  0.00  0.00    +0.006 C 
ATOM     19  C   UNL     1      34.631 -17.815 -25.216  0.00  0.00    +0.005 C 
ATOM     20  C   UNL     1      33.396 -13.511 -23.910  0.00  0.00    +0.048 C 
ATOM     21  C   UNL     1      32.951 -14.338 -24.921  0.00  0.00    +0.011 C 
ATOM     22  H   UNL     1      34.754 -13.872 -22.344  0.00  0.00    +0.152 HD
ENDBRANCH   3  20
BRANCH   7  23
ATOM     23  S   UNL     1      32.146  -6.459 -22.519  0.00  0.00    +0.063 S 
ATOM     24  O   UNL     1      30.876  -6.185 -23.185  0.00  0.00    -0.153 OA
ATOM     25  O   UNL     1      32.616  -5.524 -21.505  0.00  0.00    -0.153 OA
BRANCH  23  26
ATOM     26  N   UNL     1      33.376  -6.647 -23.722  0.00  0.00    -0.153 NA
ATOM     27  C   UNL     1      33.498  -5.583 -24.751  0.00  0.00    +0.115 C 
ATOM     28  C   UNL     1      34.702  -7.145 -23.276  0.00  0.00    +0.115 C 
ENDBRANCH  23  26
ENDBRANCH   7  23
TORSDOF 3
ENDMDL
MODEL 8
REMARK VINA RESULT:      -8.9     14.016     18.679
REMARK  Name = 5312137
REMARK  3 active torsions:
REMARK  status: ('A' for Active; 'I' for Inactive)
REMARK    1  A    between atoms: C_3  and  C_20
REMARK    2  A    between atoms: C_7  and  S_23
REMARK    3  A    between atoms: S_23  and  N_26
REMARK                            x       y       z     vdW  Elec       q    Type
REMARK                         _______ _______ _______ _____ _____    ______ ____
ROOT
ATOM      1  O   UNL     1      31.294  -5.440 -22.976  0.00  0.00    -0.270 OA
ATOM      2  N   UNL     1      31.707  -3.813 -24.637  0.00  0.00    -0.280 N 
ATOM      3  C   UNL     1      33.706  -6.751 -24.128  0.00  0.00    +0.019 C 
ATOM      4  C   UNL     1      33.150  -5.587 -24.543  0.00  0.00    +0.056 C 
ATOM      5  C   UNL     1      33.579  -4.709 -25.627  0.00  0.00    +0.019 C 
ATOM      6  C   UNL     1      32.670  -3.649 -25.641  0.00  0.00    +0.051 C 
ATOM      7  C   UNL     1      34.731  -3.714 -27.460  0.00  0.00    +0.122 C 
ATOM      8  C   UNL     1      34.620  -4.758 -26.534  0.00  0.00    +0.021 C 
ATOM      9  C   UNL     1      31.928  -4.986 -23.910  0.00  0.00    +0.250 C 
ATOM     10  C   UNL     1      32.760  -2.609 -26.544  0.00  0.00    +0.016 C 
ATOM     11  C   UNL     1      33.809  -2.650 -27.465  0.00  0.00    +0.021 C 
ATOM     12  H   UNL     1      30.970  -3.183 -24.466  0.00  0.00    +0.155 HD
ENDROOT
BRANCH   3  20
ATOM     13  N   UNL     1      32.430  -8.615 -23.378  0.00  0.00    -0.316 N 
ATOM     14  C   UNL     1      32.086  -9.260 -22.223  0.00  0.00    +0.021 C 
ATOM     15  C   UNL     1      32.672  -8.598 -21.163  0.00  0.00    -0.012 C 
ATOM     16  C   UNL     1      31.200 -10.450 -22.136  0.00  0.00    +0.041 C 
ATOM     17  C   UNL     1      32.514  -9.047 -19.753  0.00  0.00    +0.027 C 
ATOM     18  C   UNL     1      31.325 -11.087 -20.738  0.00  0.00    +0.006 C 
ATOM     19  C   UNL     1      31.336 -10.033 -19.614  0.00  0.00    +0.005 C 
ATOM     20  C   UNL     1      33.237  -7.548 -23.072  0.00  0.00    +0.048 C 
ATOM     21  C   UNL     1      33.405  -7.514 -21.704  0.00  0.00    +0.011 C 
ATOM     22  H   UNL     1      32.145  -8.876 -24.284  0.00  0.00    +0.152 HD
ENDBRANCH   3  20
BRANCH   7  23
ATOM     23  S   UNL     1      36.031  -3.732 -28.628  0.00  0.00    +0.063 S 
ATOM     24  O   UNL     1      35.530  -4.341 -29.855  0.00  0.00    -0.153 OA
ATOM     25  O   UNL     1      36.597  -2.390 -28.696  0.00  0.00    -0.153 OA
BRANCH  23  26
ATOM     26  N   UNL     1      37.195  -4.794 -27.913  0.00  0.00    -0.153 NA
ATOM     27  C   UNL     1      37.734  -5.890 -28.758  0.00  0.00    +0.115 C 
ATOM     28  C   UNL     1      38.243  -4.188 -27.054  0.00  0.00    +0.115 C 
ENDBRANCH  23  26
ENDBRANCH   7  23
TORSDOF 3
ENDMDL
MODEL 9
REMARK VINA RESULT:      -8.9      5.585     10.727
REMARK  Name = 5312137
REMARK  3 active torsions:
REMARK  status: ('A' for Active; 'I' for Inactive)
REMARK    1  A    between atoms: C_3  and  C_20
REMARK    2  A    between atoms: C_7  and  S_23
REMARK    3  A    between atoms: S_23  and  N_26
REMARK                            x       y       z     vdW  Elec       q    Type
REMARK                         _______ _______ _______ _____ _____    ______ ____
ROOT
ATOM      1  O   UNL     1      34.598 -18.938 -24.142  0.00  0.00    -0.270 OA
ATOM      2  N   UNL     1      33.884 -17.136 -25.494  0.00  0.00    -0.280 N 
ATOM      3  C   UNL     1      35.082 -16.801 -22.127  0.00  0.00    +0.019 C 
ATOM      4  C   UNL     1      34.599 -16.626 -23.381  0.00  0.00    +0.056 C 
ATOM      5  C   UNL     1      34.207 -15.385 -24.040  0.00  0.00    +0.019 C 
ATOM      6  C   UNL     1      33.781 -15.751 -25.319  0.00  0.00    +0.051 C 
ATOM      7  C   UNL     1      33.742 -13.108 -24.563  0.00  0.00    +0.122 C 
ATOM      8  C   UNL     1      34.195 -14.061 -23.644  0.00  0.00    +0.021 C 
ATOM      9  C   UNL     1      34.382 -17.757 -24.344  0.00  0.00    +0.250 C 
ATOM     10  C   UNL     1      33.331 -14.828 -26.241  0.00  0.00    +0.016 C 
ATOM     11  C   UNL     1      33.314 -13.488 -25.849  0.00  0.00    +0.021 C 
ATOM     12  H   UNL     1      33.637 -17.612 -26.320  0.00  0.00    +0.155 HD
ENDROOT
BRANCH   3  20
ATOM     13  N   UNL     1      34.435 -18.883 -21.171  0.00  0.00    -0.316 N 
ATOM     14  C   UNL     1      34.987 -20.017 -20.644  0.00  0.00    +0.021 C 
ATOM     15  C   UNL     1      36.361 -19.892 -20.684  0.00  0.00    -0.012 C 
ATOM     16  C   UNL     1      34.224 -21.166 -20.092  0.00  0.00    +0.041 C 
ATOM     17  C   UNL     1      37.276 -20.961 -20.200  0.00  0.00    +0.027 C 
ATOM     18  C   UNL     1      35.163 -22.375 -19.917  0.00  0.00    +0.006 C 
ATOM     19  C   UNL     1      36.524 -21.975 -19.315  0.00  0.00    +0.005 C 
ATOM     20  C   UNL     1      35.441 -18.031 -21.555  0.00  0.00    +0.048 C 
ATOM     21  C   UNL     1      36.648 -18.633 -21.266  0.00  0.00    +0.011 C 
ATOM     22  H   UNL     1      33.470 -18.706 -21.260  0.00  0.00    +0.152 HD
ENDBRANCH   3  20
BRANCH   7  23
ATOM     23  S   UNL     1      33.707 -11.420 -24.109  0.00  0.00    +0.063 S 
ATOM     24  O   UNL     1      35.072 -11.005 -23.803  0.00  0.00    -0.153 OA
ATOM     25  O   UNL     1      32.969 -10.690 -25.132  0.00  0.00    -0.153 OA
BRANCH  23  26
ATOM     26  N   UNL     1      32.784 -11.420 -22.645  0.00  0.00    -0.153 NA
ATOM     27  C   UNL     1      32.017 -10.191 -22.317  0.00  0.00    +0.115 C 
ATOM     28  C   UNL     1      32.028 -12.654 -22.310  0.00  0.00    +0.115 C 
ENDBRANCH  23  26
ENDBRANCH   7  23
TORSDOF 3
ENDMDL
