MODEL 1
REMARK VINA RESULT:     -12.9      0.000      0.000
REMARK  Name = 23656870
REMARK  4 active torsions:
REMARK  status: ('A' for Active; 'I' for Inactive)
REMARK    1  A    between atoms: N_2  and  C_25
REMARK    2  A    between atoms: N_3  and  C_14
REMARK    3  A    between atoms: C_10  and  C_32
REMARK    4  A    between atoms: C_16  and  N_21
REMARK                            x       y       z     vdW  Elec       q    Type
REMARK                         _______ _______ _______ _____ _____    ______ ____
ROOT
ATOM      1  N   UNL     1      31.849 -23.576 -15.368  0.00  0.00    -0.123 N 
ATOM      2  N   UNL     1      34.085 -24.062 -14.791  0.00  0.00    -0.274 N 
ATOM      3  N   UNL     1      32.877 -22.409 -19.056  0.00  0.00    -0.238 N 
ATOM      4  N   UNL     1      33.487 -23.236 -16.930  0.00  0.00    -0.295 NA
ATOM      5  N   UNL     1      31.212 -22.754 -17.479  0.00  0.00    -0.314 NA
ATOM      6  N   UNL     1      31.389 -23.943 -14.157  0.00  0.00    -0.170 NA
ATOM      7  C   UNL     1      33.187 -23.621 -15.723  0.00  0.00    +0.279 C 
ATOM      8  C   UNL     1      30.879 -23.151 -16.230  0.00  0.00    +0.219 C 
ATOM      9  C   UNL     1      32.487 -22.803 -17.798  0.00  0.00    +0.207 C 
ATOM     10  C   UNL     1      29.697 -23.248 -15.530  0.00  0.00    +0.203 C 
ATOM     11  C   UNL     1      30.073 -23.740 -14.264  0.00  0.00    +0.116 C 
ATOM     12  H   UNL     1      33.709 -24.321 -13.919  0.00  0.00    +0.156 HD
ATOM     13  H   UNL     1      32.219 -22.545 -19.775  0.00  0.00    +0.166 HD
ENDROOT
BRANCH   3  14
ATOM     14  C   UNL     1      34.091 -21.842 -19.440  0.00  0.00    +0.060 C 
ATOM     15  C   UNL     1      34.119 -20.856 -20.426  0.00  0.00    +0.030 C 
ATOM     16  C   UNL     1      35.334 -20.287 -20.809  0.00  0.00    +0.052 C 
ATOM     17  C   UNL     1      35.277 -22.259 -18.836  0.00  0.00    +0.015 C 
ATOM     18  C   UNL     1      36.520 -20.704 -20.206  0.00  0.00    +0.015 C 
ATOM     19  C   UNL     1      36.492 -21.690 -19.219  0.00  0.00    +0.003 C 
BRANCH  16  21
ATOM     20  O   UNL     1      35.453 -17.288 -20.576  0.00  0.00    -0.275 OA
ATOM     21  N   UNL     1      35.363 -19.303 -21.797  0.00  0.00    -0.284 N 
ATOM     22  C   UNL     1      35.417 -17.912 -21.632  0.00  0.00    +0.227 C 
ATOM     23  C   UNL     1      35.434 -17.191 -22.957  0.00  0.00    +0.095 C 
ATOM     24  H   UNL     1      35.343 -19.625 -22.728  0.00  0.00    +0.155 HD
ENDBRANCH  16  21
ENDBRANCH   3  14
BRANCH   2  25
ATOM     25  C   UNL     1      35.471 -24.195 -14.919  0.00  0.00    +0.051 C 
ATOM     26  C   UNL     1      36.256 -23.077 -15.198  0.00  0.00    +0.015 C 
ATOM     27  C   UNL     1      36.069 -25.446 -14.767  0.00  0.00    +0.015 C 
ATOM     28  C   UNL     1      37.638 -23.208 -15.326  0.00  0.00    +0.001 C 
ATOM     29  C   UNL     1      37.452 -25.578 -14.894  0.00  0.00    +0.001 C 
ATOM     30  C   UNL     1      38.237 -24.459 -15.174  0.00  0.00    +0.000 C 
ENDBRANCH   2  25
BRANCH  10  32
ATOM     31  N   UNL     1      27.338 -22.648 -16.389  0.00  0.00    -0.195 NA
ATOM     32  C   UNL     1      28.399 -22.919 -16.003  0.00  0.00    +0.087 C 
ENDBRANCH  10  32
TORSDOF 4
ENDMDL
MODEL 2
REMARK VINA RESULT:     -12.0      2.255      5.703
REMARK  Name = 23656870
REMARK  4 active torsions:
REMARK  status: ('A' for Active; 'I' for Inactive)
REMARK    1  A    between atoms: N_2  and  C_25
REMARK    2  A    between atoms: N_3  and  C_14
REMARK    3  A    between atoms: C_10  and  C_32
REMARK    4  A    between atoms: C_16  and  N_21
REMARK                            x       y       z     vdW  Elec       q    Type
REMARK                         _______ _______ _______ _____ _____    ______ ____
ROOT
ATOM      1  N   UNL     1      36.415 -25.117 -14.146  0.00  0.00    -0.123 N 
ATOM      2  N   UNL     1      34.071 -24.938 -13.933  0.00  0.00    -0.274 N 
ATOM      3  N   UNL     1      36.516 -22.445 -17.125  0.00  0.00    -0.238 N 
ATOM      4  N   UNL     1      35.290 -23.686 -15.533  0.00  0.00    -0.295 NA
ATOM      5  N   UNL     1      37.663 -23.892 -15.720  0.00  0.00    -0.314 NA
ATOM      6  N   UNL     1      36.499 -26.024 -13.155  0.00  0.00    -0.170 NA
ATOM      7  C   UNL     1      35.221 -24.551 -14.564  0.00  0.00    +0.279 C 
ATOM      8  C   UNL     1      37.614 -24.792 -14.712  0.00  0.00    +0.219 C 
ATOM      9  C   UNL     1      36.520 -23.365 -16.103  0.00  0.00    +0.207 C 
ATOM     10  C   UNL     1      38.552 -25.543 -14.042  0.00  0.00    +0.203 C 
ATOM     11  C   UNL     1      37.810 -26.281 -13.097  0.00  0.00    +0.116 C 
ATOM     12  H   UNL     1      34.176 -25.603 -13.215  0.00  0.00    +0.156 HD
ATOM     13  H   UNL     1      37.327 -21.894 -17.213  0.00  0.00    +0.166 HD
ENDROOT
BRANCH   3  14
ATOM     14  C   UNL     1      35.506 -22.195 -18.051  0.00  0.00    +0.060 C 
ATOM     15  C   UNL     1      35.786 -21.475 -19.212  0.00  0.00    +0.030 C 
ATOM     16  C   UNL     1      34.775 -21.226 -20.140  0.00  0.00    +0.052 C 
ATOM     17  C   UNL     1      34.214 -22.667 -17.818  0.00  0.00    +0.015 C 
ATOM     18  C   UNL     1      33.483 -21.697 -19.907  0.00  0.00    +0.015 C 
ATOM     19  C   UNL     1      33.202 -22.418 -18.746  0.00  0.00    +0.003 C 
BRANCH  16  21
ATOM     20  O   UNL     1      35.811 -18.421 -20.494  0.00  0.00    -0.275 OA
ATOM     21  N   UNL     1      35.055 -20.504 -21.300  0.00  0.00    -0.284 N 
ATOM     22  C   UNL     1      35.537 -19.192 -21.408  0.00  0.00    +0.227 C 
ATOM     23  C   UNL     1      35.708 -18.776 -22.848  0.00  0.00    +0.095 C 
ATOM     24  H   UNL     1      34.893 -20.974 -22.151  0.00  0.00    +0.155 HD
ENDBRANCH  16  21
ENDBRANCH   3  14
BRANCH   2  25
ATOM     25  C   UNL     1      32.763 -24.509 -14.178  0.00  0.00    +0.051 C 
ATOM     26  C   UNL     1      32.525 -23.200 -14.596  0.00  0.00    +0.015 C 
ATOM     27  C   UNL     1      31.695 -25.390 -14.005  0.00  0.00    +0.015 C 
ATOM     28  C   UNL     1      31.221 -22.771 -14.841  0.00  0.00    +0.001 C 
ATOM     29  C   UNL     1      30.391 -24.962 -14.251  0.00  0.00    +0.001 C 
ATOM     30  C   UNL     1      30.153 -23.652 -14.668  0.00  0.00    +0.000 C 
ENDBRANCH   2  25
BRANCH  10  32
ATOM     31  N   UNL     1      41.099 -25.566 -14.460  0.00  0.00    -0.195 NA
ATOM     32  C   UNL     1      39.953 -25.556 -14.272  0.00  0.00    +0.087 C 
ENDBRANCH  10  32
TORSDOF 4
ENDMDL
