MODEL 1
REMARK VINA RESULT:     -11.7      0.000      0.000
REMARK  Name = 24779675
REMARK  4 active torsions:
REMARK  status: ('A' for Active; 'I' for Inactive)
REMARK    1  A    between atoms: N_1  and  C_22
REMARK    2  A    between atoms: N_5  and  C_14
REMARK    3  A    between atoms: C_10  and  C_21
REMARK    4  A    between atoms: C_22  and  C_23
REMARK                            x       y       z     vdW  Elec       q    Type
REMARK                         _______ _______ _______ _____ _____    ______ ____
ROOT
ATOM      1  N   UNL     1      34.154 -23.044 -17.623  0.00  0.00    -0.259 N 
ATOM      2  N   UNL     1      32.306 -23.529 -16.347  0.00  0.00    -0.314 NA
ATOM      3  N   UNL     1      34.491 -24.065 -15.546  0.00  0.00    -0.295 NA
ATOM      4  N   UNL     1      32.662 -24.555 -14.259  0.00  0.00    -0.123 N 
ATOM      5  N   UNL     1      34.808 -25.099 -13.436  0.00  0.00    -0.274 N 
ATOM      6  N   UNL     1      32.049 -25.038 -13.164  0.00  0.00    -0.170 NA
ATOM      7  C   UNL     1      33.613 -23.548 -16.494  0.00  0.00    +0.203 C 
ATOM      8  C   UNL     1      31.813 -24.045 -15.198  0.00  0.00    +0.219 C 
ATOM      9  C   UNL     1      34.037 -24.567 -14.434  0.00  0.00    +0.279 C 
ATOM     10  C   UNL     1      30.549 -24.206 -14.676  0.00  0.00    +0.203 C 
ATOM     11  C   UNL     1      30.757 -24.821 -13.425  0.00  0.00    +0.116 C 
ATOM     12  H   UNL     1      35.133 -23.065 -17.721  0.00  0.00    +0.160 HD
ATOM     13  H   UNL     1      34.329 -25.445 -12.648  0.00  0.00    +0.156 HD
ENDROOT
BRANCH   5  14
ATOM     14  C   UNL     1      36.199 -25.204 -13.417  0.00  0.00    +0.051 C 
ATOM     15  C   UNL     1      36.848 -26.037 -14.328  0.00  0.00    +0.015 C 
ATOM     16  C   UNL     1      36.941 -24.475 -12.487  0.00  0.00    +0.015 C 
ATOM     17  C   UNL     1      38.239 -26.143 -14.309  0.00  0.00    +0.001 C 
ATOM     18  C   UNL     1      38.332 -24.581 -12.468  0.00  0.00    +0.001 C 
ATOM     19  C   UNL     1      38.981 -25.415 -13.379  0.00  0.00    +0.000 C 
ENDBRANCH   5  14
BRANCH  10  21
ATOM     20  N   UNL     1      28.322 -23.519 -15.785  0.00  0.00    -0.195 NA
ATOM     21  C   UNL     1      29.323 -23.828 -15.285  0.00  0.00    +0.087 C 
ENDBRANCH  10  21
BRANCH   1  22
ATOM     22  C   UNL     1      33.371 -22.479 -18.689  0.00  0.00    +0.099 C 
BRANCH  22  23
ATOM     23  C   UNL     1      34.297 -21.917 -19.766  0.00  0.00    +0.020 C 
ATOM     24  C   UNL     1      33.705 -20.639 -20.376  0.00  0.00    +0.002 C 
ATOM     25  C   UNL     1      35.696 -21.651 -19.193  0.00  0.00    +0.002 C 
ATOM     26  C   UNL     1      34.638 -20.027 -21.419  0.00  0.00    +0.000 C 
ATOM     27  C   UNL     1      36.625 -21.038 -20.238  0.00  0.00    +0.000 C 
ATOM     28  C   UNL     1      36.030 -19.773 -20.849  0.00  0.00    +0.000 C 
ENDBRANCH  22  23
ENDBRANCH   1  22
TORSDOF 4
ENDMDL
MODEL 2
REMARK VINA RESULT:     -10.6      1.466      5.555
REMARK  Name = 24779675
REMARK  4 active torsions:
REMARK  status: ('A' for Active; 'I' for Inactive)
REMARK    1  A    between atoms: N_1  and  C_22
REMARK    2  A    between atoms: N_5  and  C_14
REMARK    3  A    between atoms: C_10  and  C_21
REMARK    4  A    between atoms: C_22  and  C_23
REMARK                            x       y       z     vdW  Elec       q    Type
REMARK                         _______ _______ _______ _____ _____    ______ ____
ROOT
ATOM      1  N   UNL     1      34.421 -22.670 -18.055  0.00  0.00    -0.259 N 
ATOM      2  N   UNL     1      35.327 -23.392 -16.071  0.00  0.00    -0.314 NA
ATOM      3  N   UNL     1      32.957 -23.363 -16.367  0.00  0.00    -0.295 NA
ATOM      4  N   UNL     1      33.841 -24.087 -14.384  0.00  0.00    -0.123 N 
ATOM      5  N   UNL     1      31.493 -24.071 -14.642  0.00  0.00    -0.274 N 
ATOM      6  N   UNL     1      33.763 -24.567 -13.130  0.00  0.00    -0.170 NA
ATOM      7  C   UNL     1      34.262 -23.151 -16.804  0.00  0.00    +0.203 C 
ATOM      8  C   UNL     1      35.114 -23.875 -14.825  0.00  0.00    +0.219 C 
ATOM      9  C   UNL     1      32.731 -23.826 -15.172  0.00  0.00    +0.279 C 
ATOM     10  C   UNL     1      35.931 -24.245 -13.781  0.00  0.00    +0.203 C 
ATOM     11  C   UNL     1      35.046 -24.662 -12.767  0.00  0.00    +0.116 C 
ATOM     12  H   UNL     1      33.617 -22.494 -18.593  0.00  0.00    +0.160 HD
ATOM     13  H   UNL     1      31.470 -24.422 -13.723  0.00  0.00    +0.156 HD
ENDROOT
BRANCH   5  14
ATOM     14  C   UNL     1      30.260 -23.878 -15.268  0.00  0.00    +0.051 C 
ATOM     15  C   UNL     1      29.718 -24.884 -16.067  0.00  0.00    +0.015 C 
ATOM     16  C   UNL     1      29.571 -22.678 -15.093  0.00  0.00    +0.015 C 
ATOM     17  C   UNL     1      28.487 -24.690 -16.694  0.00  0.00    +0.001 C 
ATOM     18  C   UNL     1      28.339 -22.485 -15.719  0.00  0.00    +0.001 C 
ATOM     19  C   UNL     1      27.797 -23.490 -16.519  0.00  0.00    +0.000 C 
ENDBRANCH   5  14
BRANCH  10  21
ATOM     20  N   UNL     1      38.511 -24.171 -13.736  0.00  0.00    -0.195 NA
ATOM     21  C   UNL     1      37.351 -24.205 -13.756  0.00  0.00    +0.087 C 
ENDBRANCH  10  21
BRANCH   1  22
ATOM     22  C   UNL     1      35.709 -22.402 -18.639  0.00  0.00    +0.099 C 
BRANCH  22  23
ATOM     23  C   UNL     1      35.533 -21.591 -19.922  0.00  0.00    +0.020 C 
ATOM     24  C   UNL     1      34.116 -21.005 -20.002  0.00  0.00    +0.002 C 
ATOM     25  C   UNL     1      36.588 -20.481 -20.010  0.00  0.00    +0.002 C 
ATOM     26  C   UNL     1      33.931 -20.145 -21.250  0.00  0.00    +0.000 C 
ATOM     27  C   UNL     1      36.399 -19.622 -21.258  0.00  0.00    +0.000 C 
ATOM     28  C   UNL     1      34.988 -19.048 -21.340  0.00  0.00    +0.000 C 
ENDBRANCH  22  23
ENDBRANCH   1  22
TORSDOF 4
ENDMDL
MODEL 3
REMARK VINA RESULT:      -9.7      1.766      7.353
REMARK  Name = 24779675
REMARK  4 active torsions:
REMARK  status: ('A' for Active; 'I' for Inactive)
REMARK    1  A    between atoms: N_1  and  C_22
REMARK    2  A    between atoms: N_5  and  C_14
REMARK    3  A    between atoms: C_10  and  C_21
REMARK    4  A    between atoms: C_22  and  C_23
REMARK                            x       y       z     vdW  Elec       q    Type
REMARK                         _______ _______ _______ _____ _____    ______ ____
ROOT
ATOM      1  N   UNL     1      35.713 -23.652 -15.686  0.00  0.00    -0.259 N 
ATOM      2  N   UNL     1      35.511 -22.504 -17.666  0.00  0.00    -0.314 NA
ATOM      3  N   UNL     1      33.568 -23.356 -16.569  0.00  0.00    -0.295 NA
ATOM      4  N   UNL     1      33.346 -22.214 -18.540  0.00  0.00    -0.123 N 
ATOM      5  N   UNL     1      31.403 -23.042 -17.483  0.00  0.00    -0.274 N 
ATOM      6  N   UNL     1      32.644 -21.686 -19.559  0.00  0.00    -0.170 NA
ATOM      7  C   UNL     1      34.941 -23.150 -16.672  0.00  0.00    +0.203 C 
ATOM      8  C   UNL     1      34.694 -22.019 -18.629  0.00  0.00    +0.219 C 
ATOM      9  C   UNL     1      32.765 -22.899 -17.485  0.00  0.00    +0.279 C 
ATOM     10  C   UNL     1      34.887 -21.309 -19.792  0.00  0.00    +0.203 C 
ATOM     11  C   UNL     1      33.593 -21.133 -20.321  0.00  0.00    +0.116 C 
ATOM     12  H   UNL     1      35.275 -24.133 -14.948  0.00  0.00    +0.160 HD
ATOM     13  H   UNL     1      30.918 -22.645 -18.242  0.00  0.00    +0.156 HD
ENDROOT
BRANCH   5  14
ATOM     14  C   UNL     1      30.630 -23.692 -16.520  0.00  0.00    +0.051 C 
ATOM     15  C   UNL     1      29.238 -23.663 -16.607  0.00  0.00    +0.015 C 
ATOM     16  C   UNL     1      31.250 -24.370 -15.469  0.00  0.00    +0.015 C 
ATOM     17  C   UNL     1      28.465 -24.311 -15.643  0.00  0.00    +0.001 C 
ATOM     18  C   UNL     1      30.476 -25.018 -14.506  0.00  0.00    +0.001 C 
ATOM     19  C   UNL     1      29.085 -24.989 -14.593  0.00  0.00    +0.000 C 
ENDBRANCH   5  14
BRANCH  10  21
ATOM     20  N   UNL     1      37.142 -20.502 -20.754  0.00  0.00    -0.195 NA
ATOM     21  C   UNL     1      36.129 -20.866 -20.321  0.00  0.00    +0.087 C 
ENDBRANCH  10  21
BRANCH   1  22
ATOM     22  C   UNL     1      37.146 -23.517 -15.660  0.00  0.00    +0.099 C 
BRANCH  22  23
ATOM     23  C   UNL     1      37.739 -24.516 -14.668  0.00  0.00    +0.020 C 
ATOM     24  C   UNL     1      37.543 -24.028 -13.226  0.00  0.00    +0.002 C 
ATOM     25  C   UNL     1      37.119 -25.906 -14.863  0.00  0.00    +0.002 C 
ATOM     26  C   UNL     1      38.081 -25.036 -12.212  0.00  0.00    +0.000 C 
ATOM     27  C   UNL     1      37.657 -26.910 -13.846  0.00  0.00    +0.000 C 
ATOM     28  C   UNL     1      37.469 -26.418 -12.414  0.00  0.00    +0.000 C 
ENDBRANCH  22  23
ENDBRANCH   1  22
TORSDOF 4
ENDMDL
MODEL 4
REMARK VINA RESULT:      -9.7      1.263      6.467
REMARK  Name = 24779675
REMARK  4 active torsions:
REMARK  status: ('A' for Active; 'I' for Inactive)
REMARK    1  A    between atoms: N_1  and  C_22
REMARK    2  A    between atoms: N_5  and  C_14
REMARK    3  A    between atoms: C_10  and  C_21
REMARK    4  A    between atoms: C_22  and  C_23
REMARK                            x       y       z     vdW  Elec       q    Type
REMARK                         _______ _______ _______ _____ _____    ______ ____
ROOT
ATOM      1  N   UNL     1      35.428 -23.916 -15.504  0.00  0.00    -0.259 N 
ATOM      2  N   UNL     1      33.156 -24.121 -15.233  0.00  0.00    -0.314 NA
ATOM      3  N   UNL     1      34.039 -22.956 -17.122  0.00  0.00    -0.295 NA
ATOM      4  N   UNL     1      31.772 -23.151 -16.870  0.00  0.00    -0.123 N 
ATOM      5  N   UNL     1      32.610 -21.993 -18.750  0.00  0.00    -0.274 N 
ATOM      6  N   UNL     1      30.494 -22.951 -17.237  0.00  0.00    -0.170 NA
ATOM      7  C   UNL     1      34.173 -23.675 -15.937  0.00  0.00    +0.203 C 
ATOM      8  C   UNL     1      31.918 -23.854 -15.710  0.00  0.00    +0.219 C 
ATOM      9  C   UNL     1      32.857 -22.688 -17.598  0.00  0.00    +0.279 C 
ATOM     10  C   UNL     1      30.639 -24.137 -15.288  0.00  0.00    +0.203 C 
ATOM     11  C   UNL     1      29.806 -23.557 -16.265  0.00  0.00    +0.116 C 
ATOM     12  H   UNL     1      36.181 -23.577 -16.040  0.00  0.00    +0.160 HD
ATOM     13  H   UNL     1      31.664 -21.863 -18.991  0.00  0.00    +0.156 HD
ENDROOT
BRANCH   5  14
ATOM     14  C   UNL     1      33.556 -21.448 -19.620  0.00  0.00    +0.051 C 
ATOM     15  C   UNL     1      34.900 -21.806 -19.502  0.00  0.00    +0.015 C 
ATOM     16  C   UNL     1      33.159 -20.546 -20.607  0.00  0.00    +0.015 C 
ATOM     17  C   UNL     1      35.846 -21.261 -20.370  0.00  0.00    +0.001 C 
ATOM     18  C   UNL     1      34.105 -20.002 -21.475  0.00  0.00    +0.001 C 
ATOM     19  C   UNL     1      35.449 -20.358 -21.357  0.00  0.00    +0.000 C 
ENDBRANCH   5  14
BRANCH  10  21
ATOM     20  N   UNL     1      29.966 -25.440 -13.163  0.00  0.00    -0.195 NA
ATOM     21  C   UNL     1      30.269 -24.854 -14.119  0.00  0.00    +0.087 C 
ENDBRANCH  10  21
BRANCH   1  22
ATOM     22  C   UNL     1      35.720 -24.644 -14.297  0.00  0.00    +0.099 C 
BRANCH  22  23
ATOM     23  C   UNL     1      37.078 -25.331 -14.427  0.00  0.00    +0.020 C 
ATOM     24  C   UNL     1      38.075 -24.427 -15.164  0.00  0.00    +0.002 C 
ATOM     25  C   UNL     1      37.619 -25.728 -13.047  0.00  0.00    +0.002 C 
ATOM     26  C   UNL     1      39.456 -25.070 -15.260  0.00  0.00    +0.000 C 
ATOM     27  C   UNL     1      39.001 -26.369 -13.146  0.00  0.00    +0.000 C 
ATOM     28  C   UNL     1      39.987 -25.471 -13.888  0.00  0.00    +0.000 C 
ENDBRANCH  22  23
ENDBRANCH   1  22
TORSDOF 4
ENDMDL
MODEL 5
REMARK VINA RESULT:      -9.6      1.453      6.652
REMARK  Name = 24779675
REMARK  4 active torsions:
REMARK  status: ('A' for Active; 'I' for Inactive)
REMARK    1  A    between atoms: N_1  and  C_22
REMARK    2  A    between atoms: N_5  and  C_14
REMARK    3  A    between atoms: C_10  and  C_21
REMARK    4  A    between atoms: C_22  and  C_23
REMARK                            x       y       z     vdW  Elec       q    Type
REMARK                         _______ _______ _______ _____ _____    ______ ____
ROOT
ATOM      1  N   UNL     1      35.351 -24.276 -15.763  0.00  0.00    -0.259 N 
ATOM      2  N   UNL     1      33.080 -24.296 -15.417  0.00  0.00    -0.314 NA
ATOM      3  N   UNL     1      34.002 -23.091 -17.261  0.00  0.00    -0.295 NA
ATOM      4  N   UNL     1      31.736 -23.100 -16.933  0.00  0.00    -0.123 N 
ATOM      5  N   UNL     1      32.613 -21.898 -18.767  0.00  0.00    -0.274 N 
ATOM      6  N   UNL     1      30.470 -22.763 -17.236  0.00  0.00    -0.170 NA
ATOM      7  C   UNL     1      34.109 -23.897 -16.130  0.00  0.00    +0.203 C 
ATOM      8  C   UNL     1      31.856 -23.889 -15.827  0.00  0.00    +0.219 C 
ATOM      9  C   UNL     1      32.834 -22.688 -17.672  0.00  0.00    +0.279 C 
ATOM     10  C   UNL     1      30.572 -24.085 -15.373  0.00  0.00    +0.203 C 
ATOM     11  C   UNL     1      29.762 -23.369 -16.279  0.00  0.00    +0.116 C 
ATOM     12  H   UNL     1      36.113 -23.971 -16.305  0.00  0.00    +0.160 HD
ATOM     13  H   UNL     1      31.676 -21.669 -18.962  0.00  0.00    +0.156 HD
ENDROOT
BRANCH   5  14
ATOM     14  C   UNL     1      33.576 -21.382 -19.637  0.00  0.00    +0.051 C 
ATOM     15  C   UNL     1      33.202 -20.487 -20.640  0.00  0.00    +0.015 C 
ATOM     16  C   UNL     1      34.912 -21.762 -19.503  0.00  0.00    +0.015 C 
ATOM     17  C   UNL     1      34.163 -19.973 -21.510  0.00  0.00    +0.001 C 
ATOM     18  C   UNL     1      35.873 -21.247 -20.373  0.00  0.00    +0.001 C 
ATOM     19  C   UNL     1      35.499 -20.353 -21.376  0.00  0.00    +0.000 C 
ENDBRANCH   5  14
BRANCH  10  21
ATOM     20  N   UNL     1      29.855 -25.463 -13.312  0.00  0.00    -0.195 NA
ATOM     21  C   UNL     1      30.176 -24.843 -14.239  0.00  0.00    +0.087 C 
ENDBRANCH  10  21
BRANCH   1  22
ATOM     22  C   UNL     1      35.615 -25.107 -14.617  0.00  0.00    +0.099 C 
BRANCH  22  23
ATOM     23  C   UNL     1      35.865 -24.229 -13.393  0.00  0.00    +0.020 C 
ATOM     24  C   UNL     1      35.584 -25.008 -12.101  0.00  0.00    +0.002 C 
ATOM     25  C   UNL     1      37.299 -23.683 -13.400  0.00  0.00    +0.002 C 
ATOM     26  C   UNL     1      35.878 -24.169 -10.860  0.00  0.00    +0.000 C 
ATOM     27  C   UNL     1      37.591 -22.846 -12.157  0.00  0.00    +0.000 C 
ATOM     28  C   UNL     1      37.302 -23.621 -10.875  0.00  0.00    +0.000 C 
ENDBRANCH  22  23
ENDBRANCH   1  22
TORSDOF 4
ENDMDL
