MODEL 1
REMARK VINA RESULT:     -11.3      0.000      0.000
REMARK  Name = 8969
REMARK  3 active torsions:
REMARK  status: ('A' for Active; 'I' for Inactive)
REMARK    1  A    between atoms: C_7  and  C_27
REMARK    2  A    between atoms: C_10  and  O_24
REMARK    3  A    between atoms: C_27  and  O_28
REMARK                            x       y       z     vdW  Elec       q    Type
REMARK                         _______ _______ _______ _____ _____    ______ ____
ROOT
ATOM      1  N   UNL     1      34.167 -23.330 -16.312  0.00  0.00    +0.392 N 
ATOM      2  N   UNL     1      32.983 -21.887 -19.557  0.00  0.00    -0.358 N 
ATOM      3  C   UNL     1      31.346 -23.978 -15.872  0.00  0.00    +0.009 C 
ATOM      4  C   UNL     1      32.400 -24.019 -14.743  0.00  0.00    -0.020 C 
ATOM      5  C   UNL     1      31.802 -22.980 -16.953  0.00  0.00    -0.015 C 
ATOM      6  C   UNL     1      33.212 -23.332 -17.455  0.00  0.00    -0.019 C 
ATOM      7  C   UNL     1      29.961 -23.636 -15.289  0.00  0.00    +0.126 C 
ATOM      8  C   UNL     1      33.794 -24.334 -15.308  0.00  0.00    -0.077 C 
ATOM      9  C   UNL     1      32.001 -25.018 -13.650  0.00  0.00    +0.000 C 
ATOM     10  C   UNL     1      29.553 -24.626 -14.184  0.00  0.00    +0.121 C 
ATOM     11  C   UNL     1      30.615 -24.696 -13.086  0.00  0.00    +0.030 C 
ATOM     12  C   UNL     1      33.702 -22.384 -18.507  0.00  0.00    +0.010 A 
ATOM     13  C   UNL     1      35.565 -23.507 -16.762  0.00  0.00    -0.072 C 
ATOM     14  C   UNL     1      34.998 -21.923 -18.612  0.00  0.00    -0.013 A 
ATOM     15  C   UNL     1      36.035 -22.305 -17.616  0.00  0.00    +0.005 C 
ATOM     16  C   UNL     1      35.065 -21.082 -19.756  0.00  0.00    +0.013 A 
ATOM     17  C   UNL     1      33.789 -21.077 -20.330  0.00  0.00    +0.056 A 
ATOM     18  C   UNL     1      36.085 -20.326 -20.366  0.00  0.00    +0.001 C 
ATOM     19  C   UNL     1      33.486 -20.350 -21.487  0.00  0.00    +0.017 C 
ATOM     20  C   UNL     1      35.795 -19.593 -21.523  0.00  0.00    +0.000 C 
ATOM     21  C   UNL     1      34.515 -19.607 -22.073  0.00  0.00    +0.001 C 
ATOM     22  H   UNL     1      34.111 -22.412 -15.871  0.00  0.00    -0.079 HD
ATOM     23  H   UNL     1      32.034 -22.077 -19.735  0.00  0.00    +0.166 HD
ENDROOT
BRANCH  10  24
ATOM     24  O   UNL     1      29.384 -25.929 -14.744  0.00  0.00    -0.384 OA
ATOM     25  H   UNL     1      28.755 -26.434 -14.206  0.00  0.00    +0.210 HD
ENDBRANCH  10  24
BRANCH   7  27
ATOM     26  O   UNL     1      28.614 -24.615 -17.034  0.00  0.00    -0.250 OA
ATOM     27  C   UNL     1      28.902 -23.637 -16.355  0.00  0.00    +0.319 C 
BRANCH  27  28
ATOM     28  O   UNL     1      28.334 -22.401 -16.434  0.00  0.00    -0.444 OA
ATOM     29  C   UNL     1      26.925 -22.355 -16.188  0.00  0.00    +0.256 C 
ENDBRANCH  27  28
ENDBRANCH   7  27
TORSDOF 3
ENDMDL
MODEL 2
REMARK VINA RESULT:      -9.2     12.534     15.794
REMARK  Name = 8969
REMARK  3 active torsions:
REMARK  status: ('A' for Active; 'I' for Inactive)
REMARK    1  A    between atoms: C_7  and  C_27
REMARK    2  A    between atoms: C_10  and  O_24
REMARK    3  A    between atoms: C_27  and  O_28
REMARK                            x       y       z     vdW  Elec       q    Type
REMARK                         _______ _______ _______ _____ _____    ______ ____
ROOT
ATOM      1  N   UNL     1      31.936  -8.415 -21.304  0.00  0.00    +0.392 N 
ATOM      2  N   UNL     1      33.236  -6.717 -24.376  0.00  0.00    -0.358 N 
ATOM      3  C   UNL     1      32.945 -10.865 -22.550  0.00  0.00    +0.009 C 
ATOM      4  C   UNL     1      31.973 -10.876 -21.350  0.00  0.00    -0.020 C 
ATOM      5  C   UNL     1      32.757  -9.557 -23.341  0.00  0.00    -0.015 C 
ATOM      6  C   UNL     1      32.921  -8.337 -22.418  0.00  0.00    -0.019 C 
ATOM      7  C   UNL     1      32.732 -12.123 -23.415  0.00  0.00    +0.126 C 
ATOM      8  C   UNL     1      32.154  -9.617 -20.488  0.00  0.00    -0.077 C 
ATOM      9  C   UNL     1      32.138 -12.152 -20.516  0.00  0.00    +0.000 C 
ATOM     10  C   UNL     1      32.885 -13.410 -22.588  0.00  0.00    +0.121 C 
ATOM     11  C   UNL     1      31.950 -13.404 -21.377  0.00  0.00    +0.030 C 
ATOM     12  C   UNL     1      32.742  -7.039 -23.143  0.00  0.00    +0.010 A 
ATOM     13  C   UNL     1      31.944  -7.190 -20.476  0.00  0.00    -0.072 C 
ATOM     14  C   UNL     1      32.098  -5.931 -22.632  0.00  0.00    -0.013 A 
ATOM     15  C   UNL     1      31.462  -5.963 -21.287  0.00  0.00    +0.005 C 
ATOM     16  C   UNL     1      32.175  -4.899 -23.605  0.00  0.00    +0.013 A 
ATOM     17  C   UNL     1      32.894  -5.417 -24.688  0.00  0.00    +0.056 A 
ATOM     18  C   UNL     1      31.710  -3.571 -23.674  0.00  0.00    +0.001 C 
ATOM     19  C   UNL     1      33.168  -4.668 -25.838  0.00  0.00    +0.017 C 
ATOM     20  C   UNL     1      31.976  -2.811 -24.820  0.00  0.00    +0.000 C 
ATOM     21  C   UNL     1      32.694  -3.353 -25.883  0.00  0.00    +0.001 C 
ATOM     22  H   UNL     1      31.009  -8.486 -21.722  0.00  0.00    -0.079 HD
ATOM     23  H   UNL     1      33.758  -7.319 -24.953  0.00  0.00    +0.166 HD
ENDROOT
BRANCH  10  24
ATOM     24  O   UNL     1      34.232 -13.528 -22.127  0.00  0.00    -0.384 OA
ATOM     25  H   UNL     1      34.307 -14.294 -21.536  0.00  0.00    +0.210 HD
ENDBRANCH  10  24
BRANCH   7  27
ATOM     26  O   UNL     1      34.569 -11.331 -24.761  0.00  0.00    -0.250 OA
ATOM     27  C   UNL     1      33.697 -12.168 -24.565  0.00  0.00    +0.319 C 
BRANCH  27  28
ATOM     28  O   UNL     1      33.444 -13.267 -25.330  0.00  0.00    -0.444 OA
ATOM     29  C   UNL     1      33.444 -13.047 -26.743  0.00  0.00    +0.256 C 
ENDBRANCH  27  28
ENDBRANCH   7  27
TORSDOF 3
ENDMDL
