MODEL 1
REMARK VINA RESULT:     -11.4      0.000      0.000
REMARK  Name = 11711595
REMARK  10 active torsions:
REMARK  status: ('A' for Active; 'I' for Inactive)
REMARK    1  A    between atoms: C_1  and  C_9
REMARK    2  A    between atoms: C_3  and  C_17
REMARK    3  A    between atoms: C_5  and  O_7
REMARK    4  A    between atoms: C_9  and  C_10
REMARK    5  A    between atoms: C_10  and  C_12
REMARK    6  A    between atoms: C_10  and  C_15
REMARK    7  A    between atoms: C_12  and  O_13
REMARK    8  A    between atoms: C_17  and  N_19
REMARK    9  A    between atoms: C_20  and  C_23
REMARK   10  A    between atoms: C_26  and  C_32
REMARK                            x       y       z     vdW  Elec       q    Type
REMARK                         _______ _______ _______ _____ _____    ______ ____
ROOT
ATOM      1  C   UNL     1      35.114 -24.190 -14.720  0.00  0.00    -0.022 C 
ATOM      2  C   UNL     1      34.397 -23.887 -15.879  0.00  0.00    -0.004 C 
ATOM      3  C   UNL     1      33.013 -23.718 -15.819  0.00  0.00    +0.031 C 
ATOM      4  C   UNL     1      34.446 -24.322 -13.503  0.00  0.00    -0.001 C 
ATOM      5  C   UNL     1      32.347 -23.851 -14.600  0.00  0.00    +0.136 C 
ATOM      6  C   UNL     1      33.063 -24.153 -13.443  0.00  0.00    +0.036 C 
ENDROOT
BRANCH   5   7
ATOM      7  O   UNL     1      30.996 -23.689 -14.524  0.00  0.00    -0.472 OA
ATOM      8  C   UNL     1      30.217 -24.857 -14.274  0.00  0.00    +0.252 C 
ENDBRANCH   5   7
BRANCH   1   9
ATOM      9  C   UNL     1      36.611 -24.373 -14.785  0.00  0.00    +0.037 C 
BRANCH   9  10
ATOM     10  C   UNL     1      37.107 -25.600 -13.998  0.00  0.00    +0.103 C 
BRANCH  10  12
ATOM     11  O   UNL     1      36.509 -27.098 -15.823  0.00  0.00    -0.250 OA
ATOM     12  C   UNL     1      37.307 -26.769 -14.952  0.00  0.00    +0.314 C 
BRANCH  12  13
ATOM     13  O   UNL     1      38.487 -27.410 -14.757  0.00  0.00    -0.480 OA
ATOM     14  H   UNL     1      39.163 -27.356 -15.404  0.00  0.00    +0.295 HD
ENDBRANCH  12  13
ENDBRANCH  10  12
BRANCH  10  15
ATOM     15  C   UNL     1      38.429 -25.272 -13.279  0.00  0.00    +0.011 C 
ATOM     16  C   UNL     1      38.214 -24.527 -11.967  0.00  0.00    +0.001 C 
ENDBRANCH  10  15
ENDBRANCH   9  10
ENDBRANCH   1   9
BRANCH   3  17
ATOM     17  C   UNL     1      32.263 -23.395 -17.068  0.00  0.00    +0.120 C 
BRANCH  17  19
ATOM     18  O   UNL     1      33.915 -24.020 -19.331  0.00  0.00    -0.270 OA
ATOM     19  N   UNL     1      32.970 -22.457 -17.902  0.00  0.00    -0.297 N 
ATOM     20  C   UNL     1      33.749 -22.855 -18.980  0.00  0.00    +0.248 C 
ATOM     21  H   UNL     1      32.899 -21.496 -17.700  0.00  0.00    +0.150 HD
BRANCH  20  23
ATOM     22  F   UNL     1      32.361 -20.976 -20.568  0.00  0.00    -0.204 F 
ATOM     23  C   UNL     1      34.436 -21.768 -19.725  0.00  0.00    +0.081 C 
ATOM     24  C   UNL     1      33.696 -20.869 -20.493  0.00  0.00    +0.144 C 
ATOM     25  C   UNL     1      35.824 -21.647 -19.653  0.00  0.00    +0.007 C 
ATOM     26  C   UNL     1      35.731 -19.728 -21.118  0.00  0.00    +0.074 C 
ATOM     27  C   UNL     1      34.343 -19.849 -21.189  0.00  0.00    +0.034 C 
ATOM     28  C   UNL     1      36.471 -20.627 -20.351  0.00  0.00    +0.004 C 
BRANCH  26  32
ATOM     29  F   UNL     1      36.182 -18.653 -23.208  0.00  0.00    -0.166 F 
ATOM     30  F   UNL     1      36.068 -17.384 -21.453  0.00  0.00    -0.166 F 
ATOM     31  F   UNL     1      37.781 -18.693 -21.734  0.00  0.00    -0.166 F 
ATOM     32  C   UNL     1      36.423 -18.637 -21.863  0.00  0.00    +0.419 C 
ENDBRANCH  26  32
ENDBRANCH  20  23
ENDBRANCH  17  19
ENDBRANCH   3  17
TORSDOF 10
ENDMDL
MODEL 2
REMARK VINA RESULT:     -10.9      2.210      5.225
REMARK  Name = 11711595
REMARK  10 active torsions:
REMARK  status: ('A' for Active; 'I' for Inactive)
REMARK    1  A    between atoms: C_1  and  C_9
REMARK    2  A    between atoms: C_3  and  C_17
REMARK    3  A    between atoms: C_5  and  O_7
REMARK    4  A    between atoms: C_9  and  C_10
REMARK    5  A    between atoms: C_10  and  C_12
REMARK    6  A    between atoms: C_10  and  C_15
REMARK    7  A    between atoms: C_12  and  O_13
REMARK    8  A    between atoms: C_17  and  N_19
REMARK    9  A    between atoms: C_20  and  C_23
REMARK   10  A    between atoms: C_26  and  C_32
REMARK                            x       y       z     vdW  Elec       q    Type
REMARK                         _______ _______ _______ _____ _____    ______ ____
ROOT
ATOM      1  C   UNL     1      31.267 -23.040 -15.163  0.00  0.00    -0.022 C 
ATOM      2  C   UNL     1      32.359 -23.251 -16.005  0.00  0.00    -0.004 C 
ATOM      3  C   UNL     1      33.548 -23.767 -15.488  0.00  0.00    +0.031 C 
ATOM      4  C   UNL     1      31.364 -23.345 -13.805  0.00  0.00    -0.001 C 
ATOM      5  C   UNL     1      33.644 -24.073 -14.130  0.00  0.00    +0.136 C 
ATOM      6  C   UNL     1      32.552 -23.861 -13.289  0.00  0.00    +0.036 C 
ENDROOT
BRANCH   5   7
ATOM      7  O   UNL     1      34.798 -24.577 -13.610  0.00  0.00    -0.472 OA
ATOM      8  C   UNL     1      35.113 -24.219 -12.265  0.00  0.00    +0.252 C 
ENDBRANCH   5   7
BRANCH   1   9
ATOM      9  C   UNL     1      29.980 -22.481 -15.721  0.00  0.00    +0.037 C 
BRANCH   9  10
ATOM     10  C   UNL     1      28.832 -23.507 -15.746  0.00  0.00    +0.103 C 
BRANCH  10  12
ATOM     11  O   UNL     1      27.425 -22.045 -17.093  0.00  0.00    -0.250 OA
ATOM     12  C   UNL     1      27.870 -23.166 -16.876  0.00  0.00    +0.314 C 
BRANCH  12  13
ATOM     13  O   UNL     1      27.567 -24.240 -17.649  0.00  0.00    -0.480 OA
ATOM     14  H   UNL     1      28.238 -24.663 -18.147  0.00  0.00    +0.295 HD
ENDBRANCH  12  13
ENDBRANCH  10  12
BRANCH  10  15
ATOM     15  C   UNL     1      29.394 -24.928 -15.940  0.00  0.00    +0.011 C 
ATOM     16  C   UNL     1      29.126 -25.833 -14.744  0.00  0.00    +0.001 C 
ENDBRANCH  10  15
ENDBRANCH   9  10
ENDBRANCH   1   9
BRANCH   3  17
ATOM     17  C   UNL     1      34.707 -23.987 -16.404  0.00  0.00    +0.120 C 
BRANCH  17  19
ATOM     18  O   UNL     1      33.911 -24.035 -19.162  0.00  0.00    -0.270 OA
ATOM     19  N   UNL     1      34.856 -22.920 -17.360  0.00  0.00    -0.297 N 
ATOM     20  C   UNL     1      34.439 -23.036 -18.680  0.00  0.00    +0.248 C 
ATOM     21  H   UNL     1      35.270 -22.077 -17.068  0.00  0.00    +0.150 HD
BRANCH  20  23
ATOM     22  F   UNL     1      37.030 -22.034 -19.191  0.00  0.00    -0.204 F 
ATOM     23  C   UNL     1      34.688 -21.856 -19.548  0.00  0.00    +0.081 C 
ATOM     24  C   UNL     1      35.991 -21.408 -19.764  0.00  0.00    +0.144 C 
ATOM     25  C   UNL     1      33.615 -21.198 -20.149  0.00  0.00    +0.007 C 
ATOM     26  C   UNL     1      35.149 -19.644 -21.182  0.00  0.00    +0.074 C 
ATOM     27  C   UNL     1      36.222 -20.302 -20.581  0.00  0.00    +0.034 C 
ATOM     28  C   UNL     1      33.846 -20.091 -20.965  0.00  0.00    +0.004 C 
BRANCH  26  32
ATOM     29  F   UNL     1      35.249 -17.264 -21.412  0.00  0.00    -0.166 F 
ATOM     30  F   UNL     1      36.653 -18.426 -22.587  0.00  0.00    -0.166 F 
ATOM     31  F   UNL     1      34.546 -18.409 -23.122  0.00  0.00    -0.166 F 
ATOM     32  C   UNL     1      35.396 -18.460 -22.056  0.00  0.00    +0.419 C 
ENDBRANCH  26  32
ENDBRANCH  20  23
ENDBRANCH  17  19
ENDBRANCH   3  17
TORSDOF 10
ENDMDL
MODEL 3
REMARK VINA RESULT:     -10.8      2.133      5.193
REMARK  Name = 11711595
REMARK  10 active torsions:
REMARK  status: ('A' for Active; 'I' for Inactive)
REMARK    1  A    between atoms: C_1  and  C_9
REMARK    2  A    between atoms: C_3  and  C_17
REMARK    3  A    between atoms: C_5  and  O_7
REMARK    4  A    between atoms: C_9  and  C_10
REMARK    5  A    between atoms: C_10  and  C_12
REMARK    6  A    between atoms: C_10  and  C_15
REMARK    7  A    between atoms: C_12  and  O_13
REMARK    8  A    between atoms: C_17  and  N_19
REMARK    9  A    between atoms: C_20  and  C_23
REMARK   10  A    between atoms: C_26  and  C_32
REMARK                            x       y       z     vdW  Elec       q    Type
REMARK                         _______ _______ _______ _____ _____    ______ ____
ROOT
ATOM      1  C   UNL     1      31.247 -23.117 -15.596  0.00  0.00    -0.022 C 
ATOM      2  C   UNL     1      32.391 -23.313 -16.371  0.00  0.00    -0.004 C 
ATOM      3  C   UNL     1      33.593 -23.677 -15.762  0.00  0.00    +0.031 C 
ATOM      4  C   UNL     1      31.306 -23.284 -14.213  0.00  0.00    -0.001 C 
ATOM      5  C   UNL     1      33.650 -23.844 -14.377  0.00  0.00    +0.136 C 
ATOM      6  C   UNL     1      32.507 -23.647 -13.603  0.00  0.00    +0.036 C 
ENDROOT
BRANCH   5   7
ATOM      7  O   UNL     1      34.815 -24.198 -13.766  0.00  0.00    -0.472 OA
ATOM      8  C   UNL     1      34.821 -24.208 -12.340  0.00  0.00    +0.252 C 
ENDBRANCH   5   7
BRANCH   1   9
ATOM      9  C   UNL     1      29.947 -22.723 -16.256  0.00  0.00    +0.037 C 
BRANCH   9  10
ATOM     10  C   UNL     1      28.712 -23.354 -15.587  0.00  0.00    +0.103 C 
BRANCH  10  12
ATOM     11  O   UNL     1      26.379 -22.660 -15.499  0.00  0.00    -0.250 OA
ATOM     12  C   UNL     1      27.453 -22.659 -16.088  0.00  0.00    +0.314 C 
BRANCH  12  13
ATOM     13  O   UNL     1      27.648 -22.006 -17.262  0.00  0.00    -0.480 OA
ATOM     14  H   UNL     1      27.688 -22.487 -18.065  0.00  0.00    +0.295 HD
ENDBRANCH  12  13
ENDBRANCH  10  12
BRANCH  10  15
ATOM     15  C   UNL     1      28.647 -24.860 -15.902  0.00  0.00    +0.011 C 
ATOM     16  C   UNL     1      28.961 -25.727 -14.688  0.00  0.00    +0.001 C 
ENDBRANCH  10  15
ENDBRANCH   9  10
ENDBRANCH   1   9
BRANCH   3  17
ATOM     17  C   UNL     1      34.806 -23.883 -16.606  0.00  0.00    +0.120 C 
BRANCH  17  19
ATOM     18  O   UNL     1      34.038 -23.839 -19.372  0.00  0.00    -0.270 OA
ATOM     19  N   UNL     1      35.011 -22.804 -17.538  0.00  0.00    -0.297 N 
ATOM     20  C   UNL     1      34.604 -22.875 -18.864  0.00  0.00    +0.248 C 
ATOM     21  H   UNL     1      35.458 -21.986 -17.224  0.00  0.00    +0.150 HD
BRANCH  20  23
ATOM     22  F   UNL     1      32.604 -21.346 -20.145  0.00  0.00    -0.204 F 
ATOM     23  C   UNL     1      34.913 -21.690 -19.705  0.00  0.00    +0.081 C 
ATOM     24  C   UNL     1      33.881 -20.973 -20.312  0.00  0.00    +0.144 C 
ATOM     25  C   UNL     1      36.238 -21.293 -19.886  0.00  0.00    +0.007 C 
ATOM     26  C   UNL     1      35.499 -19.464 -21.280  0.00  0.00    +0.074 C 
ATOM     27  C   UNL     1      34.174 -19.860 -21.099  0.00  0.00    +0.034 C 
ATOM     28  C   UNL     1      36.531 -20.181 -20.674  0.00  0.00    +0.004 C 
BRANCH  26  32
ATOM     29  F   UNL     1      35.042 -18.181 -23.248  0.00  0.00    -0.166 F 
ATOM     30  F   UNL     1      35.638 -17.084 -21.475  0.00  0.00    -0.166 F 
ATOM     31  F   UNL     1      37.105 -18.267 -22.561  0.00  0.00    -0.166 F 
ATOM     32  C   UNL     1      35.812 -18.273 -22.123  0.00  0.00    +0.419 C 
ENDBRANCH  26  32
ENDBRANCH  20  23
ENDBRANCH  17  19
ENDBRANCH   3  17
TORSDOF 10
ENDMDL
MODEL 4
REMARK VINA RESULT:     -10.5      5.389     11.059
REMARK  Name = 11711595
REMARK  10 active torsions:
REMARK  status: ('A' for Active; 'I' for Inactive)
REMARK    1  A    between atoms: C_1  and  C_9
REMARK    2  A    between atoms: C_3  and  C_17
REMARK    3  A    between atoms: C_5  and  O_7
REMARK    4  A    between atoms: C_9  and  C_10
REMARK    5  A    between atoms: C_10  and  C_12
REMARK    6  A    between atoms: C_10  and  C_15
REMARK    7  A    between atoms: C_12  and  O_13
REMARK    8  A    between atoms: C_17  and  N_19
REMARK    9  A    between atoms: C_20  and  C_23
REMARK   10  A    between atoms: C_26  and  C_32
REMARK                            x       y       z     vdW  Elec       q    Type
REMARK                         _______ _______ _______ _____ _____    ______ ____
ROOT
ATOM      1  C   UNL     1      34.193 -15.068 -23.522  0.00  0.00    -0.022 C 
ATOM      2  C   UNL     1      35.045 -16.130 -23.210  0.00  0.00    -0.004 C 
ATOM      3  C   UNL     1      35.086 -17.255 -24.033  0.00  0.00    +0.031 C 
ATOM      4  C   UNL     1      33.384 -15.134 -24.656  0.00  0.00    -0.001 C 
ATOM      5  C   UNL     1      34.276 -17.320 -25.168  0.00  0.00    +0.136 C 
ATOM      6  C   UNL     1      33.426 -16.260 -25.479  0.00  0.00    +0.036 C 
ENDROOT
BRANCH   5   7
ATOM      7  O   UNL     1      34.305 -18.412 -25.982  0.00  0.00    -0.472 OA
ATOM      8  C   UNL     1      33.298 -19.401 -25.774  0.00  0.00    +0.252 C 
ENDBRANCH   5   7
BRANCH   1   9
ATOM      9  C   UNL     1      34.148 -13.850 -22.631  0.00  0.00    +0.037 C 
BRANCH   9  10
ATOM     10  C   UNL     1      32.890 -12.988 -22.845  0.00  0.00    +0.103 C 
BRANCH  10  12
ATOM     11  O   UNL     1      32.207 -13.785 -20.647  0.00  0.00    -0.250 OA
ATOM     12  C   UNL     1      32.039 -13.012 -21.582  0.00  0.00    +0.314 C 
BRANCH  12  13
ATOM     13  O   UNL     1      31.072 -12.059 -21.584  0.00  0.00    -0.480 OA
ATOM     14  H   UNL     1      30.745 -11.724 -22.396  0.00  0.00    +0.295 HD
ENDBRANCH  12  13
ENDBRANCH  10  12
BRANCH  10  15
ATOM     15  C   UNL     1      33.288 -11.541 -23.188  0.00  0.00    +0.011 C 
ATOM     16  C   UNL     1      34.045 -11.438 -24.506  0.00  0.00    +0.001 C 
ENDBRANCH  10  15
ENDBRANCH   9  10
ENDBRANCH   1   9
BRANCH   3  17
ATOM     17  C   UNL     1      36.002 -18.381 -23.684  0.00  0.00    +0.120 C 
BRANCH  17  19
ATOM     18  O   UNL     1      37.138 -18.989 -21.118  0.00  0.00    -0.270 OA
ATOM     19  N   UNL     1      35.443 -19.248 -22.680  0.00  0.00    -0.297 N 
ATOM     20  C   UNL     1      36.068 -19.484 -21.463  0.00  0.00    +0.248 C 
ATOM     21  H   UNL     1      34.584 -19.693 -22.864  0.00  0.00    +0.150 HD
BRANCH  20  23
ATOM     22  F   UNL     1      33.262 -19.805 -21.434  0.00  0.00    -0.204 F 
ATOM     23  C   UNL     1      35.376 -20.425 -20.545  0.00  0.00    +0.081 C 
ATOM     24  C   UNL     1      33.986 -20.541 -20.578  0.00  0.00    +0.144 C 
ATOM     25  C   UNL     1      36.119 -21.195 -19.651  0.00  0.00    +0.007 C 
ATOM     26  C   UNL     1      34.082 -22.197 -18.823  0.00  0.00    +0.074 C 
ATOM     27  C   UNL     1      33.339 -21.427 -19.717  0.00  0.00    +0.034 C 
ATOM     28  C   UNL     1      35.472 -22.081 -18.789  0.00  0.00    +0.004 C 
BRANCH  26  32
ATOM     29  F   UNL     1      32.060 -22.878 -17.739  0.00  0.00    -0.166 F 
ATOM     30  F   UNL     1      33.445 -24.445 -18.314  0.00  0.00    -0.166 F 
ATOM     31  F   UNL     1      33.922 -23.136 -16.644  0.00  0.00    -0.166 F 
ATOM     32  C   UNL     1      33.391 -23.145 -17.902  0.00  0.00    +0.419 C 
ENDBRANCH  26  32
ENDBRANCH  20  23
ENDBRANCH  17  19
ENDBRANCH   3  17
TORSDOF 10
ENDMDL
MODEL 5
REMARK VINA RESULT:     -10.4      2.769      4.744
REMARK  Name = 11711595
REMARK  10 active torsions:
REMARK  status: ('A' for Active; 'I' for Inactive)
REMARK    1  A    between atoms: C_1  and  C_9
REMARK    2  A    between atoms: C_3  and  C_17
REMARK    3  A    between atoms: C_5  and  O_7
REMARK    4  A    between atoms: C_9  and  C_10
REMARK    5  A    between atoms: C_10  and  C_12
REMARK    6  A    between atoms: C_10  and  C_15
REMARK    7  A    between atoms: C_12  and  O_13
REMARK    8  A    between atoms: C_17  and  N_19
REMARK    9  A    between atoms: C_20  and  C_23
REMARK   10  A    between atoms: C_26  and  C_32
REMARK                            x       y       z     vdW  Elec       q    Type
REMARK                         _______ _______ _______ _____ _____    ______ ____
ROOT
ATOM      1  C   UNL     1      35.275 -22.886 -16.803  0.00  0.00    -0.022 C 
ATOM      2  C   UNL     1      36.080 -22.298 -17.780  0.00  0.00    -0.004 C 
ATOM      3  C   UNL     1      35.527 -21.919 -19.003  0.00  0.00    +0.031 C 
ATOM      4  C   UNL     1      33.919 -23.095 -17.050  0.00  0.00    -0.001 C 
ATOM      5  C   UNL     1      34.169 -22.128 -19.250  0.00  0.00    +0.136 C 
ATOM      6  C   UNL     1      33.366 -22.715 -18.273  0.00  0.00    +0.036 C 
ENDROOT
BRANCH   5   7
ATOM      7  O   UNL     1      33.613 -21.764 -20.439  0.00  0.00    -0.472 OA
ATOM      8  C   UNL     1      32.583 -20.778 -20.398  0.00  0.00    +0.252 C 
ENDBRANCH   5   7
BRANCH   1   9
ATOM      9  C   UNL     1      35.874 -23.297 -15.479  0.00  0.00    +0.037 C 
BRANCH   9  10
ATOM     10  C   UNL     1      35.332 -24.641 -14.958  0.00  0.00    +0.103 C 
BRANCH  10  12
ATOM     11  O   UNL     1      37.630 -25.412 -14.723  0.00  0.00    -0.250 OA
ATOM     12  C   UNL     1      36.454 -25.670 -14.946  0.00  0.00    +0.314 C 
BRANCH  12  13
ATOM     13  O   UNL     1      36.011 -26.930 -15.189  0.00  0.00    -0.480 OA
ATOM     14  H   UNL     1      35.781 -27.187 -16.060  0.00  0.00    +0.295 HD
ENDBRANCH  12  13
ENDBRANCH  10  12
BRANCH  10  15
ATOM     15  C   UNL     1      34.756 -24.469 -13.540  0.00  0.00    +0.011 C 
ATOM     16  C   UNL     1      33.276 -24.104 -13.549  0.00  0.00    +0.001 C 
ENDBRANCH  10  15
ENDBRANCH   9  10
ENDBRANCH   1   9
BRANCH   3  17
ATOM     17  C   UNL     1      36.402 -21.292 -20.037  0.00  0.00    +0.120 C 
BRANCH  17  19
ATOM     18  O   UNL     1      37.850 -19.078 -21.152  0.00  0.00    -0.270 OA
ATOM     19  N   UNL     1      35.840 -20.074 -20.562  0.00  0.00    -0.297 N 
ATOM     20  C   UNL     1      36.624 -19.053 -21.083  0.00  0.00    +0.248 C 
ATOM     21  H   UNL     1      34.863 -19.960 -20.549  0.00  0.00    +0.150 HD
BRANCH  20  23
ATOM     22  F   UNL     1      36.035 -18.602 -23.808  0.00  0.00    -0.204 F 
ATOM     23  C   UNL     1      35.895 -17.849 -21.559  0.00  0.00    +0.081 C 
ATOM     24  C   UNL     1      35.632 -17.682 -22.918  0.00  0.00    +0.144 C 
ATOM     25  C   UNL     1      35.472 -16.886 -20.643  0.00  0.00    +0.007 C 
ATOM     26  C   UNL     1      34.524 -15.589 -22.447  0.00  0.00    +0.074 C 
ATOM     27  C   UNL     1      34.947 -16.552 -23.363  0.00  0.00    +0.034 C 
ATOM     28  C   UNL     1      34.787 -15.755 -21.088  0.00  0.00    +0.004 C 
BRANCH  26  32
ATOM     29  F   UNL     1      32.765 -14.004 -22.101  0.00  0.00    -0.166 F 
ATOM     30  F   UNL     1      34.579 -13.272 -23.038  0.00  0.00    -0.166 F 
ATOM     31  F   UNL     1      33.226 -14.559 -24.153  0.00  0.00    -0.166 F 
ATOM     32  C   UNL     1      33.790 -14.380 -22.923  0.00  0.00    +0.419 C 
ENDBRANCH  26  32
ENDBRANCH  20  23
ENDBRANCH  17  19
ENDBRANCH   3  17
TORSDOF 10
ENDMDL
MODEL 6
REMARK VINA RESULT:     -10.4      9.861     14.749
REMARK  Name = 11711595
REMARK  10 active torsions:
REMARK  status: ('A' for Active; 'I' for Inactive)
REMARK    1  A    between atoms: C_1  and  C_9
REMARK    2  A    between atoms: C_3  and  C_17
REMARK    3  A    between atoms: C_5  and  O_7
REMARK    4  A    between atoms: C_9  and  C_10
REMARK    5  A    between atoms: C_10  and  C_12
REMARK    6  A    between atoms: C_10  and  C_15
REMARK    7  A    between atoms: C_12  and  O_13
REMARK    8  A    between atoms: C_17  and  N_19
REMARK    9  A    between atoms: C_20  and  C_23
REMARK   10  A    between atoms: C_26  and  C_32
REMARK                            x       y       z     vdW  Elec       q    Type
REMARK                         _______ _______ _______ _____ _____    ______ ____
ROOT
ATOM      1  C   UNL     1      32.952  -8.349 -22.515  0.00  0.00    -0.022 C 
ATOM      2  C   UNL     1      33.393  -9.223 -23.509  0.00  0.00    -0.004 C 
ATOM      3  C   UNL     1      33.076 -10.580 -23.436  0.00  0.00    +0.031 C 
ATOM      4  C   UNL     1      32.193  -8.831 -21.449  0.00  0.00    -0.001 C 
ATOM      5  C   UNL     1      32.317 -11.062 -22.369  0.00  0.00    +0.136 C 
ATOM      6  C   UNL     1      31.876 -10.188 -21.376  0.00  0.00    +0.036 C 
ENDROOT
BRANCH   5   7
ATOM      7  O   UNL     1      31.998 -12.384 -22.282  0.00  0.00    -0.472 OA
ATOM      8  C   UNL     1      31.975 -12.960 -20.978  0.00  0.00    +0.252 C 
ENDBRANCH   5   7
BRANCH   1   9
ATOM      9  C   UNL     1      33.295  -6.880 -22.594  0.00  0.00    +0.037 C 
BRANCH   9  10
ATOM     10  C   UNL     1      32.361  -6.087 -23.526  0.00  0.00    +0.103 C 
BRANCH  10  12
ATOM     11  O   UNL     1      30.611  -4.435 -23.152  0.00  0.00    -0.250 OA
ATOM     12  C   UNL     1      31.517  -5.126 -22.701  0.00  0.00    +0.314 C 
BRANCH  12  13
ATOM     13  O   UNL     1      31.857  -5.126 -21.387  0.00  0.00    -0.480 OA
ATOM     14  H   UNL     1      32.379  -4.431 -21.038  0.00  0.00    +0.295 HD
ENDBRANCH  12  13
ENDBRANCH  10  12
BRANCH  10  15
ATOM     15  C   UNL     1      33.185  -5.308 -24.569  0.00  0.00    +0.011 C 
ATOM     16  C   UNL     1      34.577  -5.893 -24.771  0.00  0.00    +0.001 C 
ENDBRANCH  10  15
ENDBRANCH   9  10
ENDBRANCH   1   9
BRANCH   3  17
ATOM     17  C   UNL     1      33.556 -11.500 -24.508  0.00  0.00    +0.120 C 
BRANCH  17  19
ATOM     18  O   UNL     1      32.894 -14.152 -25.386  0.00  0.00    -0.270 OA
ATOM     19  N   UNL     1      34.071 -12.736 -23.976  0.00  0.00    -0.297 N 
ATOM     20  C   UNL     1      33.690 -13.977 -24.467  0.00  0.00    +0.248 C 
ATOM     21  H   UNL     1      34.717 -12.699 -23.235  0.00  0.00    +0.150 HD
BRANCH  20  23
ATOM     22  F   UNL     1      34.199 -16.409 -25.810  0.00  0.00    -0.204 F 
ATOM     23  C   UNL     1      34.290 -15.157 -23.793  0.00  0.00    +0.081 C 
ATOM     24  C   UNL     1      34.518 -16.332 -24.510  0.00  0.00    +0.144 C 
ATOM     25  C   UNL     1      34.625 -15.088 -22.441  0.00  0.00    +0.007 C 
ATOM     26  C   UNL     1      35.418 -17.369 -22.523  0.00  0.00    +0.074 C 
ATOM     27  C   UNL     1      35.083 -17.438 -23.875  0.00  0.00    +0.034 C 
ATOM     28  C   UNL     1      35.189 -16.195 -21.806  0.00  0.00    +0.004 C 
BRANCH  26  32
ATOM     29  F   UNL     1      35.902 -18.522 -20.483  0.00  0.00    -0.166 F 
ATOM     30  F   UNL     1      35.470 -19.741 -22.224  0.00  0.00    -0.166 F 
ATOM     31  F   UNL     1      37.359 -18.673 -22.091  0.00  0.00    -0.166 F 
ATOM     32  C   UNL     1      36.022 -18.552 -21.844  0.00  0.00    +0.419 C 
ENDBRANCH  26  32
ENDBRANCH  20  23
ENDBRANCH  17  19
ENDBRANCH   3  17
TORSDOF 10
ENDMDL
MODEL 7
REMARK VINA RESULT:      -9.9      2.908      4.682
REMARK  Name = 11711595
REMARK  10 active torsions:
REMARK  status: ('A' for Active; 'I' for Inactive)
REMARK    1  A    between atoms: C_1  and  C_9
REMARK    2  A    between atoms: C_3  and  C_17
REMARK    3  A    between atoms: C_5  and  O_7
REMARK    4  A    between atoms: C_9  and  C_10
REMARK    5  A    between atoms: C_10  and  C_12
REMARK    6  A    between atoms: C_10  and  C_15
REMARK    7  A    between atoms: C_12  and  O_13
REMARK    8  A    between atoms: C_17  and  N_19
REMARK    9  A    between atoms: C_20  and  C_23
REMARK   10  A    between atoms: C_26  and  C_32
REMARK                            x       y       z     vdW  Elec       q    Type
REMARK                         _______ _______ _______ _____ _____    ______ ____
ROOT
ATOM      1  C   UNL     1      34.844 -23.038 -16.825  0.00  0.00    -0.022 C 
ATOM      2  C   UNL     1      35.803 -22.395 -17.610  0.00  0.00    -0.004 C 
ATOM      3  C   UNL     1      35.448 -21.869 -18.853  0.00  0.00    +0.031 C 
ATOM      4  C   UNL     1      33.532 -23.155 -17.283  0.00  0.00    -0.001 C 
ATOM      5  C   UNL     1      34.135 -21.987 -19.311  0.00  0.00    +0.136 C 
ATOM      6  C   UNL     1      33.178 -22.630 -18.526  0.00  0.00    +0.036 C 
ENDROOT
BRANCH   5   7
ATOM      7  O   UNL     1      33.772 -21.480 -20.522  0.00  0.00    -0.472 OA
ATOM      8  C   UNL     1      32.666 -20.580 -20.542  0.00  0.00    +0.252 C 
ENDBRANCH   5   7
BRANCH   1   9
ATOM      9  C   UNL     1      35.228 -23.606 -15.480  0.00  0.00    +0.037 C 
BRANCH   9  10
ATOM     10  C   UNL     1      36.485 -24.495 -15.533  0.00  0.00    +0.103 C 
BRANCH  10  12
ATOM     11  O   UNL     1      37.544 -22.941 -13.986  0.00  0.00    -0.250 OA
ATOM     12  C   UNL     1      37.653 -23.761 -14.889  0.00  0.00    +0.314 C 
BRANCH  12  13
ATOM     13  O   UNL     1      38.852 -24.129 -15.409  0.00  0.00    -0.480 OA
ATOM     14  H   UNL     1      39.231 -23.634 -16.109  0.00  0.00    +0.295 HD
ENDBRANCH  12  13
ENDBRANCH  10  12
BRANCH  10  15
ATOM     15  C   UNL     1      36.227 -25.825 -14.800  0.00  0.00    +0.011 C 
ATOM     16  C   UNL     1      37.009 -26.987 -15.401  0.00  0.00    +0.001 C 
ENDBRANCH  10  15
ENDBRANCH   9  10
ENDBRANCH   1   9
BRANCH   3  17
ATOM     17  C   UNL     1      36.486 -21.185 -19.679  0.00  0.00    +0.120 C 
BRANCH  17  19
ATOM     18  O   UNL     1      37.786 -19.017 -21.039  0.00  0.00    -0.270 OA
ATOM     19  N   UNL     1      35.907 -20.330 -20.683  0.00  0.00    -0.297 N 
ATOM     20  C   UNL     1      36.617 -19.301 -21.288  0.00  0.00    +0.248 C 
ATOM     21  H   UNL     1      34.972 -20.479 -20.950  0.00  0.00    +0.150 HD
BRANCH  20  23
ATOM     22  F   UNL     1      35.275 -20.449 -23.491  0.00  0.00    -0.204 F 
ATOM     23  C   UNL     1      35.870 -18.492 -22.284  0.00  0.00    +0.081 C 
ATOM     24  C   UNL     1      35.226 -19.116 -23.352  0.00  0.00    +0.144 C 
ATOM     25  C   UNL     1      35.814 -17.104 -22.150  0.00  0.00    +0.007 C 
ATOM     26  C   UNL     1      34.468 -16.967 -24.151  0.00  0.00    +0.074 C 
ATOM     27  C   UNL     1      34.525 -18.354 -24.286  0.00  0.00    +0.034 C 
ATOM     28  C   UNL     1      35.113 -16.342 -23.084  0.00  0.00    +0.004 C 
BRANCH  26  32
ATOM     29  F   UNL     1      32.624 -16.788 -25.667  0.00  0.00    -0.166 F 
ATOM     30  F   UNL     1      33.239 -14.975 -24.647  0.00  0.00    -0.166 F 
ATOM     31  F   UNL     1      34.482 -15.805 -26.226  0.00  0.00    -0.166 F 
ATOM     32  C   UNL     1      33.717 -16.151 -25.150  0.00  0.00    +0.419 C 
ENDBRANCH  26  32
ENDBRANCH  20  23
ENDBRANCH  17  19
ENDBRANCH   3  17
TORSDOF 10
ENDMDL
MODEL 8
REMARK VINA RESULT:      -9.6      9.134     12.669
REMARK  Name = 11711595
REMARK  10 active torsions:
REMARK  status: ('A' for Active; 'I' for Inactive)
REMARK    1  A    between atoms: C_1  and  C_9
REMARK    2  A    between atoms: C_3  and  C_17
REMARK    3  A    between atoms: C_5  and  O_7
REMARK    4  A    between atoms: C_9  and  C_10
REMARK    5  A    between atoms: C_10  and  C_12
REMARK    6  A    between atoms: C_10  and  C_15
REMARK    7  A    between atoms: C_12  and  O_13
REMARK    8  A    between atoms: C_17  and  N_19
REMARK    9  A    between atoms: C_20  and  C_23
REMARK   10  A    between atoms: C_26  and  C_32
REMARK                            x       y       z     vdW  Elec       q    Type
REMARK                         _______ _______ _______ _____ _____    ______ ____
ROOT
ATOM      1  C   UNL     1      34.698 -15.890 -21.713  0.00  0.00    -0.022 C 
ATOM      2  C   UNL     1      33.827 -15.025 -21.050  0.00  0.00    -0.004 C 
ATOM      3  C   UNL     1      33.240 -13.963 -21.738  0.00  0.00    +0.031 C 
ATOM      4  C   UNL     1      34.982 -15.692 -23.064  0.00  0.00    -0.001 C 
ATOM      5  C   UNL     1      33.524 -13.766 -23.090  0.00  0.00    +0.136 C 
ATOM      6  C   UNL     1      34.395 -14.630 -23.753  0.00  0.00    +0.036 C 
ENDROOT
BRANCH   5   7
ATOM      7  O   UNL     1      32.960 -12.733 -23.777  0.00  0.00    -0.472 OA
ATOM      8  C   UNL     1      33.812 -11.993 -24.650  0.00  0.00    +0.252 C 
ENDBRANCH   5   7
BRANCH   1   9
ATOM      9  C   UNL     1      35.334 -17.039 -20.968  0.00  0.00    +0.037 C 
BRANCH   9  10
ATOM     10  C   UNL     1      35.894 -18.131 -21.899  0.00  0.00    +0.103 C 
BRANCH  10  12
ATOM     11  O   UNL     1      36.997 -19.436 -20.165  0.00  0.00    -0.250 OA
ATOM     12  C   UNL     1      37.070 -18.821 -21.222  0.00  0.00    +0.314 C 
BRANCH  12  13
ATOM     13  O   UNL     1      38.223 -18.707 -21.929  0.00  0.00    -0.480 OA
ATOM     14  H   UNL     1      38.795 -17.980 -21.779  0.00  0.00    +0.295 HD
ENDBRANCH  12  13
ENDBRANCH  10  12
BRANCH  10  15
ATOM     15  C   UNL     1      34.797 -19.159 -22.234  0.00  0.00    +0.011 C 
ATOM     16  C   UNL     1      34.600 -19.338 -23.735  0.00  0.00    +0.001 C 
ENDBRANCH  10  15
ENDBRANCH   9  10
ENDBRANCH   1   9
BRANCH   3  17
ATOM     17  C   UNL     1      32.310 -13.048 -21.012  0.00  0.00    +0.120 C 
BRANCH  17  19
ATOM     18  O   UNL     1      31.079 -10.730 -19.849  0.00  0.00    -0.270 OA
ATOM     19  N   UNL     1      32.369 -11.700 -21.515  0.00  0.00    -0.297 N 
ATOM     20  C   UNL     1      31.738 -10.637 -20.881  0.00  0.00    +0.248 C 
ATOM     21  H   UNL     1      32.875 -11.524 -22.340  0.00  0.00    +0.150 HD
BRANCH  20  23
ATOM     22  F   UNL     1      32.271  -8.263 -19.447  0.00  0.00    -0.204 F 
ATOM     23  C   UNL     1      31.871  -9.313 -21.540  0.00  0.00    +0.081 C 
ATOM     24  C   UNL     1      32.135  -8.175 -20.778  0.00  0.00    +0.144 C 
ATOM     25  C   UNL     1      31.731  -9.209 -22.924  0.00  0.00    +0.007 C 
ATOM     26  C   UNL     1      32.122  -6.829 -22.783  0.00  0.00    +0.074 C 
ATOM     27  C   UNL     1      32.261  -6.933 -21.399  0.00  0.00    +0.034 C 
ATOM     28  C   UNL     1      31.856  -7.966 -23.546  0.00  0.00    +0.004 C 
BRANCH  26  32
ATOM     29  F   UNL     1      31.343  -5.291 -24.443  0.00  0.00    -0.166 F 
ATOM     30  F   UNL     1      32.102  -4.444 -22.596  0.00  0.00    -0.166 F 
ATOM     31  F   UNL     1      33.478  -5.326 -24.030  0.00  0.00    -0.166 F 
ATOM     32  C   UNL     1      32.256  -5.500 -23.448  0.00  0.00    +0.419 C 
ENDBRANCH  26  32
ENDBRANCH  20  23
ENDBRANCH  17  19
ENDBRANCH   3  17
TORSDOF 10
ENDMDL
MODEL 9
REMARK VINA RESULT:      -9.5      9.830     14.732
REMARK  Name = 11711595
REMARK  10 active torsions:
REMARK  status: ('A' for Active; 'I' for Inactive)
REMARK    1  A    between atoms: C_1  and  C_9
REMARK    2  A    between atoms: C_3  and  C_17
REMARK    3  A    between atoms: C_5  and  O_7
REMARK    4  A    between atoms: C_9  and  C_10
REMARK    5  A    between atoms: C_10  and  C_12
REMARK    6  A    between atoms: C_10  and  C_15
REMARK    7  A    between atoms: C_12  and  O_13
REMARK    8  A    between atoms: C_17  and  N_19
REMARK    9  A    between atoms: C_20  and  C_23
REMARK   10  A    between atoms: C_26  and  C_32
REMARK                            x       y       z     vdW  Elec       q    Type
REMARK                         _______ _______ _______ _____ _____    ______ ____
ROOT
ATOM      1  C   UNL     1      33.346  -8.277 -22.603  0.00  0.00    -0.022 C 
ATOM      2  C   UNL     1      33.650  -9.205 -23.600  0.00  0.00    -0.004 C 
ATOM      3  C   UNL     1      33.151 -10.505 -23.518  0.00  0.00    +0.031 C 
ATOM      4  C   UNL     1      32.543  -8.650 -21.525  0.00  0.00    -0.001 C 
ATOM      5  C   UNL     1      32.347 -10.878 -22.439  0.00  0.00    +0.136 C 
ATOM      6  C   UNL     1      32.044  -9.950 -21.443  0.00  0.00    +0.036 C 
ENDROOT
BRANCH   5   7
ATOM      7  O   UNL     1      31.852 -12.143 -22.344  0.00  0.00    -0.472 OA
ATOM      8  C   UNL     1      31.992 -12.800 -21.086  0.00  0.00    +0.252 C 
ENDBRANCH   5   7
BRANCH   1   9
ATOM      9  C   UNL     1      33.886  -6.870 -22.691  0.00  0.00    +0.037 C 
BRANCH   9  10
ATOM     10  C   UNL     1      32.967  -5.915 -23.476  0.00  0.00    +0.103 C 
BRANCH  10  12
ATOM     11  O   UNL     1      34.664  -6.012 -25.220  0.00  0.00    -0.250 OA
ATOM     12  C   UNL     1      33.529  -5.708 -24.876  0.00  0.00    +0.314 C 
BRANCH  12  13
ATOM     13  O   UNL     1      32.623  -5.164 -25.729  0.00  0.00    -0.480 OA
ATOM     14  H   UNL     1      32.640  -4.244 -25.906  0.00  0.00    +0.295 HD
ENDBRANCH  12  13
ENDBRANCH  10  12
BRANCH  10  15
ATOM     15  C   UNL     1      31.542  -6.494 -23.557  0.00  0.00    +0.011 C 
ATOM     16  C   UNL     1      30.571  -5.795 -22.615  0.00  0.00    +0.001 C 
ENDBRANCH  10  15
ENDBRANCH   9  10
ENDBRANCH   1   9
BRANCH   3  17
ATOM     17  C   UNL     1      33.486 -11.485 -24.594  0.00  0.00    +0.120 C 
BRANCH  17  19
ATOM     18  O   UNL     1      32.800 -14.143 -25.433  0.00  0.00    -0.270 OA
ATOM     19  N   UNL     1      34.013 -12.716 -24.065  0.00  0.00    -0.297 N 
ATOM     20  C   UNL     1      33.619 -13.962 -24.536  0.00  0.00    +0.248 C 
ATOM     21  H   UNL     1      34.678 -12.674 -23.340  0.00  0.00    +0.150 HD
BRANCH  20  23
ATOM     22  F   UNL     1      34.086 -16.407 -25.870  0.00  0.00    -0.204 F 
ATOM     23  C   UNL     1      34.234 -15.137 -23.868  0.00  0.00    +0.081 C 
ATOM     24  C   UNL     1      34.441 -16.318 -24.579  0.00  0.00    +0.144 C 
ATOM     25  C   UNL     1      34.607 -15.056 -22.526  0.00  0.00    +0.007 C 
ATOM     26  C   UNL     1      35.393 -17.339 -22.608  0.00  0.00    +0.074 C 
ATOM     27  C   UNL     1      35.020 -17.420 -23.950  0.00  0.00    +0.034 C 
ATOM     28  C   UNL     1      35.186 -16.158 -21.896  0.00  0.00    +0.004 C 
BRANCH  26  32
ATOM     29  F   UNL     1      37.353 -18.640 -22.172  0.00  0.00    -0.166 F 
ATOM     30  F   UNL     1      35.893 -18.495 -20.575  0.00  0.00    -0.166 F 
ATOM     31  F   UNL     1      35.460 -19.700 -22.333  0.00  0.00    -0.166 F 
ATOM     32  C   UNL     1      36.013 -18.517 -21.935  0.00  0.00    +0.419 C 
ENDBRANCH  26  32
ENDBRANCH  20  23
ENDBRANCH  17  19
ENDBRANCH   3  17
TORSDOF 10
ENDMDL
