MODEL 1
REMARK VINA RESULT:     -11.2      0.000      0.000
REMARK  Name = 447653
REMARK  8 active torsions:
REMARK  status: ('A' for Active; 'I' for Inactive)
REMARK    1  A    between atoms: N_2  and  C_20
REMARK    2  A    between atoms: C_4  and  C_11
REMARK    3  A    between atoms: C_19  and  O_25
REMARK    4  A    between atoms: O_25  and  C_26
REMARK    5  A    between atoms: C_26  and  C_27
REMARK    6  A    between atoms: C_27  and  O_28
REMARK    7  A    between atoms: C_27  and  C_30
REMARK    8  A    between atoms: C_30  and  N_31
REMARK                            x       y       z     vdW  Elec       q    Type
REMARK                         _______ _______ _______ _____ _____    ______ ____
ROOT
ATOM      1  N   UNL     1      34.488 -23.115 -16.969  0.00  0.00    -0.340 NA
ATOM      2  N   UNL     1      32.745 -22.373 -18.354  0.00  0.00    -0.247 N 
ATOM      3  N   UNL     1      32.192 -23.634 -16.453  0.00  0.00    -0.170 NA
ATOM      4  C   UNL     1      34.845 -23.794 -15.862  0.00  0.00    +0.148 C 
ATOM      5  C   UNL     1      33.956 -24.411 -15.012  0.00  0.00    +0.052 C 
ATOM      6  C   UNL     1      33.162 -23.075 -17.202  0.00  0.00    +0.148 C 
ATOM      7  C   UNL     1      32.626 -24.297 -15.362  0.00  0.00    +0.114 C 
ATOM      8  H   UNL     1      31.769 -22.369 -18.483  0.00  0.00    +0.165 HD
ENDROOT
BRANCH   4  11
ATOM      9  N   UNL     1      36.930 -24.889 -15.040  0.00  0.00    -0.251 N 
ATOM     10  N   UNL     1      38.477 -23.337 -15.485  0.00  0.00    -0.393 NA
ATOM     11  C   UNL     1      36.268 -23.835 -15.616  0.00  0.00    +0.181 C 
ATOM     12  C   UNL     1      38.276 -24.537 -14.981  0.00  0.00    +0.187 C 
ATOM     13  C   UNL     1      37.239 -22.898 -15.880  0.00  0.00    +0.114 C 
ATOM     14  C   UNL     1      36.430 -26.104 -14.579  0.00  0.00    +0.068 C 
ATOM     15  C   UNL     1      39.170 -25.492 -14.412  0.00  0.00    +0.048 C 
ATOM     16  C   UNL     1      37.090 -21.569 -16.496  0.00  0.00    +0.064 C 
ATOM     17  C   UNL     1      37.279 -26.997 -14.044  0.00  0.00    +0.016 C 
ATOM     18  C   UNL     1      38.693 -26.669 -13.964  0.00  0.00    +0.005 C 
ENDBRANCH   4  11
BRANCH   2  20
ATOM     19  C   UNL     1      34.853 -20.295 -21.334  0.00  0.00    +0.139 C 
ATOM     20  C   UNL     1      33.451 -21.676 -19.352  0.00  0.00    +0.058 C 
ATOM     21  C   UNL     1      33.468 -20.164 -21.239  0.00  0.00    +0.038 C 
ATOM     22  C   UNL     1      35.538 -21.117 -20.439  0.00  0.00    +0.038 C 
ATOM     23  C   UNL     1      32.767 -20.854 -20.249  0.00  0.00    +0.018 C 
ATOM     24  C   UNL     1      34.838 -21.807 -19.449  0.00  0.00    +0.018 C 
BRANCH  19  25
ATOM     25  O   UNL     1      35.536 -19.622 -22.300  0.00  0.00    -0.473 OA
BRANCH  25  26
ATOM     26  C   UNL     1      34.767 -19.039 -23.351  0.00  0.00    +0.232 C 
BRANCH  26  27
ATOM     27  C   UNL     1      34.962 -17.525 -23.323  0.00  0.00    +0.133 C 
BRANCH  27  28
ATOM     28  O   UNL     1      36.280 -17.241 -22.848  0.00  0.00    -0.383 OA
ATOM     29  H   UNL     1      36.589 -17.973 -22.291  0.00  0.00    +0.210 HD
ENDBRANCH  27  28
BRANCH  27  30
ATOM     30  C   UNL     1      34.798 -16.868 -24.696  0.00  0.00    -0.044 C 
BRANCH  30  31
ATOM     31  N   UNL     1      33.687 -15.926 -24.723  0.00  0.00    +0.386 N 
ATOM     32  C   UNL     1      33.961 -14.780 -23.855  0.00  0.00    -0.101 C 
ATOM     33  C   UNL     1      33.426 -15.475 -26.091  0.00  0.00    -0.101 C 
ATOM     34  H   UNL     1      32.857 -16.406 -24.375  0.00  0.00    -0.080 HD
ENDBRANCH  30  31
ENDBRANCH  27  30
ENDBRANCH  26  27
ENDBRANCH  25  26
ENDBRANCH  19  25
ENDBRANCH   2  20
TORSDOF 8
ENDMDL
MODEL 2
REMARK VINA RESULT:     -10.9      1.696      1.916
REMARK  Name = 447653
REMARK  8 active torsions:
REMARK  status: ('A' for Active; 'I' for Inactive)
REMARK    1  A    between atoms: N_2  and  C_20
REMARK    2  A    between atoms: C_4  and  C_11
REMARK    3  A    between atoms: C_19  and  O_25
REMARK    4  A    between atoms: O_25  and  C_26
REMARK    5  A    between atoms: C_26  and  C_27
REMARK    6  A    between atoms: C_27  and  O_28
REMARK    7  A    between atoms: C_27  and  C_30
REMARK    8  A    between atoms: C_30  and  N_31
REMARK                            x       y       z     vdW  Elec       q    Type
REMARK                         _______ _______ _______ _____ _____    ______ ____
ROOT
ATOM      1  N   UNL     1      33.999 -23.070 -16.438  0.00  0.00    -0.340 NA
ATOM      2  N   UNL     1      32.518 -22.642 -18.207  0.00  0.00    -0.247 N 
ATOM      3  N   UNL     1      31.720 -23.854 -16.362  0.00  0.00    -0.170 NA
ATOM      4  C   UNL     1      34.187 -23.632 -15.229  0.00  0.00    +0.148 C 
ATOM      5  C   UNL     1      33.213 -24.310 -14.531  0.00  0.00    +0.052 C 
ATOM      6  C   UNL     1      32.757 -23.217 -16.941  0.00  0.00    +0.148 C 
ATOM      7  C   UNL     1      31.985 -24.391 -15.154  0.00  0.00    +0.114 C 
ATOM      8  H   UNL     1      31.598 -22.774 -18.534  0.00  0.00    +0.165 HD
ENDROOT
BRANCH   4  11
ATOM      9  N   UNL     1      35.885 -23.778 -13.408  0.00  0.00    -0.251 N 
ATOM     10  N   UNL     1      37.726 -23.019 -14.426  0.00  0.00    -0.393 NA
ATOM     11  C   UNL     1      35.519 -23.472 -14.694  0.00  0.00    +0.181 C 
ATOM     12  C   UNL     1      37.241 -23.484 -13.293  0.00  0.00    +0.187 C 
ATOM     13  C   UNL     1      36.665 -23.010 -15.297  0.00  0.00    +0.114 C 
ATOM     14  C   UNL     1      35.116 -24.285 -12.364  0.00  0.00    +0.068 C 
ATOM     15  C   UNL     1      37.851 -23.724 -12.026  0.00  0.00    +0.048 C 
ATOM     16  C   UNL     1      36.851 -22.540 -16.679  0.00  0.00    +0.064 C 
ATOM     17  C   UNL     1      35.697 -24.509 -11.175  0.00  0.00    +0.016 C 
ATOM     18  C   UNL     1      37.112 -24.215 -11.013  0.00  0.00    +0.005 C 
ENDBRANCH   4  11
BRANCH   2  20
ATOM     19  C   UNL     1      34.959 -20.483 -20.856  0.00  0.00    +0.139 C 
ATOM     20  C   UNL     1      33.335 -21.918 -19.095  0.00  0.00    +0.058 C 
ATOM     21  C   UNL     1      33.578 -20.288 -20.864  0.00  0.00    +0.038 C 
ATOM     22  C   UNL     1      35.529 -21.395 -19.970  0.00  0.00    +0.038 C 
ATOM     23  C   UNL     1      32.767 -21.004 -19.984  0.00  0.00    +0.018 C 
ATOM     24  C   UNL     1      34.718 -22.113 -19.090  0.00  0.00    +0.018 C 
BRANCH  19  25
ATOM     25  O   UNL     1      35.750 -19.783 -21.716  0.00  0.00    -0.473 OA
BRANCH  25  26
ATOM     26  C   UNL     1      35.870 -18.379 -21.489  0.00  0.00    +0.232 C 
BRANCH  26  27
ATOM     27  C   UNL     1      35.221 -17.634 -22.653  0.00  0.00    +0.133 C 
BRANCH  27  28
ATOM     28  O   UNL     1      35.915 -16.400 -22.851  0.00  0.00    -0.383 OA
ATOM     29  H   UNL     1      35.532 -15.930 -23.608  0.00  0.00    +0.210 HD
ENDBRANCH  27  28
BRANCH  27  30
ATOM     30  C   UNL     1      35.256 -18.417 -23.968  0.00  0.00    -0.044 C 
BRANCH  30  31
ATOM     31  N   UNL     1      34.023 -18.267 -24.728  0.00  0.00    +0.386 N 
ATOM     32  C   UNL     1      34.052 -17.038 -25.522  0.00  0.00    -0.101 C 
ATOM     33  C   UNL     1      33.807 -19.427 -25.596  0.00  0.00    -0.101 C 
ATOM     34  H   UNL     1      33.249 -18.207 -24.066  0.00  0.00    -0.080 HD
ENDBRANCH  30  31
ENDBRANCH  27  30
ENDBRANCH  26  27
ENDBRANCH  25  26
ENDBRANCH  19  25
ENDBRANCH   2  20
TORSDOF 8
ENDMDL
MODEL 3
REMARK VINA RESULT:      -9.6      1.867      4.126
REMARK  Name = 447653
REMARK  8 active torsions:
REMARK  status: ('A' for Active; 'I' for Inactive)
REMARK    1  A    between atoms: N_2  and  C_20
REMARK    2  A    between atoms: C_4  and  C_11
REMARK    3  A    between atoms: C_19  and  O_25
REMARK    4  A    between atoms: O_25  and  C_26
REMARK    5  A    between atoms: C_26  and  C_27
REMARK    6  A    between atoms: C_27  and  O_28
REMARK    7  A    between atoms: C_27  and  C_30
REMARK    8  A    between atoms: C_30  and  N_31
REMARK                            x       y       z     vdW  Elec       q    Type
REMARK                         _______ _______ _______ _____ _____    ______ ____
ROOT
ATOM      1  N   UNL     1      35.242 -22.216 -17.741  0.00  0.00    -0.340 NA
ATOM      2  N   UNL     1      37.059 -21.246 -18.865  0.00  0.00    -0.247 N 
ATOM      3  N   UNL     1      37.498 -22.537 -16.955  0.00  0.00    -0.170 NA
ATOM      4  C   UNL     1      34.821 -22.977 -16.713  0.00  0.00    +0.148 C 
ATOM      5  C   UNL     1      35.656 -23.546 -15.779  0.00  0.00    +0.052 C 
ATOM      6  C   UNL     1      36.577 -22.039 -17.801  0.00  0.00    +0.148 C 
ATOM      7  C   UNL     1      37.001 -23.288 -15.951  0.00  0.00    +0.114 C 
ATOM      8  H   UNL     1      38.039 -21.144 -18.869  0.00  0.00    +0.165 HD
ENDROOT
BRANCH   4  11
ATOM      9  N   UNL     1      32.730 -23.812 -15.639  0.00  0.00    -0.251 N 
ATOM     10  N   UNL     1      31.165 -23.153 -17.093  0.00  0.00    -0.393 NA
ATOM     11  C   UNL     1      33.390 -23.165 -16.653  0.00  0.00    +0.181 C 
ATOM     12  C   UNL     1      31.374 -23.779 -15.953  0.00  0.00    +0.187 C 
ATOM     13  C   UNL     1      32.408 -22.771 -17.530  0.00  0.00    +0.114 C 
ATOM     14  C   UNL     1      33.241 -24.411 -14.490  0.00  0.00    +0.068 C 
ATOM     15  C   UNL     1      30.481 -24.399 -15.031  0.00  0.00    +0.048 C 
ATOM     16  C   UNL     1      32.549 -22.035 -18.798  0.00  0.00    +0.064 C 
ATOM     17  C   UNL     1      32.393 -24.993 -13.627  0.00  0.00    +0.016 C 
ATOM     18  C   UNL     1      30.968 -24.980 -13.918  0.00  0.00    +0.005 C 
ENDBRANCH   4  11
BRANCH   2  20
ATOM     19  C   UNL     1      35.142 -19.239 -22.017  0.00  0.00    +0.139 C 
ATOM     20  C   UNL     1      36.416 -20.573 -19.921  0.00  0.00    +0.058 C 
ATOM     21  C   UNL     1      34.470 -20.240 -21.316  0.00  0.00    +0.038 C 
ATOM     22  C   UNL     1      36.452 -18.905 -21.672  0.00  0.00    +0.038 C 
ATOM     23  C   UNL     1      35.106 -20.906 -20.268  0.00  0.00    +0.018 C 
ATOM     24  C   UNL     1      37.089 -19.572 -20.625  0.00  0.00    +0.018 C 
BRANCH  19  25
ATOM     25  O   UNL     1      34.521 -18.589 -23.039  0.00  0.00    -0.473 OA
BRANCH  25  26
ATOM     26  C   UNL     1      34.172 -19.365 -24.184  0.00  0.00    +0.232 C 
BRANCH  26  27
ATOM     27  C   UNL     1      34.101 -18.444 -25.400  0.00  0.00    +0.133 C 
BRANCH  27  28
ATOM     28  O   UNL     1      32.727 -18.250 -25.749  0.00  0.00    -0.383 OA
ATOM     29  H   UNL     1      32.547 -18.672 -26.603  0.00  0.00    +0.210 HD
ENDBRANCH  27  28
BRANCH  27  30
ATOM     30  C   UNL     1      34.730 -17.071 -25.157  0.00  0.00    -0.044 C 
BRANCH  30  31
ATOM     31  N   UNL     1      33.739 -16.074 -24.772  0.00  0.00    +0.386 N 
ATOM     32  C   UNL     1      34.227 -15.269 -23.651  0.00  0.00    -0.101 C 
ATOM     33  C   UNL     1      33.405 -15.212 -25.908  0.00  0.00    -0.101 C 
ATOM     34  H   UNL     1      32.896 -16.565 -24.477  0.00  0.00    -0.080 HD
ENDBRANCH  30  31
ENDBRANCH  27  30
ENDBRANCH  26  27
ENDBRANCH  25  26
ENDBRANCH  19  25
ENDBRANCH   2  20
TORSDOF 8
ENDMDL
MODEL 4
REMARK VINA RESULT:      -9.2      6.700     13.958
REMARK  Name = 447653
REMARK  8 active torsions:
REMARK  status: ('A' for Active; 'I' for Inactive)
REMARK    1  A    between atoms: N_2  and  C_20
REMARK    2  A    between atoms: C_4  and  C_11
REMARK    3  A    between atoms: C_19  and  O_25
REMARK    4  A    between atoms: O_25  and  C_26
REMARK    5  A    between atoms: C_26  and  C_27
REMARK    6  A    between atoms: C_27  and  O_28
REMARK    7  A    between atoms: C_27  and  C_30
REMARK    8  A    between atoms: C_30  and  N_31
REMARK                            x       y       z     vdW  Elec       q    Type
REMARK                         _______ _______ _______ _____ _____    ______ ____
ROOT
ATOM      1  N   UNL     1      32.681 -10.497 -21.783  0.00  0.00    -0.340 NA
ATOM      2  N   UNL     1      32.334 -12.610 -20.823  0.00  0.00    -0.247 N 
ATOM      3  N   UNL     1      31.468 -10.732 -19.713  0.00  0.00    -0.170 NA
ATOM      4  C   UNL     1      32.487  -9.167 -21.696  0.00  0.00    +0.148 C 
ATOM      5  C   UNL     1      31.807  -8.550 -20.671  0.00  0.00    +0.052 C 
ATOM      6  C   UNL     1      32.152 -11.211 -20.770  0.00  0.00    +0.148 C 
ATOM      7  C   UNL     1      31.314  -9.392 -19.695  0.00  0.00    +0.114 C 
ATOM      8  H   UNL     1      31.930 -13.091 -20.064  0.00  0.00    +0.165 HD
ENDROOT
BRANCH   4  11
ATOM      9  N   UNL     1      32.735  -7.104 -23.076  0.00  0.00    -0.251 N 
ATOM     10  N   UNL     1      34.258  -7.736 -24.587  0.00  0.00    -0.393 NA
ATOM     11  C   UNL     1      33.056  -8.405 -22.784  0.00  0.00    +0.181 C 
ATOM     12  C   UNL     1      33.494  -6.741 -24.186  0.00  0.00    +0.187 C 
ATOM     13  C   UNL     1      33.991  -8.768 -23.723  0.00  0.00    +0.114 C 
ATOM     14  C   UNL     1      31.839  -6.249 -22.442  0.00  0.00    +0.068 C 
ATOM     15  C   UNL     1      33.325  -5.413 -24.678  0.00  0.00    +0.048 C 
ATOM     16  C   UNL     1      34.682 -10.059 -23.882  0.00  0.00    +0.064 C 
ATOM     17  C   UNL     1      31.686  -5.000 -22.912  0.00  0.00    +0.016 C 
ATOM     18  C   UNL     1      32.460  -4.580 -24.069  0.00  0.00    +0.005 C 
ENDBRANCH   4  11
BRANCH   2  20
ATOM     19  C   UNL     1      34.255 -15.124 -23.585  0.00  0.00    +0.139 C 
ATOM     20  C   UNL     1      32.978 -13.453 -21.748  0.00  0.00    +0.058 C 
ATOM     21  C   UNL     1      34.610 -15.168 -22.237  0.00  0.00    +0.038 C 
ATOM     22  C   UNL     1      33.263 -14.244 -24.016  0.00  0.00    +0.038 C 
ATOM     23  C   UNL     1      33.972 -14.334 -21.319  0.00  0.00    +0.018 C 
ATOM     24  C   UNL     1      32.625 -13.409 -23.099  0.00  0.00    +0.018 C 
BRANCH  19  25
ATOM     25  O   UNL     1      34.879 -15.939 -24.480  0.00  0.00    -0.473 OA
BRANCH  25  26
ATOM     26  C   UNL     1      34.047 -16.741 -25.316  0.00  0.00    +0.232 C 
BRANCH  26  27
ATOM     27  C   UNL     1      34.024 -18.165 -24.767  0.00  0.00    +0.133 C 
BRANCH  27  28
ATOM     28  O   UNL     1      33.839 -19.073 -25.857  0.00  0.00    -0.383 OA
ATOM     29  H   UNL     1      34.265 -18.717 -26.652  0.00  0.00    +0.210 HD
ENDBRANCH  27  28
BRANCH  27  30
ATOM     30  C   UNL     1      35.311 -18.553 -24.036  0.00  0.00    -0.044 C 
BRANCH  30  31
ATOM     31  N   UNL     1      35.146 -18.533 -22.588  0.00  0.00    +0.386 N 
ATOM     32  C   UNL     1      34.413 -19.718 -22.136  0.00  0.00    -0.101 C 
ATOM     33  C   UNL     1      36.447 -18.457 -21.921  0.00  0.00    -0.101 C 
ATOM     34  H   UNL     1      34.605 -17.704 -22.343  0.00  0.00    -0.080 HD
ENDBRANCH  30  31
ENDBRANCH  27  30
ENDBRANCH  26  27
ENDBRANCH  25  26
ENDBRANCH  19  25
ENDBRANCH   2  20
TORSDOF 8
ENDMDL
MODEL 5
REMARK VINA RESULT:      -9.2      3.567     11.790
REMARK  Name = 447653
REMARK  8 active torsions:
REMARK  status: ('A' for Active; 'I' for Inactive)
REMARK    1  A    between atoms: N_2  and  C_20
REMARK    2  A    between atoms: C_4  and  C_11
REMARK    3  A    between atoms: C_19  and  O_25
REMARK    4  A    between atoms: O_25  and  C_26
REMARK    5  A    between atoms: C_26  and  C_27
REMARK    6  A    between atoms: C_27  and  O_28
REMARK    7  A    between atoms: C_27  and  C_30
REMARK    8  A    between atoms: C_30  and  N_31
REMARK                            x       y       z     vdW  Elec       q    Type
REMARK                         _______ _______ _______ _____ _____    ______ ____
ROOT
ATOM      1  N   UNL     1      33.592 -14.615 -23.700  0.00  0.00    -0.340 NA
ATOM      2  N   UNL     1      34.472 -16.541 -24.710  0.00  0.00    -0.247 N 
ATOM      3  N   UNL     1      33.741 -14.797 -26.098  0.00  0.00    -0.170 NA
ATOM      4  C   UNL     1      33.055 -13.392 -23.869  0.00  0.00    +0.148 C 
ATOM      5  C   UNL     1      32.832 -12.807 -25.094  0.00  0.00    +0.052 C 
ATOM      6  C   UNL     1      33.908 -15.255 -24.843  0.00  0.00    +0.148 C 
ATOM      7  C   UNL     1      33.198 -13.565 -26.188  0.00  0.00    +0.114 C 
ATOM      8  H   UNL     1      34.688 -16.970 -25.570  0.00  0.00    +0.165 HD
ENDROOT
BRANCH   4  11
ATOM      9  N   UNL     1      32.506 -11.359 -22.531  0.00  0.00    -0.251 N 
ATOM     10  N   UNL     1      32.224 -12.211 -20.483  0.00  0.00    -0.393 NA
ATOM     11  C   UNL     1      32.718 -12.709 -22.640  0.00  0.00    +0.181 C 
ATOM     12  C   UNL     1      32.208 -11.104 -21.195  0.00  0.00    +0.187 C 
ATOM     13  C   UNL     1      32.539 -13.208 -21.372  0.00  0.00    +0.114 C 
ATOM     14  C   UNL     1      32.559 -10.372 -23.512  0.00  0.00    +0.068 C 
ATOM     15  C   UNL     1      31.947  -9.747 -20.838  0.00  0.00    +0.048 C 
ATOM     16  C   UNL     1      32.645 -14.602 -20.909  0.00  0.00    +0.064 C 
ATOM     17  C   UNL     1      32.312  -9.097 -23.167  0.00  0.00    +0.016 C 
ATOM     18  C   UNL     1      31.997  -8.788 -21.782  0.00  0.00    +0.005 C 
ENDBRANCH   4  11
BRANCH   2  20
ATOM     19  C   UNL     1      35.418 -18.898 -21.364  0.00  0.00    +0.139 C 
ATOM     20  C   UNL     1      34.790 -17.332 -23.589  0.00  0.00    +0.058 C 
ATOM     21  C   UNL     1      34.918 -19.497 -22.521  0.00  0.00    +0.038 C 
ATOM     22  C   UNL     1      35.603 -17.517 -21.319  0.00  0.00    +0.038 C 
ATOM     23  C   UNL     1      34.605 -18.714 -23.632  0.00  0.00    +0.018 C 
ATOM     24  C   UNL     1      35.289 -16.734 -22.430  0.00  0.00    +0.018 C 
BRANCH  19  25
ATOM     25  O   UNL     1      35.724 -19.662 -20.280  0.00  0.00    -0.473 OA
BRANCH  25  26
ATOM     26  C   UNL     1      36.797 -20.592 -20.424  0.00  0.00    +0.232 C 
BRANCH  26  27
ATOM     27  C   UNL     1      36.529 -21.797 -19.525  0.00  0.00    +0.133 C 
BRANCH  27  28
ATOM     28  O   UNL     1      36.545 -21.365 -18.162  0.00  0.00    -0.383 OA
ATOM     29  H   UNL     1      36.677 -22.130 -17.581  0.00  0.00    +0.210 HD
ENDBRANCH  27  28
BRANCH  27  30
ATOM     30  C   UNL     1      35.180 -22.467 -19.797  0.00  0.00    -0.044 C 
BRANCH  30  31
ATOM     31  N   UNL     1      34.124 -21.941 -18.941  0.00  0.00    +0.386 N 
ATOM     32  C   UNL     1      33.037 -21.383 -19.747  0.00  0.00    -0.101 C 
ATOM     33  C   UNL     1      33.612 -22.985 -18.052  0.00  0.00    -0.101 C 
ATOM     34  H   UNL     1      34.522 -21.194 -18.371  0.00  0.00    -0.080 HD
ENDBRANCH  30  31
ENDBRANCH  27  30
ENDBRANCH  26  27
ENDBRANCH  25  26
ENDBRANCH  19  25
ENDBRANCH   2  20
TORSDOF 8
ENDMDL
MODEL 6
REMARK VINA RESULT:      -9.0      7.529     11.950
REMARK  Name = 447653
REMARK  8 active torsions:
REMARK  status: ('A' for Active; 'I' for Inactive)
REMARK    1  A    between atoms: N_2  and  C_20
REMARK    2  A    between atoms: C_4  and  C_11
REMARK    3  A    between atoms: C_19  and  O_25
REMARK    4  A    between atoms: O_25  and  C_26
REMARK    5  A    between atoms: C_26  and  C_27
REMARK    6  A    between atoms: C_27  and  O_28
REMARK    7  A    between atoms: C_27  and  C_30
REMARK    8  A    between atoms: C_30  and  N_31
REMARK                            x       y       z     vdW  Elec       q    Type
REMARK                         _______ _______ _______ _____ _____    ______ ____
ROOT
ATOM      1  N   UNL     1      33.754 -13.300 -23.999  0.00  0.00    -0.340 NA
ATOM      2  N   UNL     1      33.221 -11.357 -25.201  0.00  0.00    -0.247 N 
ATOM      3  N   UNL     1      33.245 -13.402 -26.352  0.00  0.00    -0.170 NA
ATOM      4  C   UNL     1      33.932 -14.635 -24.023  0.00  0.00    +0.148 C 
ATOM      5  C   UNL     1      33.788 -15.414 -25.149  0.00  0.00    +0.052 C 
ATOM      6  C   UNL     1      33.416 -12.755 -25.184  0.00  0.00    +0.148 C 
ATOM      7  C   UNL     1      33.440 -14.735 -26.298  0.00  0.00    +0.114 C 
ATOM      8  H   UNL     1      32.974 -11.003 -26.086  0.00  0.00    +0.165 HD
ENDROOT
BRANCH   4  11
ATOM      9  N   UNL     1      34.916 -16.429 -22.596  0.00  0.00    -0.251 N 
ATOM     10  N   UNL     1      34.613 -15.605 -20.539  0.00  0.00    -0.393 NA
ATOM     11  C   UNL     1      34.295 -15.216 -22.751  0.00  0.00    +0.181 C 
ATOM     12  C   UNL     1      35.088 -16.622 -21.228  0.00  0.00    +0.187 C 
ATOM     13  C   UNL     1      34.121 -14.731 -21.476  0.00  0.00    +0.114 C 
ATOM     14  C   UNL     1      35.325 -17.344 -23.561  0.00  0.00    +0.068 C 
ATOM     15  C   UNL     1      35.721 -17.833 -20.820  0.00  0.00    +0.048 C 
ATOM     16  C   UNL     1      33.504 -13.464 -21.050  0.00  0.00    +0.064 C 
ATOM     17  C   UNL     1      35.921 -18.482 -23.169  0.00  0.00    +0.016 C 
ATOM     18  C   UNL     1      36.120 -18.723 -21.749  0.00  0.00    +0.005 C 
ENDBRANCH   4  11
BRANCH   2  20
ATOM     19  C   UNL     1      33.481  -8.410 -22.220  0.00  0.00    +0.139 C 
ATOM     20  C   UNL     1      33.307 -10.370 -24.201  0.00  0.00    +0.058 C 
ATOM     21  C   UNL     1      32.474  -9.374 -22.162  0.00  0.00    +0.038 C 
ATOM     22  C   UNL     1      34.400  -8.424 -23.269  0.00  0.00    +0.038 C 
ATOM     23  C   UNL     1      32.388 -10.354 -23.152  0.00  0.00    +0.018 C 
ATOM     24  C   UNL     1      34.313  -9.403 -24.259  0.00  0.00    +0.018 C 
BRANCH  19  25
ATOM     25  O   UNL     1      33.564  -7.454 -21.254  0.00  0.00    -0.473 OA
BRANCH  25  26
ATOM     26  C   UNL     1      32.343  -7.041 -20.644  0.00  0.00    +0.232 C 
BRANCH  26  27
ATOM     27  C   UNL     1      31.574  -6.162 -21.627  0.00  0.00    +0.133 C 
BRANCH  27  28
ATOM     28  O   UNL     1      30.751  -5.256 -20.887  0.00  0.00    -0.383 OA
ATOM     29  H   UNL     1      29.950  -5.056 -21.395  0.00  0.00    +0.210 HD
ENDBRANCH  27  28
BRANCH  27  30
ATOM     30  C   UNL     1      32.483  -5.340 -22.544  0.00  0.00    -0.044 C 
BRANCH  30  31
ATOM     31  N   UNL     1      32.005  -5.325 -23.920  0.00  0.00    +0.386 N 
ATOM     32  C   UNL     1      33.127  -5.223 -24.855  0.00  0.00    -0.101 C 
ATOM     33  C   UNL     1      31.215  -6.525 -24.205  0.00  0.00    -0.101 C 
ATOM     34  H   UNL     1      31.408  -4.507 -24.039  0.00  0.00    -0.080 HD
ENDBRANCH  30  31
ENDBRANCH  27  30
ENDBRANCH  26  27
ENDBRANCH  25  26
ENDBRANCH  19  25
ENDBRANCH   2  20
TORSDOF 8
ENDMDL
MODEL 7
REMARK VINA RESULT:      -8.9      1.528      4.276
REMARK  Name = 447653
REMARK  8 active torsions:
REMARK  status: ('A' for Active; 'I' for Inactive)
REMARK    1  A    between atoms: N_2  and  C_20
REMARK    2  A    between atoms: C_4  and  C_11
REMARK    3  A    between atoms: C_19  and  O_25
REMARK    4  A    between atoms: O_25  and  C_26
REMARK    5  A    between atoms: C_26  and  C_27
REMARK    6  A    between atoms: C_27  and  O_28
REMARK    7  A    between atoms: C_27  and  C_30
REMARK    8  A    between atoms: C_30  and  N_31
REMARK                            x       y       z     vdW  Elec       q    Type
REMARK                         _______ _______ _______ _____ _____    ______ ____
ROOT
ATOM      1  N   UNL     1      35.950 -23.098 -16.094  0.00  0.00    -0.340 NA
ATOM      2  N   UNL     1      37.491 -22.365 -17.705  0.00  0.00    -0.247 N 
ATOM      3  N   UNL     1      38.312 -23.494 -15.818  0.00  0.00    -0.170 NA
ATOM      4  C   UNL     1      35.752 -23.727 -14.919  0.00  0.00    +0.148 C 
ATOM      5  C   UNL     1      36.758 -24.259 -14.146  0.00  0.00    +0.052 C 
ATOM      6  C   UNL     1      37.239 -23.018 -16.479  0.00  0.00    +0.148 C 
ATOM      7  C   UNL     1      38.034 -24.111 -14.652  0.00  0.00    +0.114 C 
ATOM      8  H   UNL     1      38.445 -22.331 -17.946  0.00  0.00    +0.165 HD
ENDROOT
BRANCH   4  11
ATOM      9  N   UNL     1      33.296 -23.597 -15.337  0.00  0.00    -0.251 N 
ATOM     10  N   UNL     1      32.455 -24.079 -13.322  0.00  0.00    -0.393 NA
ATOM     11  C   UNL     1      34.368 -23.811 -14.510  0.00  0.00    +0.181 C 
ATOM     12  C   UNL     1      32.150 -23.771 -14.566  0.00  0.00    +0.187 C 
ATOM     13  C   UNL     1      33.826 -24.105 -13.281  0.00  0.00    +0.114 C 
ATOM     14  C   UNL     1      33.272 -23.267 -16.690  0.00  0.00    +0.068 C 
ATOM     15  C   UNL     1      30.895 -23.596 -15.222  0.00  0.00    +0.048 C 
ATOM     16  C   UNL     1      34.520 -24.420 -12.022  0.00  0.00    +0.064 C 
ATOM     17  C   UNL     1      32.087 -23.104 -17.300  0.00  0.00    +0.016 C 
ATOM     18  C   UNL     1      30.865 -23.277 -16.530  0.00  0.00    +0.005 C 
ENDBRANCH   4  11
BRANCH   2  20
ATOM     19  C   UNL     1      34.968 -20.543 -20.525  0.00  0.00    +0.139 C 
ATOM     20  C   UNL     1      36.646 -21.755 -18.650  0.00  0.00    +0.058 C 
ATOM     21  C   UNL     1      36.305 -20.157 -20.433  0.00  0.00    +0.038 C 
ATOM     22  C   UNL     1      34.468 -21.533 -19.679  0.00  0.00    +0.038 C 
ATOM     23  C   UNL     1      37.144 -20.763 -19.497  0.00  0.00    +0.018 C 
ATOM     24  C   UNL     1      35.306 -22.138 -18.743  0.00  0.00    +0.018 C 
BRANCH  19  25
ATOM     25  O   UNL     1      34.150 -19.951 -21.439  0.00  0.00    -0.473 OA
BRANCH  25  26
ATOM     26  C   UNL     1      34.626 -19.876 -22.782  0.00  0.00    +0.232 C 
BRANCH  26  27
ATOM     27  C   UNL     1      34.942 -18.420 -23.112  0.00  0.00    +0.133 C 
BRANCH  27  28
ATOM     28  O   UNL     1      36.359 -18.235 -23.062  0.00  0.00    -0.383 OA
ATOM     29  H   UNL     1      36.722 -18.259 -23.961  0.00  0.00    +0.210 HD
ENDBRANCH  27  28
BRANCH  27  30
ATOM     30  C   UNL     1      34.455 -17.994 -24.499  0.00  0.00    -0.044 C 
BRANCH  30  31
ATOM     31  N   UNL     1      34.657 -16.571 -24.738  0.00  0.00    +0.386 N 
ATOM     32  C   UNL     1      33.654 -16.057 -25.673  0.00  0.00    -0.101 C 
ATOM     33  C   UNL     1      34.606 -15.824 -23.479  0.00  0.00    -0.101 C 
ATOM     34  H   UNL     1      35.580 -16.448 -25.153  0.00  0.00    -0.080 HD
ENDBRANCH  30  31
ENDBRANCH  27  30
ENDBRANCH  26  27
ENDBRANCH  25  26
ENDBRANCH  19  25
ENDBRANCH   2  20
TORSDOF 8
ENDMDL
MODEL 8
REMARK VINA RESULT:      -8.9      7.634     15.607
REMARK  Name = 447653
REMARK  8 active torsions:
REMARK  status: ('A' for Active; 'I' for Inactive)
REMARK    1  A    between atoms: N_2  and  C_20
REMARK    2  A    between atoms: C_4  and  C_11
REMARK    3  A    between atoms: C_19  and  O_25
REMARK    4  A    between atoms: O_25  and  C_26
REMARK    5  A    between atoms: C_26  and  C_27
REMARK    6  A    between atoms: C_27  and  O_28
REMARK    7  A    between atoms: C_27  and  C_30
REMARK    8  A    between atoms: C_30  and  N_31
REMARK                            x       y       z     vdW  Elec       q    Type
REMARK                         _______ _______ _______ _____ _____    ______ ____
ROOT
ATOM      1  N   UNL     1      32.512  -8.232 -21.825  0.00  0.00    -0.340 NA
ATOM      2  N   UNL     1      31.980 -10.181 -20.632  0.00  0.00    -0.247 N 
ATOM      3  N   UNL     1      31.728  -8.115 -19.549  0.00  0.00    -0.170 NA
ATOM      4  C   UNL     1      32.591  -6.888 -21.821  0.00  0.00    +0.148 C 
ATOM      5  C   UNL     1      32.265  -6.096 -20.744  0.00  0.00    +0.052 C 
ATOM      6  C   UNL     1      32.078  -8.774 -20.670  0.00  0.00    +0.148 C 
ATOM      7  C   UNL     1      31.834  -6.773 -19.621  0.00  0.00    +0.114 C 
ATOM      8  H   UNL     1      31.659 -10.533 -19.770  0.00  0.00    +0.165 HD
ENDROOT
BRANCH   4  11
ATOM      9  N   UNL     1      32.514  -5.201 -23.657  0.00  0.00    -0.251 N 
ATOM     10  N   UNL     1      34.192  -5.871 -24.975  0.00  0.00    -0.393 NA
ATOM     11  C   UNL     1      33.057  -6.310 -23.061  0.00  0.00    +0.181 C 
ATOM     12  C   UNL     1      33.241  -4.973 -24.823  0.00  0.00    +0.187 C 
ATOM     13  C   UNL     1      34.083  -6.701 -23.888  0.00  0.00    +0.114 C 
ATOM     14  C   UNL     1      31.449  -4.405 -23.245  0.00  0.00    +0.068 C 
ATOM     15  C   UNL     1      32.852  -3.855 -25.620  0.00  0.00    +0.048 C 
ATOM     16  C   UNL     1      35.006  -7.838 -23.734  0.00  0.00    +0.064 C 
ATOM     17  C   UNL     1      31.089  -3.355 -24.000  0.00  0.00    +0.016 C 
ATOM     18  C   UNL     1      31.823  -3.081 -25.226  0.00  0.00    +0.005 C 
ENDBRANCH   4  11
BRANCH   2  20
ATOM     19  C   UNL     1      32.786 -13.167 -23.474  0.00  0.00    +0.139 C 
ATOM     20  C   UNL     1      32.251 -11.182 -21.585  0.00  0.00    +0.058 C 
ATOM     21  C   UNL     1      33.058 -11.831 -23.769  0.00  0.00    +0.038 C 
ATOM     22  C   UNL     1      32.245 -13.511 -22.235  0.00  0.00    +0.038 C 
ATOM     23  C   UNL     1      32.791 -10.840 -22.825  0.00  0.00    +0.018 C 
ATOM     24  C   UNL     1      31.977 -12.520 -21.291  0.00  0.00    +0.018 C 
BRANCH  19  25
ATOM     25  O   UNL     1      33.047 -14.135 -24.396  0.00  0.00    -0.473 OA
BRANCH  25  26
ATOM     26  C   UNL     1      33.987 -15.143 -24.029  0.00  0.00    +0.232 C 
BRANCH  26  27
ATOM     27  C   UNL     1      33.815 -16.340 -24.961  0.00  0.00    +0.133 C 
BRANCH  27  28
ATOM     28  O   UNL     1      33.986 -15.899 -26.310  0.00  0.00    -0.383 OA
ATOM     29  H   UNL     1      34.502 -16.556 -26.803  0.00  0.00    +0.210 HD
ENDBRANCH  27  28
BRANCH  27  30
ATOM     30  C   UNL     1      34.820 -17.464 -24.695  0.00  0.00    -0.044 C 
BRANCH  30  31
ATOM     31  N   UNL     1      34.162 -18.713 -24.337  0.00  0.00    +0.386 N 
ATOM     32  C   UNL     1      33.956 -19.547 -25.523  0.00  0.00    -0.101 C 
ATOM     33  C   UNL     1      34.945 -19.441 -23.336  0.00  0.00    -0.101 C 
ATOM     34  H   UNL     1      33.251 -18.488 -23.937  0.00  0.00    -0.080 HD
ENDBRANCH  30  31
ENDBRANCH  27  30
ENDBRANCH  26  27
ENDBRANCH  25  26
ENDBRANCH  19  25
ENDBRANCH   2  20
TORSDOF 8
ENDMDL
MODEL 9
REMARK VINA RESULT:      -8.7      4.296     12.640
REMARK  Name = 447653
REMARK  8 active torsions:
REMARK  status: ('A' for Active; 'I' for Inactive)
REMARK    1  A    between atoms: N_2  and  C_20
REMARK    2  A    between atoms: C_4  and  C_11
REMARK    3  A    between atoms: C_19  and  O_25
REMARK    4  A    between atoms: O_25  and  C_26
REMARK    5  A    between atoms: C_26  and  C_27
REMARK    6  A    between atoms: C_27  and  O_28
REMARK    7  A    between atoms: C_27  and  C_30
REMARK    8  A    between atoms: C_30  and  N_31
REMARK                            x       y       z     vdW  Elec       q    Type
REMARK                         _______ _______ _______ _____ _____    ______ ____
ROOT
ATOM      1  N   UNL     1      33.489 -12.644 -23.260  0.00  0.00    -0.340 NA
ATOM      2  N   UNL     1      34.462 -14.365 -24.525  0.00  0.00    -0.247 N 
ATOM      3  N   UNL     1      33.827 -12.396 -25.634  0.00  0.00    -0.170 NA
ATOM      4  C   UNL     1      32.957 -11.407 -23.250  0.00  0.00    +0.148 C 
ATOM      5  C   UNL     1      32.826 -10.612 -24.366  0.00  0.00    +0.052 C 
ATOM      6  C   UNL     1      33.899 -13.072 -24.471  0.00  0.00    +0.148 C 
ATOM      7  C   UNL     1      33.283 -11.165 -25.544  0.00  0.00    +0.114 C 
ATOM      8  H   UNL     1      34.747 -14.634 -25.428  0.00  0.00    +0.165 HD
ENDROOT
BRANCH   4  11
ATOM      9  N   UNL     1      32.500  -9.642 -21.548  0.00  0.00    -0.251 N 
ATOM     10  N   UNL     1      31.737 -10.844 -19.824  0.00  0.00    -0.393 NA
ATOM     11  C   UNL     1      32.519 -10.953 -21.950  0.00  0.00    +0.181 C 
ATOM     12  C   UNL     1      32.016  -9.627 -20.243  0.00  0.00    +0.187 C 
ATOM     13  C   UNL     1      32.046 -11.669 -20.876  0.00  0.00    +0.114 C 
ATOM     14  C   UNL     1      32.875  -8.496 -22.244  0.00  0.00    +0.068 C 
ATOM     15  C   UNL     1      31.908  -8.355 -19.607  0.00  0.00    +0.048 C 
ATOM     16  C   UNL     1      31.855 -13.123 -20.754  0.00  0.00    +0.064 C 
ATOM     17  C   UNL     1      32.770  -7.302 -21.639  0.00  0.00    +0.016 C 
ATOM     18  C   UNL     1      32.268  -7.242 -20.275  0.00  0.00    +0.005 C 
ENDBRANCH   4  11
BRANCH   2  20
ATOM     19  C   UNL     1      35.160 -17.286 -21.589  0.00  0.00    +0.139 C 
ATOM     20  C   UNL     1      34.696 -15.344 -23.542  0.00  0.00    +0.058 C 
ATOM     21  C   UNL     1      35.173 -17.637 -22.940  0.00  0.00    +0.038 C 
ATOM     22  C   UNL     1      34.915 -15.965 -21.215  0.00  0.00    +0.038 C 
ATOM     23  C   UNL     1      34.941 -16.666 -23.915  0.00  0.00    +0.018 C 
ATOM     24  C   UNL     1      34.683 -14.995 -22.189  0.00  0.00    +0.018 C 
BRANCH  19  25
ATOM     25  O   UNL     1      35.386 -18.234 -20.638  0.00  0.00    -0.473 OA
BRANCH  25  26
ATOM     26  C   UNL     1      35.228 -19.596 -21.030  0.00  0.00    +0.232 C 
BRANCH  26  27
ATOM     27  C   UNL     1      36.540 -20.336 -20.780  0.00  0.00    +0.133 C 
BRANCH  27  28
ATOM     28  O   UNL     1      37.355 -19.544 -19.913  0.00  0.00    -0.383 OA
ATOM     29  H   UNL     1      36.807 -19.165 -19.208  0.00  0.00    +0.210 HD
ENDBRANCH  27  28
BRANCH  27  30
ATOM     30  C   UNL     1      36.346 -21.709 -20.131  0.00  0.00    -0.044 C 
BRANCH  30  31
ATOM     31  N   UNL     1      35.716 -21.611 -18.821  0.00  0.00    +0.386 N 
ATOM     32  C   UNL     1      34.484 -22.401 -18.781  0.00  0.00    -0.101 C 
ATOM     33  C   UNL     1      36.636 -22.055 -17.771  0.00  0.00    -0.101 C 
ATOM     34  H   UNL     1      35.480 -20.633 -18.655  0.00  0.00    -0.080 HD
ENDBRANCH  30  31
ENDBRANCH  27  30
ENDBRANCH  26  27
ENDBRANCH  25  26
ENDBRANCH  19  25
ENDBRANCH   2  20
TORSDOF 8
ENDMDL
