MODEL 1
REMARK VINA RESULT:     -12.5      0.000      0.000
REMARK  Name = 16750097
REMARK  3 active torsions:
REMARK  status: ('A' for Active; 'I' for Inactive)
REMARK    1  A    between atoms: N_3  and  C_10
REMARK    2  A    between atoms: N_3  and  C_23
REMARK    3  A    between atoms: C_23  and  C_24
REMARK                            x       y       z     vdW  Elec       q    Type
REMARK                         _______ _______ _______ _____ _____    ______ ____
ROOT
ATOM      1  O   UNL     1      33.460 -16.913 -26.337  0.00  0.00    -0.209 OA
ATOM      2  N   UNL     1      35.380 -19.671 -22.298  0.00  0.00    -0.305 N 
ATOM      3  N   UNL     1      35.875 -18.236 -20.676  0.00  0.00    -0.305 N 
ATOM      4  N   UNL     1      34.372 -14.373 -23.379  0.00  0.00    -0.275 N 
ATOM      5  N   UNL     1      33.534 -14.756 -25.573  0.00  0.00    -0.302 NA
ATOM      6  N   UNL     1      33.669 -12.603 -24.658  0.00  0.00    -0.320 N 
ATOM      7  C   UNL     1      35.049 -18.435 -22.789  0.00  0.00    +0.061 C 
ATOM      8  C   UNL     1      35.367 -17.556 -21.758  0.00  0.00    +0.061 C 
ATOM      9  C   UNL     1      35.869 -19.501 -21.033  0.00  0.00    +0.208 C 
ATOM     10  C   UNL     1      34.610 -15.732 -23.154  0.00  0.00    +0.064 C 
ATOM     11  C   UNL     1      34.301 -16.649 -24.169  0.00  0.00    +0.110 C 
ATOM     12  C   UNL     1      34.514 -18.026 -24.013  0.00  0.00    +0.030 C 
ATOM     13  C   UNL     1      35.146 -16.180 -21.935  0.00  0.00    +0.031 C 
ATOM     14  C   UNL     1      33.734 -16.119 -25.443  0.00  0.00    +0.208 C 
ATOM     15  C   UNL     1      33.845 -13.962 -24.582  0.00  0.00    +0.248 C 
ATOM     16  H   UNL     1      35.283 -20.529 -22.770  0.00  0.00    +0.150 HD
ATOM     17  H   UNL     1      36.179 -17.857 -19.819  0.00  0.00    +0.150 HD
ATOM     18  H   UNL     1      34.581 -13.712 -22.680  0.00  0.00    +0.156 HD
ATOM     19  H   UNL     1      33.914 -12.032 -23.894  0.00  0.00    +0.146 HD
ATOM     20  H   UNL     1      33.299 -12.200 -25.476  0.00  0.00    +0.146 HD
ENDROOT
BRANCH   9  21
ATOM     21  N   UNL     1      36.265 -20.595 -20.346  0.00  0.00    -0.263 NA
ATOM     22  H   UNL     1      37.214 -20.659 -20.092  0.00  0.00    +0.127 HD
BRANCH  21  23
ATOM     23  C   UNL     1      35.387 -21.683 -19.954  0.00  0.00    +0.098 C 
BRANCH  23  24
ATOM     24  C   UNL     1      35.655 -22.092 -18.532  0.00  0.00    -0.006 C 
ATOM     25  C   UNL     1      34.646 -22.608 -17.703  0.00  0.00    -0.003 C 
ATOM     26  C   UNL     1      34.963 -22.974 -16.373  0.00  0.00    -0.000 C 
ATOM     27  C   UNL     1      36.957 -21.937 -18.057  0.00  0.00    -0.003 C 
ATOM     28  C   UNL     1      33.329 -22.769 -18.164  0.00  0.00    -0.000 C 
ATOM     29  C   UNL     1      36.280 -22.811 -15.911  0.00  0.00    -0.000 C 
ATOM     30  C   UNL     1      37.270 -22.297 -16.750  0.00  0.00    -0.000 C 
ATOM     31  C   UNL     1      33.955 -23.490 -15.544  0.00  0.00    -0.000 C 
ATOM     32  C   UNL     1      32.340 -23.284 -17.326  0.00  0.00    -0.000 C 
ATOM     33  C   UNL     1      32.652 -23.644 -16.018  0.00  0.00    -0.000 C 
ENDBRANCH  23  24
ENDBRANCH  21  23
ENDBRANCH   9  21
TORSDOF 3
ENDMDL
MODEL 2
REMARK VINA RESULT:     -12.4      1.108      2.216
REMARK  Name = 16750097
REMARK  3 active torsions:
REMARK  status: ('A' for Active; 'I' for Inactive)
REMARK    1  A    between atoms: N_3  and  C_10
REMARK    2  A    between atoms: N_3  and  C_23
REMARK    3  A    between atoms: C_23  and  C_24
REMARK                            x       y       z     vdW  Elec       q    Type
REMARK                         _______ _______ _______ _____ _____    ______ ____
ROOT
ATOM      1  O   UNL     1      33.236 -18.957 -26.234  0.00  0.00    -0.209 OA
ATOM      2  N   UNL     1      35.677 -20.073 -21.716  0.00  0.00    -0.305 N 
ATOM      3  N   UNL     1      36.195 -18.148 -20.736  0.00  0.00    -0.305 N 
ATOM      4  N   UNL     1      34.195 -15.517 -24.420  0.00  0.00    -0.275 N 
ATOM      5  N   UNL     1      33.212 -16.668 -26.257  0.00  0.00    -0.302 NA
ATOM      6  N   UNL     1      33.261 -14.328 -26.144  0.00  0.00    -0.320 N 
ATOM      7  C   UNL     1      35.217 -19.096 -22.562  0.00  0.00    +0.061 C 
ATOM      8  C   UNL     1      35.551 -17.904 -21.927  0.00  0.00    +0.061 C 
ATOM      9  C   UNL     1      36.254 -19.457 -20.641  0.00  0.00    +0.208 C 
ATOM     10  C   UNL     1      34.550 -16.705 -23.773  0.00  0.00    +0.064 C 
ATOM     11  C   UNL     1      34.228 -17.927 -24.381  0.00  0.00    +0.110 C 
ATOM     12  C   UNL     1      34.555 -19.157 -23.790  0.00  0.00    +0.030 C 
ATOM     13  C   UNL     1      35.215 -16.683 -22.536  0.00  0.00    +0.031 C 
ATOM     14  C   UNL     1      33.522 -17.893 -25.694  0.00  0.00    +0.208 C 
ATOM     15  C   UNL     1      33.543 -15.569 -25.631  0.00  0.00    +0.248 C 
ATOM     16  H   UNL     1      35.606 -21.044 -21.858  0.00  0.00    +0.150 HD
ATOM     17  H   UNL     1      36.537 -17.485 -20.094  0.00  0.00    +0.150 HD
ATOM     18  H   UNL     1      34.410 -14.648 -24.011  0.00  0.00    +0.156 HD
ATOM     19  H   UNL     1      33.523 -13.519 -25.649  0.00  0.00    +0.146 HD
ATOM     20  H   UNL     1      32.796 -14.247 -27.009  0.00  0.00    +0.146 HD
ENDROOT
BRANCH   9  21
ATOM     21  N   UNL     1      36.783 -20.230 -19.668  0.00  0.00    -0.263 NA
ATOM     22  H   UNL     1      37.220 -19.778 -18.910  0.00  0.00    +0.127 HD
BRANCH  21  23
ATOM     23  C   UNL     1      36.754 -21.682 -19.661  0.00  0.00    +0.098 C 
BRANCH  23  24
ATOM     24  C   UNL     1      35.645 -22.183 -18.778  0.00  0.00    -0.006 C 
ATOM     25  C   UNL     1      35.862 -22.527 -17.434  0.00  0.00    -0.003 C 
ATOM     26  C   UNL     1      34.776 -22.993 -16.655  0.00  0.00    -0.000 C 
ATOM     27  C   UNL     1      34.376 -22.298 -19.346  0.00  0.00    -0.003 C 
ATOM     28  C   UNL     1      37.133 -22.419 -16.845  0.00  0.00    -0.000 C 
ATOM     29  C   UNL     1      33.505 -23.102 -17.244  0.00  0.00    -0.000 C 
ATOM     30  C   UNL     1      33.308 -22.755 -18.581  0.00  0.00    -0.000 C 
ATOM     31  C   UNL     1      34.993 -23.337 -15.311  0.00  0.00    -0.000 C 
ATOM     32  C   UNL     1      37.330 -22.766 -15.508  0.00  0.00    -0.000 C 
ATOM     33  C   UNL     1      36.261 -23.223 -14.742  0.00  0.00    -0.000 C 
ENDBRANCH  23  24
ENDBRANCH  21  23
ENDBRANCH   9  21
TORSDOF 3
ENDMDL
MODEL 3
REMARK VINA RESULT:     -12.4      3.335      9.365
REMARK  Name = 16750097
REMARK  3 active torsions:
REMARK  status: ('A' for Active; 'I' for Inactive)
REMARK    1  A    between atoms: N_3  and  C_10
REMARK    2  A    between atoms: N_3  and  C_23
REMARK    3  A    between atoms: C_23  and  C_24
REMARK                            x       y       z     vdW  Elec       q    Type
REMARK                         _______ _______ _______ _____ _____    ______ ____
ROOT
ATOM      1  O   UNL     1      35.700 -23.662 -16.502  0.00  0.00    -0.209 OA
ATOM      2  N   UNL     1      35.938 -20.555 -20.732  0.00  0.00    -0.305 N 
ATOM      3  N   UNL     1      33.854 -20.103 -21.356  0.00  0.00    -0.305 N 
ATOM      4  N   UNL     1      31.965 -22.814 -17.671  0.00  0.00    -0.275 N 
ATOM      5  N   UNL     1      33.448 -23.913 -16.169  0.00  0.00    -0.302 NA
ATOM      6  N   UNL     1      31.121 -24.079 -15.953  0.00  0.00    -0.320 N 
ATOM      7  C   UNL     1      35.136 -21.215 -19.837  0.00  0.00    +0.061 C 
ATOM      8  C   UNL     1      33.841 -20.917 -20.246  0.00  0.00    +0.061 C 
ATOM      9  C   UNL     1      35.126 -19.906 -21.620  0.00  0.00    +0.208 C 
ATOM     10  C   UNL     1      33.011 -22.263 -18.417  0.00  0.00    +0.064 C 
ATOM     11  C   UNL     1      34.332 -22.540 -18.033  0.00  0.00    +0.110 C 
ATOM     12  C   UNL     1      35.431 -22.023 -18.736  0.00  0.00    +0.030 C 
ATOM     13  C   UNL     1      32.754 -21.446 -19.530  0.00  0.00    +0.031 C 
ATOM     14  C   UNL     1      34.548 -23.414 -16.844  0.00  0.00    +0.208 C 
ATOM     15  C   UNL     1      32.246 -23.611 -16.585  0.00  0.00    +0.248 C 
ATOM     16  H   UNL     1      36.922 -20.549 -20.737  0.00  0.00    +0.150 HD
ATOM     17  H   UNL     1      33.078 -19.746 -21.845  0.00  0.00    +0.150 HD
ATOM     18  H   UNL     1      31.031 -22.632 -17.921  0.00  0.00    +0.156 HD
ATOM     19  H   UNL     1      30.230 -23.834 -16.291  0.00  0.00    +0.146 HD
ATOM     20  H   UNL     1      31.206 -24.660 -15.164  0.00  0.00    +0.146 HD
ENDROOT
BRANCH   9  21
ATOM     21  N   UNL     1      35.702 -19.183 -22.605  0.00  0.00    -0.263 NA
ATOM     22  H   UNL     1      36.084 -19.672 -23.370  0.00  0.00    +0.127 HD
BRANCH  21  23
ATOM     23  C   UNL     1      35.796 -17.734 -22.615  0.00  0.00    +0.098 C 
BRANCH  23  24
ATOM     24  C   UNL     1      34.935 -17.156 -23.704  0.00  0.00    -0.006 C 
ATOM     25  C   UNL     1      34.443 -15.843 -23.646  0.00  0.00    -0.003 C 
ATOM     26  C   UNL     1      33.636 -15.358 -24.703  0.00  0.00    -0.000 C 
ATOM     27  C   UNL     1      34.636 -17.981 -24.788  0.00  0.00    -0.003 C 
ATOM     28  C   UNL     1      34.733 -14.998 -22.562  0.00  0.00    -0.000 C 
ATOM     29  C   UNL     1      33.345 -16.203 -25.787  0.00  0.00    -0.000 C 
ATOM     30  C   UNL     1      33.843 -17.506 -25.828  0.00  0.00    -0.000 C 
ATOM     31  C   UNL     1      33.144 -14.045 -24.646  0.00  0.00    -0.000 C 
ATOM     32  C   UNL     1      34.234 -13.695 -22.521  0.00  0.00    -0.000 C 
ATOM     33  C   UNL     1      33.442 -13.220 -23.562  0.00  0.00    -0.000 C 
ENDBRANCH  23  24
ENDBRANCH  21  23
ENDBRANCH   9  21
TORSDOF 3
ENDMDL
MODEL 4
REMARK VINA RESULT:     -12.0      3.622      9.723
REMARK  Name = 16750097
REMARK  3 active torsions:
REMARK  status: ('A' for Active; 'I' for Inactive)
REMARK    1  A    between atoms: N_3  and  C_10
REMARK    2  A    between atoms: N_3  and  C_23
REMARK    3  A    between atoms: C_23  and  C_24
REMARK                            x       y       z     vdW  Elec       q    Type
REMARK                         _______ _______ _______ _____ _____    ______ ____
ROOT
ATOM      1  O   UNL     1      37.959 -23.014 -15.320  0.00  0.00    -0.209 OA
ATOM      2  N   UNL     1      36.413 -20.836 -19.845  0.00  0.00    -0.305 N 
ATOM      3  N   UNL     1      34.284 -21.384 -20.165  0.00  0.00    -0.305 N 
ATOM      4  N   UNL     1      34.121 -23.971 -15.948  0.00  0.00    -0.275 N 
ATOM      5  N   UNL     1      36.077 -24.102 -14.599  0.00  0.00    -0.302 NA
ATOM      6  N   UNL     1      34.080 -25.164 -13.990  0.00  0.00    -0.320 N 
ATOM      7  C   UNL     1      36.066 -21.606 -18.764  0.00  0.00    +0.061 C 
ATOM      8  C   UNL     1      34.733 -21.935 -18.986  0.00  0.00    +0.061 C 
ATOM      9  C   UNL     1      35.315 -20.733 -20.653  0.00  0.00    +0.208 C 
ATOM     10  C   UNL     1      34.750 -23.175 -16.910  0.00  0.00    +0.064 C 
ATOM     11  C   UNL     1      36.094 -22.821 -16.720  0.00  0.00    +0.110 C 
ATOM     12  C   UNL     1      36.788 -22.026 -17.645  0.00  0.00    +0.030 C 
ATOM     13  C   UNL     1      34.056 -22.733 -18.049  0.00  0.00    +0.031 C 
ATOM     14  C   UNL     1      36.783 -23.319 -15.495  0.00  0.00    +0.208 C 
ATOM     15  C   UNL     1      34.825 -24.390 -14.843  0.00  0.00    +0.248 C 
ATOM     16  H   UNL     1      37.294 -20.430 -20.010  0.00  0.00    +0.150 HD
ATOM     17  H   UNL     1      33.384 -21.462 -20.557  0.00  0.00    +0.150 HD
ATOM     18  H   UNL     1      33.179 -24.231 -16.061  0.00  0.00    +0.156 HD
ATOM     19  H   UNL     1      33.139 -25.364 -14.201  0.00  0.00    +0.146 HD
ATOM     20  H   UNL     1      34.485 -25.519 -13.166  0.00  0.00    +0.146 HD
ENDROOT
BRANCH   9  21
ATOM     21  N   UNL     1      35.423 -20.014 -21.791  0.00  0.00    -0.263 NA
ATOM     22  H   UNL     1      35.287 -20.484 -22.646  0.00  0.00    +0.127 HD
BRANCH  21  23
ATOM     23  C   UNL     1      35.724 -18.594 -21.843  0.00  0.00    +0.098 C 
BRANCH  23  24
ATOM     24  C   UNL     1      35.105 -17.967 -23.061  0.00  0.00    -0.006 C 
ATOM     25  C   UNL     1      34.758 -16.608 -23.104  0.00  0.00    -0.003 C 
ATOM     26  C   UNL     1      34.178 -16.078 -24.282  0.00  0.00    -0.000 C 
ATOM     27  C   UNL     1      34.882 -18.794 -24.163  0.00  0.00    -0.003 C 
ATOM     28  C   UNL     1      34.974 -15.761 -22.005  0.00  0.00    -0.000 C 
ATOM     29  C   UNL     1      33.961 -16.925 -25.381  0.00  0.00    -0.000 C 
ATOM     30  C   UNL     1      34.312 -18.274 -25.321  0.00  0.00    -0.000 C 
ATOM     31  C   UNL     1      33.831 -14.718 -24.325  0.00  0.00    -0.000 C 
ATOM     32  C   UNL     1      34.623 -14.412 -22.065  0.00  0.00    -0.000 C 
ATOM     33  C   UNL     1      34.053 -13.891 -23.224  0.00  0.00    -0.000 C 
ENDBRANCH  23  24
ENDBRANCH  21  23
ENDBRANCH   9  21
TORSDOF 3
ENDMDL
MODEL 5
REMARK VINA RESULT:     -12.0      3.152      9.290
REMARK  Name = 16750097
REMARK  3 active torsions:
REMARK  status: ('A' for Active; 'I' for Inactive)
REMARK    1  A    between atoms: N_3  and  C_10
REMARK    2  A    between atoms: N_3  and  C_23
REMARK    3  A    between atoms: C_23  and  C_24
REMARK                            x       y       z     vdW  Elec       q    Type
REMARK                         _______ _______ _______ _____ _____    ______ ____
ROOT
ATOM      1  O   UNL     1      32.268 -23.555 -16.889  0.00  0.00    -0.209 OA
ATOM      2  N   UNL     1      33.666 -20.616 -21.014  0.00  0.00    -0.305 N 
ATOM      3  N   UNL     1      35.867 -20.332 -20.925  0.00  0.00    -0.305 N 
ATOM      4  N   UNL     1      36.234 -23.011 -16.780  0.00  0.00    -0.275 N 
ATOM      5  N   UNL     1      34.261 -23.943 -15.830  0.00  0.00    -0.302 NA
ATOM      6  N   UNL     1      36.370 -24.256 -14.858  0.00  0.00    -0.320 N 
ATOM      7  C   UNL     1      34.077 -21.291 -19.893  0.00  0.00    +0.061 C 
ATOM      8  C   UNL     1      35.455 -21.100 -19.860  0.00  0.00    +0.061 C 
ATOM      9  C   UNL     1      34.770 -20.060 -21.596  0.00  0.00    +0.208 C 
ATOM     10  C   UNL     1      35.535 -22.422 -17.837  0.00  0.00    +0.064 C 
ATOM     11  C   UNL     1      34.144 -22.594 -17.905  0.00  0.00    +0.110 C 
ATOM     12  C   UNL     1      33.378 -22.031 -18.937  0.00  0.00    +0.030 C 
ATOM     13  C   UNL     1      36.204 -21.671 -18.818  0.00  0.00    +0.031 C 
ATOM     14  C   UNL     1      33.484 -23.399 -16.837  0.00  0.00    +0.208 C 
ATOM     15  C   UNL     1      35.553 -23.741 -15.833  0.00  0.00    +0.248 C 
ATOM     16  H   UNL     1      32.740 -20.544 -21.341  0.00  0.00    +0.150 HD
ATOM     17  H   UNL     1      36.786 -20.048 -21.138  0.00  0.00    +0.150 HD
ATOM     18  H   UNL     1      37.210 -22.904 -16.713  0.00  0.00    +0.156 HD
ATOM     19  H   UNL     1      37.339 -24.086 -14.888  0.00  0.00    +0.146 HD
ATOM     20  H   UNL     1      35.987 -24.795 -14.129  0.00  0.00    +0.146 HD
ENDROOT
BRANCH   9  21
ATOM     21  N   UNL     1      34.605 -19.338 -22.726  0.00  0.00    -0.263 NA
ATOM     22  H   UNL     1      33.790 -19.497 -23.255  0.00  0.00    +0.127 HD
BRANCH  21  23
ATOM     23  C   UNL     1      35.545 -18.345 -23.213  0.00  0.00    +0.098 C 
BRANCH  23  24
ATOM     24  C   UNL     1      35.074 -16.959 -22.869  0.00  0.00    -0.006 C 
ATOM     25  C   UNL     1      34.442 -16.132 -23.811  0.00  0.00    -0.003 C 
ATOM     26  C   UNL     1      34.022 -14.837 -23.425  0.00  0.00    -0.000 C 
ATOM     27  C   UNL     1      35.290 -16.515 -21.564  0.00  0.00    -0.003 C 
ATOM     28  C   UNL     1      34.218 -16.561 -25.130  0.00  0.00    -0.000 C 
ATOM     29  C   UNL     1      34.248 -14.407 -22.106  0.00  0.00    -0.000 C 
ATOM     30  C   UNL     1      34.877 -15.243 -21.183  0.00  0.00    -0.000 C 
ATOM     31  C   UNL     1      33.390 -14.010 -24.367  0.00  0.00    -0.000 C 
ATOM     32  C   UNL     1      33.588 -15.725 -26.053  0.00  0.00    -0.000 C 
ATOM     33  C   UNL     1      33.175 -14.452 -25.672  0.00  0.00    -0.000 C 
ENDBRANCH  23  24
ENDBRANCH  21  23
ENDBRANCH   9  21
TORSDOF 3
ENDMDL
MODEL 6
REMARK VINA RESULT:     -12.0      3.410      9.443
REMARK  Name = 16750097
REMARK  3 active torsions:
REMARK  status: ('A' for Active; 'I' for Inactive)
REMARK    1  A    between atoms: N_3  and  C_10
REMARK    2  A    between atoms: N_3  and  C_23
REMARK    3  A    between atoms: C_23  and  C_24
REMARK                            x       y       z     vdW  Elec       q    Type
REMARK                         _______ _______ _______ _____ _____    ______ ____
ROOT
ATOM      1  O   UNL     1      37.910 -22.906 -16.073  0.00  0.00    -0.209 OA
ATOM      2  N   UNL     1      35.986 -20.546 -20.355  0.00  0.00    -0.305 N 
ATOM      3  N   UNL     1      33.829 -21.060 -20.497  0.00  0.00    -0.305 N 
ATOM      4  N   UNL     1      34.019 -23.800 -16.380  0.00  0.00    -0.275 N 
ATOM      5  N   UNL     1      36.088 -24.001 -15.222  0.00  0.00    -0.302 NA
ATOM      6  N   UNL     1      34.140 -25.064 -14.470  0.00  0.00    -0.320 N 
ATOM      7  C   UNL     1      35.729 -21.352 -19.275  0.00  0.00    +0.061 C 
ATOM      8  C   UNL     1      34.377 -21.658 -19.386  0.00  0.00    +0.061 C 
ATOM      9  C   UNL     1      34.820 -20.401 -21.055  0.00  0.00    +0.208 C 
ATOM     10  C   UNL     1      34.567 -22.976 -17.366  0.00  0.00    +0.064 C 
ATOM     11  C   UNL     1      35.928 -22.643 -17.288  0.00  0.00    +0.110 C 
ATOM     12  C   UNL     1      36.545 -21.821 -18.243  0.00  0.00    +0.030 C 
ATOM     13  C   UNL     1      33.778 -22.484 -18.419  0.00  0.00    +0.031 C 
ATOM     14  C   UNL     1      36.719 -23.192 -16.150  0.00  0.00    +0.208 C 
ATOM     15  C   UNL     1      34.815 -24.267 -15.360  0.00  0.00    +0.248 C 
ATOM     16  H   UNL     1      36.853 -20.143 -20.586  0.00  0.00    +0.150 HD
ATOM     17  H   UNL     1      32.897 -21.114 -20.807  0.00  0.00    +0.150 HD
ATOM     18  H   UNL     1      33.066 -24.046 -16.415  0.00  0.00    +0.156 HD
ATOM     19  H   UNL     1      33.182 -25.246 -14.601  0.00  0.00    +0.146 HD
ATOM     20  H   UNL     1      34.615 -25.454 -13.700  0.00  0.00    +0.146 HD
ENDROOT
BRANCH   9  21
ATOM     21  N   UNL     1      34.833 -19.641 -22.171  0.00  0.00    -0.263 NA
ATOM     22  H   UNL     1      34.102 -19.767 -22.819  0.00  0.00    +0.127 HD
BRANCH  21  23
ATOM     23  C   UNL     1      35.849 -18.651 -22.482  0.00  0.00    +0.098 C 
BRANCH  23  24
ATOM     24  C   UNL     1      35.286 -17.262 -22.361  0.00  0.00    -0.006 C 
ATOM     25  C   UNL     1      34.707 -16.596 -23.452  0.00  0.00    -0.003 C 
ATOM     26  C   UNL     1      34.195 -15.288 -23.273  0.00  0.00    -0.000 C 
ATOM     27  C   UNL     1      35.361 -16.648 -21.110  0.00  0.00    -0.003 C 
ATOM     28  C   UNL     1      34.624 -17.197 -24.719  0.00  0.00    -0.000 C 
ATOM     29  C   UNL     1      34.279 -14.686 -22.007  0.00  0.00    -0.000 C 
ATOM     30  C   UNL     1      34.858 -15.363 -20.933  0.00  0.00    -0.000 C 
ATOM     31  C   UNL     1      33.616 -14.622 -24.364  0.00  0.00    -0.000 C 
ATOM     32  C   UNL     1      34.045 -16.520 -25.792  0.00  0.00    -0.000 C 
ATOM     33  C   UNL     1      33.541 -15.234 -25.615  0.00  0.00    -0.000 C 
ENDBRANCH  23  24
ENDBRANCH  21  23
ENDBRANCH   9  21
TORSDOF 3
ENDMDL
MODEL 7
REMARK VINA RESULT:     -11.9      3.096      9.444
REMARK  Name = 16750097
REMARK  3 active torsions:
REMARK  status: ('A' for Active; 'I' for Inactive)
REMARK    1  A    between atoms: N_3  and  C_10
REMARK    2  A    between atoms: N_3  and  C_23
REMARK    3  A    between atoms: C_23  and  C_24
REMARK                            x       y       z     vdW  Elec       q    Type
REMARK                         _______ _______ _______ _____ _____    ______ ____
ROOT
ATOM      1  O   UNL     1      31.338 -23.054 -17.499  0.00  0.00    -0.209 OA
ATOM      2  N   UNL     1      34.024 -20.329 -21.101  0.00  0.00    -0.305 N 
ATOM      3  N   UNL     1      36.184 -20.526 -20.623  0.00  0.00    -0.305 N 
ATOM      4  N   UNL     1      35.246 -23.374 -16.685  0.00  0.00    -0.275 N 
ATOM      5  N   UNL     1      32.987 -23.898 -16.153  0.00  0.00    -0.302 NA
ATOM      6  N   UNL     1      34.778 -24.689 -14.866  0.00  0.00    -0.320 N 
ATOM      7  C   UNL     1      34.081 -21.118 -19.980  0.00  0.00    +0.061 C 
ATOM      8  C   UNL     1      35.439 -21.227 -19.703  0.00  0.00    +0.061 C 
ATOM      9  C   UNL     1      35.305 -20.000 -21.446  0.00  0.00    +0.208 C 
ATOM     10  C   UNL     1      34.883 -22.610 -17.798  0.00  0.00    +0.064 C 
ATOM     11  C   UNL     1      33.522 -22.478 -18.112  0.00  0.00    +0.110 C 
ATOM     12  C   UNL     1      33.085 -21.726 -19.213  0.00  0.00    +0.030 C 
ATOM     13  C   UNL     1      35.856 -21.983 -18.595  0.00  0.00    +0.031 C 
ATOM     14  C   UNL     1      32.531 -23.163 -17.233  0.00  0.00    +0.208 C 
ATOM     15  C   UNL     1      34.272 -23.976 -15.923  0.00  0.00    +0.248 C 
ATOM     16  H   UNL     1      33.207 -20.049 -21.573  0.00  0.00    +0.150 HD
ATOM     17  H   UNL     1      37.164 -20.437 -20.657  0.00  0.00    +0.150 HD
ATOM     18  H   UNL     1      36.195 -23.480 -16.447  0.00  0.00    +0.156 HD
ATOM     19  H   UNL     1      35.751 -24.729 -14.720  0.00  0.00    +0.146 HD
ATOM     20  H   UNL     1      34.168 -25.161 -14.254  0.00  0.00    +0.146 HD
ENDROOT
BRANCH   9  21
ATOM     21  N   UNL     1      35.496 -19.219 -22.531  0.00  0.00    -0.263 NA
ATOM     22  H   UNL     1      35.591 -19.663 -23.405  0.00  0.00    +0.127 HD
BRANCH  21  23
ATOM     23  C   UNL     1      35.571 -17.769 -22.499  0.00  0.00    +0.098 C 
BRANCH  23  24
ATOM     24  C   UNL     1      34.807 -17.176 -23.650  0.00  0.00    -0.006 C 
ATOM     25  C   UNL     1      34.383 -15.838 -23.651  0.00  0.00    -0.003 C 
ATOM     26  C   UNL     1      33.667 -15.339 -24.766  0.00  0.00    -0.000 C 
ATOM     27  C   UNL     1      34.530 -18.011 -24.733  0.00  0.00    -0.003 C 
ATOM     28  C   UNL     1      34.652 -14.982 -22.570  0.00  0.00    -0.000 C 
ATOM     29  C   UNL     1      33.396 -16.195 -25.847  0.00  0.00    -0.000 C 
ATOM     30  C   UNL     1      33.827 -17.522 -25.829  0.00  0.00    -0.000 C 
ATOM     31  C   UNL     1      33.242 -14.001 -24.767  0.00  0.00    -0.000 C 
ATOM     32  C   UNL     1      34.222 -13.655 -22.588  0.00  0.00    -0.000 C 
ATOM     33  C   UNL     1      33.519 -13.165 -23.685  0.00  0.00    -0.000 C 
ENDBRANCH  23  24
ENDBRANCH  21  23
ENDBRANCH   9  21
TORSDOF 3
ENDMDL
MODEL 8
REMARK VINA RESULT:     -11.9      4.159      9.802
REMARK  Name = 16750097
REMARK  3 active torsions:
REMARK  status: ('A' for Active; 'I' for Inactive)
REMARK    1  A    between atoms: N_3  and  C_10
REMARK    2  A    between atoms: N_3  and  C_23
REMARK    3  A    between atoms: C_23  and  C_24
REMARK                            x       y       z     vdW  Elec       q    Type
REMARK                         _______ _______ _______ _____ _____    ______ ____
ROOT
ATOM      1  O   UNL     1      35.387 -24.481 -14.376  0.00  0.00    -0.209 OA
ATOM      2  N   UNL     1      35.187 -21.944 -18.973  0.00  0.00    -0.305 N 
ATOM      3  N   UNL     1      33.049 -21.757 -19.547  0.00  0.00    -0.305 N 
ATOM      4  N   UNL     1      31.550 -24.114 -15.462  0.00  0.00    -0.275 N 
ATOM      5  N   UNL     1      33.181 -24.878 -13.907  0.00  0.00    -0.302 NA
ATOM      6  N   UNL     1      30.889 -25.212 -13.560  0.00  0.00    -0.320 N 
ATOM      7  C   UNL     1      34.482 -22.548 -17.963  0.00  0.00    +0.061 C 
ATOM      8  C   UNL     1      33.151 -22.417 -18.345  0.00  0.00    +0.061 C 
ATOM      9  C   UNL     1      34.288 -21.488 -19.896  0.00  0.00    +0.208 C 
ATOM     10  C   UNL     1      32.514 -23.579 -16.321  0.00  0.00    +0.064 C 
ATOM     11  C   UNL     1      33.868 -23.690 -15.970  0.00  0.00    +0.110 C 
ATOM     12  C   UNL     1      34.888 -23.177 -16.785  0.00  0.00    +0.030 C 
ATOM     13  C   UNL     1      32.143 -22.938 -17.515  0.00  0.00    +0.031 C 
ATOM     14  C   UNL     1      34.206 -24.380 -14.692  0.00  0.00    +0.208 C 
ATOM     15  C   UNL     1      31.942 -24.736 -14.299  0.00  0.00    +0.248 C 
ATOM     16  H   UNL     1      36.166 -21.855 -19.025  0.00  0.00    +0.150 HD
ATOM     17  H   UNL     1      32.227 -21.534 -20.040  0.00  0.00    +0.150 HD
ATOM     18  H   UNL     1      30.595 -24.047 -15.688  0.00  0.00    +0.156 HD
ATOM     19  H   UNL     1      29.966 -25.089 -13.882  0.00  0.00    +0.146 HD
ATOM     20  H   UNL     1      31.055 -25.676 -12.708  0.00  0.00    +0.146 HD
ENDROOT
BRANCH   9  21
ATOM     21  N   UNL     1      34.759 -20.853 -20.991  0.00  0.00    -0.263 NA
ATOM     22  H   UNL     1      34.618 -21.283 -21.866  0.00  0.00    +0.127 HD
BRANCH  21  23
ATOM     23  C   UNL     1      35.457 -19.580 -20.968  0.00  0.00    +0.098 C 
BRANCH  23  24
ATOM     24  C   UNL     1      35.155 -18.790 -22.211  0.00  0.00    -0.006 C 
ATOM     25  C   UNL     1      34.982 -17.398 -22.185  0.00  0.00    -0.003 C 
ATOM     26  C   UNL     1      34.699 -16.712 -23.390  0.00  0.00    -0.000 C 
ATOM     27  C   UNL     1      35.050 -19.498 -23.409  0.00  0.00    -0.003 C 
ATOM     28  C   UNL     1      35.083 -16.669 -20.988  0.00  0.00    -0.000 C 
ATOM     29  C   UNL     1      34.597 -17.440 -24.587  0.00  0.00    -0.000 C 
ATOM     30  C   UNL     1      34.773 -18.825 -24.595  0.00  0.00    -0.000 C 
ATOM     31  C   UNL     1      34.526 -15.319 -23.364  0.00  0.00    -0.000 C 
ATOM     32  C   UNL     1      34.908 -15.284 -20.981  0.00  0.00    -0.000 C 
ATOM     33  C   UNL     1      34.630 -14.611 -22.167  0.00  0.00    -0.000 C 
ENDBRANCH  23  24
ENDBRANCH  21  23
ENDBRANCH   9  21
TORSDOF 3
ENDMDL
MODEL 9
REMARK VINA RESULT:     -11.8      4.806      8.391
REMARK  Name = 16750097
REMARK  3 active torsions:
REMARK  status: ('A' for Active; 'I' for Inactive)
REMARK    1  A    between atoms: N_3  and  C_10
REMARK    2  A    between atoms: N_3  and  C_23
REMARK    3  A    between atoms: C_23  and  C_24
REMARK                            x       y       z     vdW  Elec       q    Type
REMARK                         _______ _______ _______ _____ _____    ______ ____
ROOT
ATOM      1  O   UNL     1      34.522  -6.320 -24.148  0.00  0.00    -0.209 OA
ATOM      2  N   UNL     1      34.294 -11.569 -24.238  0.00  0.00    -0.305 N 
ATOM      3  N   UNL     1      32.663 -12.197 -22.866  0.00  0.00    -0.305 N 
ATOM      4  N   UNL     1      31.595  -7.510 -21.687  0.00  0.00    -0.275 N 
ATOM      5  N   UNL     1      32.858  -5.754 -22.680  0.00  0.00    -0.302 NA
ATOM      6  N   UNL     1      31.126  -5.327 -21.161  0.00  0.00    -0.320 N 
ATOM      7  C   UNL     1      33.776 -10.406 -23.727  0.00  0.00    +0.061 C 
ATOM      8  C   UNL     1      32.760 -10.824 -22.874  0.00  0.00    +0.061 C 
ATOM      9  C   UNL     1      33.596 -12.611 -23.693  0.00  0.00    +0.208 C 
ATOM     10  C   UNL     1      32.311  -8.504 -22.360  0.00  0.00    +0.064 C 
ATOM     11  C   UNL     1      33.343  -8.121 -23.230  0.00  0.00    +0.110 C 
ATOM     12  C   UNL     1      34.104  -9.065 -23.937  0.00  0.00    +0.030 C 
ATOM     13  C   UNL     1      32.010  -9.864 -22.175  0.00  0.00    +0.031 C 
ATOM     14  C   UNL     1      33.622  -6.665 -23.389  0.00  0.00    +0.208 C 
ATOM     15  C   UNL     1      31.912  -6.186 -21.888  0.00  0.00    +0.248 C 
ATOM     16  H   UNL     1      35.035 -11.642 -24.881  0.00  0.00    +0.150 HD
ATOM     17  H   UNL     1      32.032 -12.749 -22.350  0.00  0.00    +0.150 HD
ATOM     18  H   UNL     1      30.867  -7.756 -21.073  0.00  0.00    +0.156 HD
ATOM     19  H   UNL     1      30.422  -5.683 -20.573  0.00  0.00    +0.146 HD
ATOM     20  H   UNL     1      31.267  -4.355 -21.228  0.00  0.00    +0.146 HD
ENDROOT
BRANCH   9  21
ATOM     21  N   UNL     1      33.936 -13.867 -24.053  0.00  0.00    -0.263 NA
ATOM     22  H   UNL     1      33.669 -14.175 -24.950  0.00  0.00    +0.127 HD
BRANCH  21  23
ATOM     23  C   UNL     1      34.669 -14.796 -23.211  0.00  0.00    +0.098 C 
BRANCH  23  24
ATOM     24  C   UNL     1      34.553 -16.197 -23.745  0.00  0.00    -0.006 C 
ATOM     25  C   UNL     1      34.921 -17.317 -22.984  0.00  0.00    -0.003 C 
ATOM     26  C   UNL     1      34.788 -18.610 -23.545  0.00  0.00    -0.000 C 
ATOM     27  C   UNL     1      34.061 -16.349 -25.042  0.00  0.00    -0.003 C 
ATOM     28  C   UNL     1      35.419 -17.184 -21.677  0.00  0.00    -0.000 C 
ATOM     29  C   UNL     1      34.292 -18.744 -24.852  0.00  0.00    -0.000 C 
ATOM     30  C   UNL     1      33.930 -17.619 -25.594  0.00  0.00    -0.000 C 
ATOM     31  C   UNL     1      35.156 -19.730 -22.783  0.00  0.00    -0.000 C 
ATOM     32  C   UNL     1      35.780 -18.309 -20.935  0.00  0.00    -0.000 C 
ATOM     33  C   UNL     1      35.649 -19.580 -21.487  0.00  0.00    -0.000 C 
ENDBRANCH  23  24
ENDBRANCH  21  23
ENDBRANCH   9  21
TORSDOF 3
ENDMDL
