MODEL 1
REMARK VINA RESULT:     -12.7      0.000      0.000
REMARK  Name = 11167118
REMARK  6 active torsions:
REMARK  status: ('A' for Active; 'I' for Inactive)
REMARK    1  A    between atoms: N_2  and  C_6
REMARK    2  A    between atoms: N_2  and  C_15
REMARK    3  A    between atoms: C_8  and  O_25
REMARK    4  A    between atoms: C_17  and  C_24
REMARK    5  A    between atoms: O_25  and  C_27
REMARK    6  A    between atoms: C_30  and  C_34
REMARK                            x       y       z     vdW  Elec       q    Type
REMARK                         _______ _______ _______ _____ _____    ______ ____
ROOT
ATOM      1  N   UNL     1      33.673 -21.537 -20.124  0.00  0.00    -0.302 N 
ATOM      2  N   UNL     1      35.514 -22.108 -19.018  0.00  0.00    -0.302 N 
ATOM      3  C   UNL     1      34.653 -20.696 -20.586  0.00  0.00    +0.063 C 
ATOM      4  C   UNL     1      35.792 -21.072 -19.880  0.00  0.00    +0.060 C 
ATOM      5  C   UNL     1      34.235 -22.362 -19.190  0.00  0.00    +0.225 C 
ATOM      6  C   UNL     1      34.641 -19.669 -21.531  0.00  0.00    +0.053 C 
ATOM      7  C   UNL     1      35.852 -19.007 -21.756  0.00  0.00    +0.147 C 
ATOM      8  C   UNL     1      37.000 -20.396 -20.118  0.00  0.00    +0.019 C 
ATOM      9  C   UNL     1      37.012 -19.362 -21.063  0.00  0.00    +0.039 C 
ATOM     10  H   UNL     1      32.732 -21.545 -20.415  0.00  0.00    +0.150 HD
ATOM     11  H   UNL     1      36.136 -22.562 -18.405  0.00  0.00    +0.150 HD
ENDROOT
BRANCH   5  12
ATOM     12  N   UNL     1      33.449 -23.284 -18.594  0.00  0.00    -0.303 N 
ATOM     13  H   UNL     1      33.193 -24.042 -19.167  0.00  0.00    +0.150 HD
BRANCH  12  15
ATOM     14 CL   UNL     1      31.336 -23.501 -13.062  0.00  0.00    -0.082 Cl
ATOM     15  C   UNL     1      32.932 -23.335 -17.269  0.00  0.00    +0.047 C 
ATOM     16  C   UNL     1      31.563 -23.234 -17.064  0.00  0.00    +0.019 C 
ATOM     17  C   UNL     1      31.057 -23.285 -15.765  0.00  0.00    +0.083 C 
ATOM     18  C   UNL     1      33.805 -23.484 -16.200  0.00  0.00    +0.015 C 
ATOM     19  C   UNL     1      31.925 -23.434 -14.683  0.00  0.00    +0.062 C 
ATOM     20  C   UNL     1      33.299 -23.533 -14.901  0.00  0.00    +0.013 C 
BRANCH  17  24
ATOM     21  F   UNL     1      29.040 -24.320 -15.090  0.00  0.00    -0.166 F 
ATOM     22  F   UNL     1      29.242 -22.190 -14.708  0.00  0.00    -0.166 F 
ATOM     23  F   UNL     1      28.955 -22.905 -16.747  0.00  0.00    -0.166 F 
ATOM     24  C   UNL     1      29.578 -23.175 -15.574  0.00  0.00    +0.419 C 
ENDBRANCH  17  24
ENDBRANCH  12  15
ENDBRANCH   5  12
BRANCH   7  25
ATOM     25  O   UNL     1      35.900 -17.995 -22.668  0.00  0.00    -0.453 OA
BRANCH  25  27
ATOM     26  N   UNL     1      34.141 -14.376 -21.628  0.00  0.00    -0.239 NA
ATOM     27  C   UNL     1      35.315 -16.790 -22.322  0.00  0.00    +0.149 C 
ATOM     28  C   UNL     1      34.879 -15.941 -23.317  0.00  0.00    +0.061 C 
ATOM     29  C   UNL     1      35.177 -16.465 -20.989  0.00  0.00    +0.058 C 
ATOM     30  C   UNL     1      34.300 -14.747 -22.919  0.00  0.00    +0.137 C 
ATOM     31  C   UNL     1      34.585 -15.247 -20.694  0.00  0.00    +0.102 C 
BRANCH  30  34
ATOM     32  O   UNL     1      33.060 -14.172 -24.824  0.00  0.00    -0.268 OA
ATOM     33  N   UNL     1      34.224 -12.468 -23.768  0.00  0.00    -0.298 N 
ATOM     34  C   UNL     1      33.818 -13.800 -23.909  0.00  0.00    +0.264 C 
ATOM     35  C   UNL     1      33.811 -11.406 -24.658  0.00  0.00    +0.111 C 
ATOM     36  H   UNL     1      34.825 -12.241 -23.021  0.00  0.00    +0.150 HD
ENDBRANCH  30  34
ENDBRANCH  25  27
ENDBRANCH   7  25
TORSDOF 6
ENDMDL
MODEL 2
REMARK VINA RESULT:     -12.6      1.384      2.042
REMARK  Name = 11167118
REMARK  6 active torsions:
REMARK  status: ('A' for Active; 'I' for Inactive)
REMARK    1  A    between atoms: N_2  and  C_6
REMARK    2  A    between atoms: N_2  and  C_15
REMARK    3  A    between atoms: C_8  and  O_25
REMARK    4  A    between atoms: C_17  and  C_24
REMARK    5  A    between atoms: O_25  and  C_27
REMARK    6  A    between atoms: C_30  and  C_34
REMARK                            x       y       z     vdW  Elec       q    Type
REMARK                         _______ _______ _______ _____ _____    ______ ____
ROOT
ATOM      1  N   UNL     1      35.197 -22.212 -18.792  0.00  0.00    -0.302 N 
ATOM      2  N   UNL     1      32.987 -22.152 -19.019  0.00  0.00    -0.302 N 
ATOM      3  C   UNL     1      34.957 -21.321 -19.806  0.00  0.00    +0.063 C 
ATOM      4  C   UNL     1      33.570 -21.301 -19.928  0.00  0.00    +0.060 C 
ATOM      5  C   UNL     1      33.990 -22.681 -18.353  0.00  0.00    +0.225 C 
ATOM      6  C   UNL     1      35.808 -20.553 -20.604  0.00  0.00    +0.053 C 
ATOM      7  C   UNL     1      35.203 -19.735 -21.563  0.00  0.00    +0.147 C 
ATOM      8  C   UNL     1      32.980 -20.473 -20.898  0.00  0.00    +0.019 C 
ATOM      9  C   UNL     1      33.814 -19.694 -21.709  0.00  0.00    +0.039 C 
ATOM     10  H   UNL     1      36.081 -22.467 -18.442  0.00  0.00    +0.150 HD
ATOM     11  H   UNL     1      32.026 -22.327 -18.891  0.00  0.00    +0.150 HD
ENDROOT
BRANCH   5  12
ATOM     12  N   UNL     1      33.981 -23.581 -17.346  0.00  0.00    -0.303 N 
ATOM     13  H   UNL     1      34.690 -24.262 -17.394  0.00  0.00    +0.150 HD
BRANCH  12  15
ATOM     14 CL   UNL     1      30.386 -24.095 -12.664  0.00  0.00    -0.082 Cl
ATOM     15  C   UNL     1      33.109 -23.701 -16.227  0.00  0.00    +0.047 C 
ATOM     16  C   UNL     1      31.756 -23.437 -16.382  0.00  0.00    +0.019 C 
ATOM     17  C   UNL     1      30.902 -23.556 -15.285  0.00  0.00    +0.083 C 
ATOM     18  C   UNL     1      33.626 -24.082 -14.996  0.00  0.00    +0.015 C 
ATOM     19  C   UNL     1      31.411 -23.937 -14.043  0.00  0.00    +0.062 C 
ATOM     20  C   UNL     1      32.773 -24.200 -13.899  0.00  0.00    +0.013 C 
BRANCH  17  24
ATOM     21  F   UNL     1      28.669 -24.321 -15.147  0.00  0.00    -0.166 F 
ATOM     22  F   UNL     1      29.027 -22.217 -14.735  0.00  0.00    -0.166 F 
ATOM     23  F   UNL     1      29.183 -22.966 -16.776  0.00  0.00    -0.166 F 
ATOM     24  C   UNL     1      29.449 -23.266 -15.482  0.00  0.00    +0.419 C 
ENDBRANCH  17  24
ENDBRANCH  12  15
ENDBRANCH   5  12
BRANCH   7  25
ATOM     25  O   UNL     1      35.985 -18.963 -22.371  0.00  0.00    -0.453 OA
BRANCH  25  27
ATOM     26  N   UNL     1      34.094 -16.112 -24.730  0.00  0.00    -0.239 NA
ATOM     27  C   UNL     1      35.355 -18.014 -23.156  0.00  0.00    +0.149 C 
ATOM     28  C   UNL     1      35.205 -16.731 -22.674  0.00  0.00    +0.061 C 
ATOM     29  C   UNL     1      34.892 -18.371 -24.404  0.00  0.00    +0.058 C 
ATOM     30  C   UNL     1      34.568 -15.818 -23.498  0.00  0.00    +0.137 C 
ATOM     31  C   UNL     1      34.268 -17.385 -25.152  0.00  0.00    +0.102 C 
BRANCH  30  34
ATOM     32  O   UNL     1      34.649 -14.110 -21.894  0.00  0.00    -0.268 OA
ATOM     33  N   UNL     1      33.888 -13.538 -24.008  0.00  0.00    -0.298 N 
ATOM     34  C   UNL     1      34.372 -14.447 -23.060  0.00  0.00    +0.264 C 
ATOM     35  C   UNL     1      33.663 -12.136 -23.731  0.00  0.00    +0.111 C 
ATOM     36  H   UNL     1      33.689 -13.871 -24.913  0.00  0.00    +0.150 HD
ENDBRANCH  30  34
ENDBRANCH  25  27
ENDBRANCH   7  25
TORSDOF 6
ENDMDL
MODEL 3
REMARK VINA RESULT:     -12.5      5.623     10.381
REMARK  Name = 11167118
REMARK  6 active torsions:
REMARK  status: ('A' for Active; 'I' for Inactive)
REMARK    1  A    between atoms: N_2  and  C_6
REMARK    2  A    between atoms: N_2  and  C_15
REMARK    3  A    between atoms: C_8  and  O_25
REMARK    4  A    between atoms: C_17  and  C_24
REMARK    5  A    between atoms: O_25  and  C_27
REMARK    6  A    between atoms: C_30  and  C_34
REMARK                            x       y       z     vdW  Elec       q    Type
REMARK                         _______ _______ _______ _____ _____    ______ ____
ROOT
ATOM      1  N   UNL     1      34.530 -19.328 -21.583  0.00  0.00    -0.302 N 
ATOM      2  N   UNL     1      36.622 -19.751 -20.963  0.00  0.00    -0.302 N 
ATOM      3  C   UNL     1      34.444 -20.359 -20.682  0.00  0.00    +0.063 C 
ATOM      4  C   UNL     1      35.763 -20.604 -20.310  0.00  0.00    +0.060 C 
ATOM      5  C   UNL     1      35.850 -19.000 -21.717  0.00  0.00    +0.225 C 
ATOM      6  C   UNL     1      33.359 -21.077 -20.176  0.00  0.00    +0.053 C 
ATOM      7  C   UNL     1      33.648 -22.084 -19.250  0.00  0.00    +0.147 C 
ATOM      8  C   UNL     1      36.035 -21.621 -19.379  0.00  0.00    +0.019 C 
ATOM      9  C   UNL     1      34.961 -22.353 -18.858  0.00  0.00    +0.039 C 
ATOM     10  H   UNL     1      33.775 -18.902 -22.049  0.00  0.00    +0.150 HD
ATOM     11  H   UNL     1      37.603 -19.710 -20.883  0.00  0.00    +0.150 HD
ENDROOT
BRANCH   5  12
ATOM     12  N   UNL     1      36.178 -17.998 -22.563  0.00  0.00    -0.303 N 
ATOM     13  H   UNL     1      37.144 -17.831 -22.652  0.00  0.00    +0.150 HD
BRANCH  12  15
ATOM     14 CL   UNL     1      32.726 -14.481 -25.854  0.00  0.00    -0.082 Cl
ATOM     15  C   UNL     1      35.348 -17.146 -23.346  0.00  0.00    +0.047 C 
ATOM     16  C   UNL     1      35.009 -15.890 -22.864  0.00  0.00    +0.019 C 
ATOM     17  C   UNL     1      34.197 -15.055 -23.632  0.00  0.00    +0.083 C 
ATOM     18  C   UNL     1      34.891 -17.585 -24.581  0.00  0.00    +0.015 C 
ATOM     19  C   UNL     1      33.731 -15.486 -24.875  0.00  0.00    +0.062 C 
ATOM     20  C   UNL     1      34.078 -16.751 -25.349  0.00  0.00    +0.013 C 
BRANCH  17  24
ATOM     21  F   UNL     1      34.307 -12.705 -23.877  0.00  0.00    -0.166 F 
ATOM     22  F   UNL     1      32.511 -13.529 -22.971  0.00  0.00    -0.166 F 
ATOM     23  F   UNL     1      34.385 -13.526 -21.857  0.00  0.00    -0.166 F 
ATOM     24  C   UNL     1      33.849 -13.708 -23.088  0.00  0.00    +0.419 C 
ENDBRANCH  17  24
ENDBRANCH  12  15
ENDBRANCH   5  12
BRANCH   7  25
ATOM     25  O   UNL     1      32.627 -22.818 -18.723  0.00  0.00    -0.453 OA
BRANCH  25  27
ATOM     26  N   UNL     1      32.808 -23.739 -14.674  0.00  0.00    -0.239 NA
ATOM     27  C   UNL     1      32.687 -23.125 -17.375  0.00  0.00    +0.149 C 
ATOM     28  C   UNL     1      33.899 -23.472 -16.816  0.00  0.00    +0.061 C 
ATOM     29  C   UNL     1      31.535 -23.075 -16.619  0.00  0.00    +0.058 C 
ATOM     30  C   UNL     1      33.907 -23.770 -15.463  0.00  0.00    +0.137 C 
ATOM     31  C   UNL     1      31.648 -23.391 -15.275  0.00  0.00    +0.102 C 
BRANCH  30  34
ATOM     32  O   UNL     1      35.898 -24.998 -15.307  0.00  0.00    -0.268 OA
ATOM     33  N   UNL     1      35.451 -23.490 -13.604  0.00  0.00    -0.298 N 
ATOM     34  C   UNL     1      35.145 -24.145 -14.802  0.00  0.00    +0.264 C 
ATOM     35  C   UNL     1      36.655 -23.737 -12.842  0.00  0.00    +0.111 C 
ATOM     36  H   UNL     1      34.811 -22.826 -13.259  0.00  0.00    +0.150 HD
ENDBRANCH  30  34
ENDBRANCH  25  27
ENDBRANCH   7  25
TORSDOF 6
ENDMDL
MODEL 4
REMARK VINA RESULT:     -12.4      6.808     11.811
REMARK  Name = 11167118
REMARK  6 active torsions:
REMARK  status: ('A' for Active; 'I' for Inactive)
REMARK    1  A    between atoms: N_2  and  C_6
REMARK    2  A    between atoms: N_2  and  C_15
REMARK    3  A    between atoms: C_8  and  O_25
REMARK    4  A    between atoms: C_17  and  C_24
REMARK    5  A    between atoms: O_25  and  C_27
REMARK    6  A    between atoms: C_30  and  C_34
REMARK                            x       y       z     vdW  Elec       q    Type
REMARK                         _______ _______ _______ _____ _____    ______ ____
ROOT
ATOM      1  N   UNL     1      33.952 -13.964 -22.767  0.00  0.00    -0.302 N 
ATOM      2  N   UNL     1      32.795 -13.604 -24.631  0.00  0.00    -0.302 N 
ATOM      3  C   UNL     1      34.131 -15.088 -23.531  0.00  0.00    +0.063 C 
ATOM      4  C   UNL     1      33.399 -14.839 -24.689  0.00  0.00    +0.060 C 
ATOM      5  C   UNL     1      33.148 -13.107 -23.466  0.00  0.00    +0.225 C 
ATOM      6  C   UNL     1      34.848 -16.266 -23.317  0.00  0.00    +0.053 C 
ATOM      7  C   UNL     1      34.808 -17.222 -24.336  0.00  0.00    +0.147 C 
ATOM      8  C   UNL     1      33.369 -15.811 -25.703  0.00  0.00    +0.019 C 
ATOM      9  C   UNL     1      34.082 -17.001 -25.509  0.00  0.00    +0.039 C 
ATOM     10  H   UNL     1      34.335 -13.803 -21.875  0.00  0.00    +0.150 HD
ATOM     11  H   UNL     1      32.223 -13.183 -25.312  0.00  0.00    +0.150 HD
ENDROOT
BRANCH   5  12
ATOM     12  N   UNL     1      32.833 -11.920 -22.901  0.00  0.00    -0.303 N 
ATOM     13  H   UNL     1      32.204 -11.975 -22.146  0.00  0.00    +0.150 HD
BRANCH  12  15
ATOM     14 CL   UNL     1      34.675  -6.455 -24.265  0.00  0.00    -0.082 Cl
ATOM     15  C   UNL     1      33.267 -10.604 -23.224  0.00  0.00    +0.047 C 
ATOM     16  C   UNL     1      32.529  -9.513 -22.788  0.00  0.00    +0.019 C 
ATOM     17  C   UNL     1      32.955  -8.223 -23.104  0.00  0.00    +0.083 C 
ATOM     18  C   UNL     1      34.424 -10.430 -23.972  0.00  0.00    +0.015 C 
ATOM     19  C   UNL     1      34.116  -8.036 -23.855  0.00  0.00    +0.062 C 
ATOM     20  C   UNL     1      34.851  -9.140 -24.289  0.00  0.00    +0.013 C 
BRANCH  17  24
ATOM     21  F   UNL     1      32.894  -6.145 -21.975  0.00  0.00    -0.166 F 
ATOM     22  F   UNL     1      31.513  -6.419 -23.631  0.00  0.00    -0.166 F 
ATOM     23  F   UNL     1      31.181  -7.476 -21.754  0.00  0.00    -0.166 F 
ATOM     24  C   UNL     1      32.140  -7.067 -22.620  0.00  0.00    +0.419 C 
ENDBRANCH  17  24
ENDBRANCH  12  15
ENDBRANCH   5  12
BRANCH   7  25
ATOM     25  O   UNL     1      35.489 -18.393 -24.181  0.00  0.00    -0.453 OA
BRANCH  25  27
ATOM     26  N   UNL     1      35.913 -19.878 -20.323  0.00  0.00    -0.239 NA
ATOM     27  C   UNL     1      35.631 -18.887 -22.897  0.00  0.00    +0.149 C 
ATOM     28  C   UNL     1      34.592 -19.594 -22.328  0.00  0.00    +0.061 C 
ATOM     29  C   UNL     1      36.806 -18.664 -22.212  0.00  0.00    +0.058 C 
ATOM     30  C   UNL     1      34.782 -20.068 -21.040  0.00  0.00    +0.137 C 
ATOM     31  C   UNL     1      36.899 -19.179 -20.929  0.00  0.00    +0.102 C 
BRANCH  30  34
ATOM     32  O   UNL     1      32.545 -20.693 -20.720  0.00  0.00    -0.268 OA
ATOM     33  N   UNL     1      34.128 -21.700 -19.358  0.00  0.00    -0.298 N 
ATOM     34  C   UNL     1      33.733 -20.821 -20.374  0.00  0.00    +0.264 C 
ATOM     35  C   UNL     1      33.206 -22.534 -18.618  0.00  0.00    +0.111 C 
ATOM     36  H   UNL     1      35.085 -21.753 -19.133  0.00  0.00    +0.150 HD
ENDBRANCH  30  34
ENDBRANCH  25  27
ENDBRANCH   7  25
TORSDOF 6
ENDMDL
MODEL 5
REMARK VINA RESULT:     -12.3      1.646      2.098
REMARK  Name = 11167118
REMARK  6 active torsions:
REMARK  status: ('A' for Active; 'I' for Inactive)
REMARK    1  A    between atoms: N_2  and  C_6
REMARK    2  A    between atoms: N_2  and  C_15
REMARK    3  A    between atoms: C_8  and  O_25
REMARK    4  A    between atoms: C_17  and  C_24
REMARK    5  A    between atoms: O_25  and  C_27
REMARK    6  A    between atoms: C_30  and  C_34
REMARK                            x       y       z     vdW  Elec       q    Type
REMARK                         _______ _______ _______ _____ _____    ______ ____
ROOT
ATOM      1  N   UNL     1      33.636 -21.591 -19.797  0.00  0.00    -0.302 N 
ATOM      2  N   UNL     1      35.504 -22.408 -18.914  0.00  0.00    -0.302 N 
ATOM      3  C   UNL     1      34.644 -20.790 -20.269  0.00  0.00    +0.063 C 
ATOM      4  C   UNL     1      35.800 -21.321 -19.703  0.00  0.00    +0.060 C 
ATOM      5  C   UNL     1      34.199 -22.542 -18.993  0.00  0.00    +0.225 C 
ATOM      6  C   UNL     1      34.646 -19.680 -21.115  0.00  0.00    +0.053 C 
ATOM      7  C   UNL     1      35.887 -19.098 -21.388  0.00  0.00    +0.147 C 
ATOM      8  C   UNL     1      37.039 -20.723 -19.987  0.00  0.00    +0.019 C 
ATOM      9  C   UNL     1      37.064 -19.608 -20.835  0.00  0.00    +0.039 C 
ATOM     10  H   UNL     1      32.678 -21.496 -20.002  0.00  0.00    +0.150 HD
ATOM     11  H   UNL     1      36.132 -22.966 -18.401  0.00  0.00    +0.150 HD
ENDROOT
BRANCH   5  12
ATOM     12  N   UNL     1      33.386 -23.452 -18.412  0.00  0.00    -0.303 N 
ATOM     13  H   UNL     1      33.157 -24.224 -18.979  0.00  0.00    +0.150 HD
BRANCH  12  15
ATOM     14 CL   UNL     1      31.016 -23.543 -12.982  0.00  0.00    -0.082 Cl
ATOM     15  C   UNL     1      32.807 -23.472 -17.112  0.00  0.00    +0.047 C 
ATOM     16  C   UNL     1      31.436 -23.311 -16.970  0.00  0.00    +0.019 C 
ATOM     17  C   UNL     1      30.870 -23.331 -15.695  0.00  0.00    +0.083 C 
ATOM     18  C   UNL     1      33.624 -23.652 -16.004  0.00  0.00    +0.015 C 
ATOM     19  C   UNL     1      31.681 -23.512 -14.574  0.00  0.00    +0.062 C 
ATOM     20  C   UNL     1      33.058 -23.672 -14.729  0.00  0.00    +0.013 C 
BRANCH  17  24
ATOM     21  F   UNL     1      29.064 -22.149 -14.728  0.00  0.00    -0.166 F 
ATOM     22  F   UNL     1      28.805 -22.872 -16.761  0.00  0.00    -0.166 F 
ATOM     23  F   UNL     1      28.805 -24.282 -15.099  0.00  0.00    -0.166 F 
ATOM     24  C   UNL     1      29.391 -23.157 -15.573  0.00  0.00    +0.419 C 
ENDBRANCH  17  24
ENDBRANCH  12  15
ENDBRANCH   5  12
BRANCH   7  25
ATOM     25  O   UNL     1      35.949 -18.010 -22.209  0.00  0.00    -0.453 OA
BRANCH  25  27
ATOM     26  N   UNL     1      33.748 -18.127 -25.732  0.00  0.00    -0.239 NA
ATOM     27  C   UNL     1      35.216 -18.050 -23.381  0.00  0.00    +0.149 C 
ATOM     28  C   UNL     1      34.833 -16.866 -23.977  0.00  0.00    +0.061 C 
ATOM     29  C   UNL     1      34.886 -19.270 -23.931  0.00  0.00    +0.058 C 
ATOM     30  C   UNL     1      34.100 -16.959 -25.150  0.00  0.00    +0.137 C 
ATOM     31  C   UNL     1      34.151 -19.256 -25.105  0.00  0.00    +0.102 C 
BRANCH  30  34
ATOM     32  O   UNL     1      33.444 -15.769 -27.060  0.00  0.00    -0.268 OA
ATOM     33  N   UNL     1      33.472 -14.610 -25.053  0.00  0.00    -0.298 N 
ATOM     34  C   UNL     1      33.660 -15.756 -25.835  0.00  0.00    +0.264 C 
ATOM     35  C   UNL     1      33.016 -13.345 -25.583  0.00  0.00    +0.111 C 
ATOM     36  H   UNL     1      33.662 -14.669 -24.088  0.00  0.00    +0.150 HD
ENDBRANCH  30  34
ENDBRANCH  25  27
ENDBRANCH   7  25
TORSDOF 6
ENDMDL
MODEL 6
REMARK VINA RESULT:     -12.3      5.739     10.258
REMARK  Name = 11167118
REMARK  6 active torsions:
REMARK  status: ('A' for Active; 'I' for Inactive)
REMARK    1  A    between atoms: N_2  and  C_6
REMARK    2  A    between atoms: N_2  and  C_15
REMARK    3  A    between atoms: C_8  and  O_25
REMARK    4  A    between atoms: C_17  and  C_24
REMARK    5  A    between atoms: O_25  and  C_27
REMARK    6  A    between atoms: C_30  and  C_34
REMARK                            x       y       z     vdW  Elec       q    Type
REMARK                         _______ _______ _______ _____ _____    ______ ____
ROOT
ATOM      1  N   UNL     1      36.022 -20.015 -21.136  0.00  0.00    -0.302 N 
ATOM      2  N   UNL     1      33.902 -19.621 -21.671  0.00  0.00    -0.302 N 
ATOM      3  C   UNL     1      35.282 -20.843 -20.332  0.00  0.00    +0.063 C 
ATOM      4  C   UNL     1      33.962 -20.577 -20.685  0.00  0.00    +0.060 C 
ATOM      5  C   UNL     1      35.154 -19.306 -21.919  0.00  0.00    +0.225 C 
ATOM      6  C   UNL     1      35.642 -21.773 -19.355  0.00  0.00    +0.053 C 
ATOM      7  C   UNL     1      34.599 -22.454 -18.719  0.00  0.00    +0.147 C 
ATOM      8  C   UNL     1      32.926 -21.271 -20.036  0.00  0.00    +0.019 C 
ATOM      9  C   UNL     1      33.265 -22.209 -19.052  0.00  0.00    +0.039 C 
ATOM     10  H   UNL     1      37.004 -19.945 -21.148  0.00  0.00    +0.150 HD
ATOM     11  H   UNL     1      33.096 -19.251 -22.101  0.00  0.00    +0.150 HD
ENDROOT
BRANCH   5  12
ATOM     12  N   UNL     1      35.665 -18.419 -22.800  0.00  0.00    -0.303 N 
ATOM     13  H   UNL     1      36.636 -18.490 -22.942  0.00  0.00    +0.150 HD
BRANCH  12  15
ATOM     14 CL   UNL     1      32.988 -14.193 -25.976  0.00  0.00    -0.082 Cl
ATOM     15  C   UNL     1      35.022 -17.397 -23.555  0.00  0.00    +0.047 C 
ATOM     16  C   UNL     1      34.850 -16.138 -22.996  0.00  0.00    +0.019 C 
ATOM     17  C   UNL     1      34.221 -15.137 -23.736  0.00  0.00    +0.083 C 
ATOM     18  C   UNL     1      34.578 -17.675 -24.840  0.00  0.00    +0.015 C 
ATOM     19  C   UNL     1      33.770 -15.405 -25.029  0.00  0.00    +0.062 C 
ATOM     20  C   UNL     1      33.948 -16.674 -25.581  0.00  0.00    +0.013 C 
BRANCH  17  24
ATOM     21  F   UNL     1      34.755 -13.672 -21.958  0.00  0.00    -0.166 F 
ATOM     22  F   UNL     1      34.459 -12.788 -23.922  0.00  0.00    -0.166 F 
ATOM     23  F   UNL     1      32.750 -13.556 -22.808  0.00  0.00    -0.166 F 
ATOM     24  C   UNL     1      34.050 -13.792 -23.109  0.00  0.00    +0.419 C 
ENDBRANCH  17  24
ENDBRANCH  12  15
ENDBRANCH   5  12
BRANCH   7  25
ATOM     25  O   UNL     1      34.892 -23.373 -17.756  0.00  0.00    -0.453 OA
BRANCH  25  27
ATOM     26  N   UNL     1      32.504 -23.427 -14.355  0.00  0.00    -0.239 NA
ATOM     27  C   UNL     1      34.097 -23.391 -16.624  0.00  0.00    +0.149 C 
ATOM     28  C   UNL     1      32.728 -23.480 -16.762  0.00  0.00    +0.061 C 
ATOM     29  C   UNL     1      34.690 -23.320 -15.382  0.00  0.00    +0.058 C 
ATOM     30  C   UNL     1      31.975 -23.494 -15.599  0.00  0.00    +0.137 C 
ATOM     31  C   UNL     1      33.851 -23.341 -14.279  0.00  0.00    +0.102 C 
BRANCH  30  34
ATOM     32  O   UNL     1      29.877 -24.028 -14.699  0.00  0.00    -0.268 OA
ATOM     33  N   UNL     1      29.913 -23.134 -16.838  0.00  0.00    -0.298 N 
ATOM     34  C   UNL     1      30.527 -23.585 -15.664  0.00  0.00    +0.264 C 
ATOM     35  C   UNL     1      28.482 -23.138 -17.045  0.00  0.00    +0.111 C 
ATOM     36  H   UNL     1      30.487 -22.795 -17.563  0.00  0.00    +0.150 HD
ENDBRANCH  30  34
ENDBRANCH  25  27
ENDBRANCH   7  25
TORSDOF 6
ENDMDL
MODEL 7
REMARK VINA RESULT:     -12.1      6.266     11.415
REMARK  Name = 11167118
REMARK  6 active torsions:
REMARK  status: ('A' for Active; 'I' for Inactive)
REMARK    1  A    between atoms: N_2  and  C_6
REMARK    2  A    between atoms: N_2  and  C_15
REMARK    3  A    between atoms: C_8  and  O_25
REMARK    4  A    between atoms: C_17  and  C_24
REMARK    5  A    between atoms: O_25  and  C_27
REMARK    6  A    between atoms: C_30  and  C_34
REMARK                            x       y       z     vdW  Elec       q    Type
REMARK                         _______ _______ _______ _____ _____    ______ ____
ROOT
ATOM      1  N   UNL     1      34.317 -15.055 -24.176  0.00  0.00    -0.302 N 
ATOM      2  N   UNL     1      34.328 -13.893 -22.281  0.00  0.00    -0.302 N 
ATOM      3  C   UNL     1      34.675 -15.949 -23.200  0.00  0.00    +0.063 C 
ATOM      4  C   UNL     1      34.674 -15.199 -22.027  0.00  0.00    +0.060 C 
ATOM      5  C   UNL     1      34.121 -13.841 -23.579  0.00  0.00    +0.225 C 
ATOM      6  C   UNL     1      34.989 -17.309 -23.240  0.00  0.00    +0.053 C 
ATOM      7  C   UNL     1      35.314 -17.916 -22.023  0.00  0.00    +0.147 C 
ATOM      8  C   UNL     1      35.004 -15.826 -20.813  0.00  0.00    +0.019 C 
ATOM      9  C   UNL     1      35.322 -17.190 -20.830  0.00  0.00    +0.039 C 
ATOM     10  H   UNL     1      34.220 -15.252 -25.135  0.00  0.00    +0.150 HD
ATOM     11  H   UNL     1      34.252 -13.155 -21.634  0.00  0.00    +0.150 HD
ENDROOT
BRANCH   5  12
ATOM     12  N   UNL     1      33.758 -12.797 -24.355  0.00  0.00    -0.303 N 
ATOM     13  H   UNL     1      33.383 -13.043 -25.231  0.00  0.00    +0.150 HD
BRANCH  12  15
ATOM     14 CL   UNL     1      34.099  -6.966 -23.353  0.00  0.00    -0.082 Cl
ATOM     15  C   UNL     1      33.831 -11.396 -24.109  0.00  0.00    +0.047 C 
ATOM     16  C   UNL     1      32.917 -10.804 -23.249  0.00  0.00    +0.019 C 
ATOM     17  C   UNL     1      32.990  -9.432 -23.007  0.00  0.00    +0.083 C 
ATOM     18  C   UNL     1      34.818 -10.644 -24.732  0.00  0.00    +0.015 C 
ATOM     19  C   UNL     1      33.977  -8.665 -23.628  0.00  0.00    +0.062 C 
ATOM     20  C   UNL     1      34.890  -9.272 -24.491  0.00  0.00    +0.013 C 
BRANCH  17  24
ATOM     21  F   UNL     1      32.588  -8.138 -21.069  0.00  0.00    -0.166 F 
ATOM     22  F   UNL     1      31.168  -7.949 -22.704  0.00  0.00    -0.166 F 
ATOM     23  F   UNL     1      31.212  -9.771 -21.508  0.00  0.00    -0.166 F 
ATOM     24  C   UNL     1      31.993  -8.821 -22.076  0.00  0.00    +0.419 C 
ENDBRANCH  17  24
ENDBRANCH  12  15
ENDBRANCH   5  12
BRANCH   7  25
ATOM     25  O   UNL     1      35.630 -19.242 -22.003  0.00  0.00    -0.453 OA
BRANCH  25  27
ATOM     26  N   UNL     1      33.448 -21.704 -19.463  0.00  0.00    -0.239 NA
ATOM     27  C   UNL     1      34.904 -20.062 -21.157  0.00  0.00    +0.149 C 
ATOM     28  C   UNL     1      35.557 -20.743 -20.152  0.00  0.00    +0.061 C 
ATOM     29  C   UNL     1      33.542 -20.179 -21.336  0.00  0.00    +0.058 C 
ATOM     30  C   UNL     1      34.786 -21.551 -19.333  0.00  0.00    +0.137 C 
ATOM     31  C   UNL     1      32.859 -21.012 -20.465  0.00  0.00    +0.102 C 
BRANCH  30  34
ATOM     32  O   UNL     1      34.870 -23.338 -17.817  0.00  0.00    -0.268 OA
ATOM     33  N   UNL     1      36.618 -21.816 -17.754  0.00  0.00    -0.298 N 
ATOM     34  C   UNL     1      35.403 -22.301 -18.252  0.00  0.00    +0.264 C 
ATOM     35  C   UNL     1      37.365 -22.462 -16.698  0.00  0.00    +0.111 C 
ATOM     36  H   UNL     1      36.984 -20.989 -18.144  0.00  0.00    +0.150 HD
ENDBRANCH  30  34
ENDBRANCH  25  27
ENDBRANCH   7  25
TORSDOF 6
ENDMDL
MODEL 8
REMARK VINA RESULT:     -11.9      2.279      2.712
REMARK  Name = 11167118
REMARK  6 active torsions:
REMARK  status: ('A' for Active; 'I' for Inactive)
REMARK    1  A    between atoms: N_2  and  C_6
REMARK    2  A    between atoms: N_2  and  C_15
REMARK    3  A    between atoms: C_8  and  O_25
REMARK    4  A    between atoms: C_17  and  C_24
REMARK    5  A    between atoms: O_25  and  C_27
REMARK    6  A    between atoms: C_30  and  C_34
REMARK                            x       y       z     vdW  Elec       q    Type
REMARK                         _______ _______ _______ _____ _____    ______ ____
ROOT
ATOM      1  N   UNL     1      33.319 -21.176 -20.186  0.00  0.00    -0.302 N 
ATOM      2  N   UNL     1      35.175 -21.911 -19.208  0.00  0.00    -0.302 N 
ATOM      3  C   UNL     1      34.337 -20.431 -20.725  0.00  0.00    +0.063 C 
ATOM      4  C   UNL     1      35.484 -20.909 -20.098  0.00  0.00    +0.060 C 
ATOM      5  C   UNL     1      33.869 -22.046 -19.286  0.00  0.00    +0.225 C 
ATOM      6  C   UNL     1      34.352 -19.411 -21.678  0.00  0.00    +0.053 C 
ATOM      7  C   UNL     1      35.599 -18.865 -21.995  0.00  0.00    +0.147 C 
ATOM      8  C   UNL     1      36.730 -20.348 -20.429  0.00  0.00    +0.019 C 
ATOM      9  C   UNL     1      36.768 -19.323 -21.383  0.00  0.00    +0.039 C 
ATOM     10  H   UNL     1      32.363 -21.097 -20.408  0.00  0.00    +0.150 HD
ATOM     11  H   UNL     1      35.795 -22.418 -18.636  0.00  0.00    +0.150 HD
ENDROOT
BRANCH   5  12
ATOM     12  N   UNL     1      33.046 -22.889 -18.625  0.00  0.00    -0.303 N 
ATOM     13  H   UNL     1      32.325 -23.276 -19.172  0.00  0.00    +0.150 HD
BRANCH  12  15
ATOM     14 CL   UNL     1      33.040 -24.622 -12.959  0.00  0.00    -0.082 Cl
ATOM     15  C   UNL     1      33.055 -23.306 -17.264  0.00  0.00    +0.047 C 
ATOM     16  C   UNL     1      34.264 -23.572 -16.638  0.00  0.00    +0.019 C 
ATOM     17  C   UNL     1      34.273 -23.981 -15.304  0.00  0.00    +0.083 C 
ATOM     18  C   UNL     1      31.853 -23.441 -16.583  0.00  0.00    +0.015 C 
ATOM     19  C   UNL     1      33.070 -24.120 -14.610  0.00  0.00    +0.062 C 
ATOM     20  C   UNL     1      31.860 -23.850 -15.250  0.00  0.00    +0.013 C 
BRANCH  17  24
ATOM     21  F   UNL     1      35.818 -23.446 -13.595  0.00  0.00    -0.166 F 
ATOM     22  F   UNL     1      35.680 -25.531 -14.196  0.00  0.00    -0.166 F 
ATOM     23  F   UNL     1      36.610 -24.077 -15.527  0.00  0.00    -0.166 F 
ATOM     24  C   UNL     1      35.590 -24.259 -14.655  0.00  0.00    +0.419 C 
ENDBRANCH  17  24
ENDBRANCH  12  15
ENDBRANCH   5  12
BRANCH   7  25
ATOM     25  O   UNL     1      35.675 -17.865 -22.919  0.00  0.00    -0.453 OA
BRANCH  25  27
ATOM     26  N   UNL     1      34.228 -14.124 -21.833  0.00  0.00    -0.239 NA
ATOM     27  C   UNL     1      35.193 -16.620 -22.557  0.00  0.00    +0.149 C 
ATOM     28  C   UNL     1      34.754 -15.755 -23.538  0.00  0.00    +0.061 C 
ATOM     29  C   UNL     1      35.162 -16.269 -21.225  0.00  0.00    +0.058 C 
ATOM     30  C   UNL     1      34.281 -14.520 -23.125  0.00  0.00    +0.137 C 
ATOM     31  C   UNL     1      34.671 -15.011 -20.913  0.00  0.00    +0.102 C 
BRANCH  30  34
ATOM     32  O   UNL     1      33.057 -13.913 -25.030  0.00  0.00    -0.268 OA
ATOM     33  N   UNL     1      34.196 -12.224 -23.924  0.00  0.00    -0.298 N 
ATOM     34  C   UNL     1      33.802 -13.555 -24.099  0.00  0.00    +0.264 C 
ATOM     35  C   UNL     1      33.785 -11.146 -24.796  0.00  0.00    +0.111 C 
ATOM     36  H   UNL     1      34.788 -12.009 -23.167  0.00  0.00    +0.150 HD
ENDBRANCH  30  34
ENDBRANCH  25  27
ENDBRANCH   7  25
TORSDOF 6
ENDMDL
MODEL 9
REMARK VINA RESULT:     -11.8      5.647     10.131
REMARK  Name = 11167118
REMARK  6 active torsions:
REMARK  status: ('A' for Active; 'I' for Inactive)
REMARK    1  A    between atoms: N_2  and  C_6
REMARK    2  A    between atoms: N_2  and  C_15
REMARK    3  A    between atoms: C_8  and  O_25
REMARK    4  A    between atoms: C_17  and  C_24
REMARK    5  A    between atoms: O_25  and  C_27
REMARK    6  A    between atoms: C_30  and  C_34
REMARK                            x       y       z     vdW  Elec       q    Type
REMARK                         _______ _______ _______ _____ _____    ______ ____
ROOT
ATOM      1  N   UNL     1      34.667 -19.269 -21.531  0.00  0.00    -0.302 N 
ATOM      2  N   UNL     1      36.787 -19.251 -20.866  0.00  0.00    -0.302 N 
ATOM      3  C   UNL     1      34.796 -20.346 -20.693  0.00  0.00    +0.063 C 
ATOM      4  C   UNL     1      36.129 -20.313 -20.291  0.00  0.00    +0.060 C 
ATOM      5  C   UNL     1      35.881 -18.646 -21.603  0.00  0.00    +0.225 C 
ATOM      6  C   UNL     1      33.890 -21.318 -20.264  0.00  0.00    +0.053 C 
ATOM      7  C   UNL     1      34.379 -22.291 -19.388  0.00  0.00    +0.147 C 
ATOM      8  C   UNL     1      36.603 -21.299 -19.410  0.00  0.00    +0.019 C 
ATOM      9  C   UNL     1      35.711 -22.284 -18.967  0.00  0.00    +0.039 C 
ATOM     10  H   UNL     1      33.844 -18.993 -21.998  0.00  0.00    +0.150 HD
ATOM     11  H   UNL     1      37.731 -18.997 -20.751  0.00  0.00    +0.150 HD
ENDROOT
BRANCH   5  12
ATOM     12  N   UNL     1      35.992 -17.546 -22.379  0.00  0.00    -0.303 N 
ATOM     13  H   UNL     1      36.736 -17.569 -23.025  0.00  0.00    +0.150 HD
BRANCH  12  15
ATOM     14 CL   UNL     1      32.720 -12.607 -22.480  0.00  0.00    -0.082 Cl
ATOM     15  C   UNL     1      35.206 -16.360 -22.414  0.00  0.00    +0.047 C 
ATOM     16  C   UNL     1      34.723 -15.894 -23.629  0.00  0.00    +0.019 C 
ATOM     17  C   UNL     1      33.951 -14.732 -23.662  0.00  0.00    +0.083 C 
ATOM     18  C   UNL     1      34.932 -15.687 -21.231  0.00  0.00    +0.015 C 
ATOM     19  C   UNL     1      33.671 -14.047 -22.479  0.00  0.00    +0.062 C 
ATOM     20  C   UNL     1      34.162 -14.524 -21.264  0.00  0.00    +0.013 C 
BRANCH  17  24
ATOM     21  F   UNL     1      33.799 -15.083 -25.996  0.00  0.00    -0.166 F 
ATOM     22  F   UNL     1      32.093 -14.160 -25.015  0.00  0.00    -0.166 F 
ATOM     23  F   UNL     1      33.936 -13.027 -25.280  0.00  0.00    -0.166 F 
ATOM     24  C   UNL     1      33.444 -14.254 -24.984  0.00  0.00    +0.419 C 
ENDBRANCH  17  24
ENDBRANCH  12  15
ENDBRANCH   5  12
BRANCH   7  25
ATOM     25  O   UNL     1      33.539 -23.266 -18.937  0.00  0.00    -0.453 OA
BRANCH  25  27
ATOM     26  N   UNL     1      32.718 -23.369 -14.864  0.00  0.00    -0.239 NA
ATOM     27  C   UNL     1      33.266 -23.300 -17.581  0.00  0.00    +0.149 C 
ATOM     28  C   UNL     1      31.955 -23.251 -17.156  0.00  0.00    +0.061 C 
ATOM     29  C   UNL     1      34.309 -23.384 -16.684  0.00  0.00    +0.058 C 
ATOM     30  C   UNL     1      31.733 -23.289 -15.788  0.00  0.00    +0.137 C 
ATOM     31  C   UNL     1      33.983 -23.415 -15.337  0.00  0.00    +0.102 C 
BRANCH  30  34
ATOM     32  O   UNL     1      30.167 -23.390 -14.047  0.00  0.00    -0.268 OA
ATOM     33  N   UNL     1      29.350 -22.997 -16.181  0.00  0.00    -0.298 N 
ATOM     34  C   UNL     1      30.379 -23.241 -15.264  0.00  0.00    +0.264 C 
ATOM     35  C   UNL     1      27.956 -22.898 -15.811  0.00  0.00    +0.111 C 
ATOM     36  H   UNL     1      29.588 -22.889 -17.130  0.00  0.00    +0.150 HD
ENDBRANCH  30  34
ENDBRANCH  25  27
ENDBRANCH   7  25
TORSDOF 6
ENDMDL
