MODEL 1
REMARK VINA RESULT:     -11.0      0.000      0.000
REMARK  Name = 15942672
REMARK  5 active torsions:
REMARK  status: ('A' for Active; 'I' for Inactive)
REMARK    1  A    between atoms: N_2  and  C_7
REMARK    2  A    between atoms: N_3  and  C_17
REMARK    3  A    between atoms: C_8  and  C_16
REMARK    4  A    between atoms: C_18  and  O_23
REMARK    5  A    between atoms: O_23  and  C_25
REMARK                            x       y       z     vdW  Elec       q    Type
REMARK                         _______ _______ _______ _____ _____    ______ ____
ROOT
ATOM      1  O   UNL     1      36.474 -21.719 -16.581  0.00  0.00    -0.252 OA
ATOM      2  N   UNL     1      35.051 -23.561 -16.314  0.00  0.00    -0.268 N 
ATOM      3  N   UNL     1      34.991 -22.346 -18.277  0.00  0.00    -0.268 N 
ATOM      4  C   UNL     1      35.598 -22.460 -17.016  0.00  0.00    +0.308 C 
ATOM      5  H   UNL     1      34.352 -24.066 -16.790  0.00  0.00    +0.156 HD
ATOM      6  H   UNL     1      34.302 -23.016 -18.487  0.00  0.00    +0.156 HD
ENDROOT
BRANCH   2   7
ATOM      7  C   UNL     1      35.369 -24.024 -15.036  0.00  0.00    +0.052 C 
ATOM      8  C   UNL     1      36.894 -25.147 -13.538  0.00  0.00    +0.073 C 
ATOM      9  C   UNL     1      36.577 -24.684 -14.815  0.00  0.00    +0.019 C 
ATOM     10  C   UNL     1      34.478 -23.825 -13.982  0.00  0.00    +0.015 C 
ATOM     11  C   UNL     1      36.003 -24.948 -12.483  0.00  0.00    +0.004 C 
ATOM     12  C   UNL     1      34.796 -24.288 -12.705  0.00  0.00    +0.001 C 
BRANCH   8  16
ATOM     13  F   UNL     1      38.336 -26.989 -14.041  0.00  0.00    -0.166 F 
ATOM     14  F   UNL     1      39.285 -25.093 -13.584  0.00  0.00    -0.166 F 
ATOM     15  F   UNL     1      38.338 -26.243 -11.999  0.00  0.00    -0.166 F 
ATOM     16  C   UNL     1      38.186 -25.853 -13.299  0.00  0.00    +0.419 C 
ENDBRANCH   8  16
ENDBRANCH   2   7
BRANCH   3  17
ATOM     17  C   UNL     1      35.248 -21.386 -19.284  0.00  0.00    +0.052 C 
ATOM     18  C   UNL     1      35.749 -19.506 -21.256  0.00  0.00    +0.145 C 
ATOM     19  C   UNL     1      36.553 -21.000 -19.536  0.00  0.00    +0.018 C 
ATOM     20  C   UNL     1      34.187 -20.851 -19.997  0.00  0.00    +0.018 C 
ATOM     21  C   UNL     1      36.806 -20.053 -20.530  0.00  0.00    +0.039 C 
ATOM     22  C   UNL     1      34.439 -19.905 -20.991  0.00  0.00    +0.039 C 
BRANCH  18  23
ATOM     23  O   UNL     1      35.995 -18.584 -22.226  0.00  0.00    -0.453 OA
BRANCH  23  25
ATOM     24  N   UNL     1      33.970 -14.962 -22.009  0.00  0.00    -0.242 NA
ATOM     25  C   UNL     1      35.319 -17.378 -22.155  0.00  0.00    +0.148 C 
ATOM     26  C   UNL     1      34.960 -16.735 -23.321  0.00  0.00    +0.058 C 
ATOM     27  C   UNL     1      35.021 -16.845 -20.919  0.00  0.00    +0.058 C 
ATOM     28  C   UNL     1      34.287 -15.530 -23.194  0.00  0.00    +0.102 C 
ATOM     29  C   UNL     1      34.346 -15.636 -20.900  0.00  0.00    +0.102 C 
ENDBRANCH  23  25
ENDBRANCH  18  23
ENDBRANCH   3  17
TORSDOF 5
ENDMDL
MODEL 2
REMARK VINA RESULT:     -11.0      8.811     13.997
REMARK  Name = 15942672
REMARK  5 active torsions:
REMARK  status: ('A' for Active; 'I' for Inactive)
REMARK    1  A    between atoms: N_2  and  C_7
REMARK    2  A    between atoms: N_3  and  C_17
REMARK    3  A    between atoms: C_8  and  C_16
REMARK    4  A    between atoms: C_18  and  O_23
REMARK    5  A    between atoms: O_23  and  C_25
REMARK                            x       y       z     vdW  Elec       q    Type
REMARK                         _______ _______ _______ _____ _____    ______ ____
ROOT
ATOM      1  O   UNL     1      34.245 -11.496 -23.809  0.00  0.00    -0.252 OA
ATOM      2  N   UNL     1      32.538 -10.675 -22.431  0.00  0.00    -0.268 N 
ATOM      3  N   UNL     1      33.088 -12.917 -22.357  0.00  0.00    -0.268 N 
ATOM      4  C   UNL     1      33.383 -11.683 -22.956  0.00  0.00    +0.308 C 
ATOM      5  H   UNL     1      31.892 -10.973 -21.750  0.00  0.00    +0.156 HD
ATOM      6  H   UNL     1      32.367 -12.911 -21.687  0.00  0.00    +0.156 HD
ENDROOT
BRANCH   2   7
ATOM      7  C   UNL     1      32.499  -9.318 -22.751  0.00  0.00    +0.052 C 
ATOM      8  C   UNL     1      33.598  -7.329 -23.571  0.00  0.00    +0.073 C 
ATOM      9  C   UNL     1      33.637  -8.686 -23.252  0.00  0.00    +0.019 C 
ATOM     10  C   UNL     1      31.322  -8.593 -22.569  0.00  0.00    +0.015 C 
ATOM     11  C   UNL     1      32.420  -6.604 -23.390  0.00  0.00    +0.004 C 
ATOM     12  C   UNL     1      31.282  -7.235 -22.889  0.00  0.00    +0.001 C 
BRANCH   8  16
ATOM     13  F   UNL     1      35.892  -6.718 -23.272  0.00  0.00    -0.166 F 
ATOM     14  F   UNL     1      35.250  -7.172 -25.293  0.00  0.00    -0.166 F 
ATOM     15  F   UNL     1      34.614  -5.323 -24.343  0.00  0.00    -0.166 F 
ATOM     16  C   UNL     1      34.814  -6.653 -24.108  0.00  0.00    +0.419 C 
ENDBRANCH   8  16
ENDBRANCH   2   7
BRANCH   3  17
ATOM     17  C   UNL     1      33.698 -14.171 -22.598  0.00  0.00    +0.052 C 
ATOM     18  C   UNL     1      34.892 -16.626 -23.070  0.00  0.00    +0.145 C 
ATOM     19  C   UNL     1      34.268 -14.862 -21.542  0.00  0.00    +0.018 C 
ATOM     20  C   UNL     1      33.712 -14.682 -23.885  0.00  0.00    +0.018 C 
ATOM     21  C   UNL     1      34.870 -16.098 -21.780  0.00  0.00    +0.039 C 
ATOM     22  C   UNL     1      34.312 -15.918 -24.124  0.00  0.00    +0.039 C 
BRANCH  18  23
ATOM     23  O   UNL     1      35.476 -17.833 -23.303  0.00  0.00    -0.453 OA
BRANCH  23  25
ATOM     24  N   UNL     1      36.274 -20.253 -20.020  0.00  0.00    -0.242 NA
ATOM     25  C   UNL     1      35.742 -18.640 -22.210  0.00  0.00    +0.148 C 
ATOM     26  C   UNL     1      34.747 -19.461 -21.720  0.00  0.00    +0.058 C 
ATOM     27  C   UNL     1      36.994 -18.605 -21.635  0.00  0.00    +0.058 C 
ATOM     28  C   UNL     1      35.064 -20.247 -20.623  0.00  0.00    +0.102 C 
ATOM     29  C   UNL     1      37.209 -19.429 -20.542  0.00  0.00    +0.102 C 
ENDBRANCH  23  25
ENDBRANCH  18  23
ENDBRANCH   3  17
TORSDOF 5
ENDMDL
MODEL 3
REMARK VINA RESULT:     -10.8      7.543     12.808
REMARK  Name = 15942672
REMARK  5 active torsions:
REMARK  status: ('A' for Active; 'I' for Inactive)
REMARK    1  A    between atoms: N_2  and  C_7
REMARK    2  A    between atoms: N_3  and  C_17
REMARK    3  A    between atoms: C_8  and  C_16
REMARK    4  A    between atoms: C_18  and  O_23
REMARK    5  A    between atoms: O_23  and  C_25
REMARK                            x       y       z     vdW  Elec       q    Type
REMARK                         _______ _______ _______ _____ _____    ______ ____
ROOT
ATOM      1  O   UNL     1      34.991 -13.427 -21.834  0.00  0.00    -0.252 OA
ATOM      2  N   UNL     1      34.052 -12.680 -23.847  0.00  0.00    -0.268 N 
ATOM      3  N   UNL     1      34.406 -14.939 -23.519  0.00  0.00    -0.268 N 
ATOM      4  C   UNL     1      34.533 -13.664 -22.948  0.00  0.00    +0.308 C 
ATOM      5  H   UNL     1      33.713 -13.019 -24.707  0.00  0.00    +0.156 HD
ATOM      6  H   UNL     1      34.019 -14.971 -24.423  0.00  0.00    +0.156 HD
ENDROOT
BRANCH   2   7
ATOM      7  C   UNL     1      33.996 -11.297 -23.676  0.00  0.00    +0.052 C 
ATOM      8  C   UNL     1      32.886  -9.341 -22.795  0.00  0.00    +0.073 C 
ATOM      9  C   UNL     1      32.942 -10.724 -22.965  0.00  0.00    +0.019 C 
ATOM     10  C   UNL     1      34.995 -10.487 -24.216  0.00  0.00    +0.015 C 
ATOM     11  C   UNL     1      33.886  -8.531 -23.335  0.00  0.00    +0.004 C 
ATOM     12  C   UNL     1      34.939  -9.104 -24.045  0.00  0.00    +0.001 C 
BRANCH   8  16
ATOM     13  F   UNL     1      32.123  -7.632 -21.304  0.00  0.00    -0.166 F 
ATOM     14  F   UNL     1      30.733  -8.301 -22.827  0.00  0.00    -0.166 F 
ATOM     15  F   UNL     1      31.197  -9.592 -21.140  0.00  0.00    -0.166 F 
ATOM     16  C   UNL     1      31.760  -8.727 -22.034  0.00  0.00    +0.419 C 
ENDBRANCH   8  16
ENDBRANCH   2   7
BRANCH   3  17
ATOM     17  C   UNL     1      34.766 -16.186 -22.956  0.00  0.00    +0.052 C 
ATOM     18  C   UNL     1      35.471 -18.628 -21.852  0.00  0.00    +0.145 C 
ATOM     19  C   UNL     1      34.952 -17.277 -23.787  0.00  0.00    +0.018 C 
ATOM     20  C   UNL     1      34.925 -16.290 -21.583  0.00  0.00    +0.018 C 
ATOM     21  C   UNL     1      35.307 -18.507 -23.231  0.00  0.00    +0.039 C 
ATOM     22  C   UNL     1      35.281 -17.518 -21.027  0.00  0.00    +0.039 C 
BRANCH  18  23
ATOM     23  O   UNL     1      35.819 -19.826 -21.309  0.00  0.00    -0.453 OA
BRANCH  23  25
ATOM     24  N   UNL     1      33.060 -21.699 -18.830  0.00  0.00    -0.242 NA
ATOM     25  C   UNL     1      34.901 -20.449 -20.482  0.00  0.00    +0.148 C 
ATOM     26  C   UNL     1      35.338 -21.401 -19.584  0.00  0.00    +0.058 C 
ATOM     27  C   UNL     1      33.569 -20.106 -20.574  0.00  0.00    +0.058 C 
ATOM     28  C   UNL     1      34.378 -21.996 -18.781  0.00  0.00    +0.102 C 
ATOM     29  C   UNL     1      32.689 -20.760 -19.727  0.00  0.00    +0.102 C 
ENDBRANCH  23  25
ENDBRANCH  18  23
ENDBRANCH   3  17
TORSDOF 5
ENDMDL
MODEL 4
REMARK VINA RESULT:     -10.8      7.983     12.979
REMARK  Name = 15942672
REMARK  5 active torsions:
REMARK  status: ('A' for Active; 'I' for Inactive)
REMARK    1  A    between atoms: N_2  and  C_7
REMARK    2  A    between atoms: N_3  and  C_17
REMARK    3  A    between atoms: C_8  and  C_16
REMARK    4  A    between atoms: C_18  and  O_23
REMARK    5  A    between atoms: O_23  and  C_25
REMARK                            x       y       z     vdW  Elec       q    Type
REMARK                         _______ _______ _______ _____ _____    ______ ____
ROOT
ATOM      1  O   UNL     1      34.126 -13.406 -21.348  0.00  0.00    -0.252 OA
ATOM      2  N   UNL     1      33.780 -12.410 -23.441  0.00  0.00    -0.268 N 
ATOM      3  N   UNL     1      34.402 -14.631 -23.321  0.00  0.00    -0.268 N 
ATOM      4  C   UNL     1      34.106 -13.481 -22.573  0.00  0.00    +0.308 C 
ATOM      5  H   UNL     1      33.807 -12.618 -24.403  0.00  0.00    +0.156 HD
ATOM      6  H   UNL     1      34.344 -14.537 -24.299  0.00  0.00    +0.156 HD
ENDROOT
BRANCH   2   7
ATOM      7  C   UNL     1      33.427 -11.100 -23.113  0.00  0.00    +0.052 C 
ATOM      8  C   UNL     1      33.858  -8.726 -23.231  0.00  0.00    +0.073 C 
ATOM      9  C   UNL     1      34.210 -10.035 -23.559  0.00  0.00    +0.019 C 
ATOM     10  C   UNL     1      32.292 -10.857 -22.341  0.00  0.00    +0.015 C 
ATOM     11  C   UNL     1      32.722  -8.482 -22.458  0.00  0.00    +0.004 C 
ATOM     12  C   UNL     1      31.939  -9.547 -22.013  0.00  0.00    +0.001 C 
BRANCH   8  16
ATOM     13  F   UNL     1      35.318  -7.824 -24.897  0.00  0.00    -0.166 F 
ATOM     14  F   UNL     1      33.986  -6.434 -23.900  0.00  0.00    -0.166 F 
ATOM     15  F   UNL     1      35.688  -7.263 -22.830  0.00  0.00    -0.166 F 
ATOM     16  C   UNL     1      34.693  -7.586 -23.707  0.00  0.00    +0.419 C 
ENDBRANCH   8  16
ENDBRANCH   2   7
BRANCH   3  17
ATOM     17  C   UNL     1      34.773 -15.910 -22.843  0.00  0.00    +0.052 C 
ATOM     18  C   UNL     1      35.499 -18.414 -21.905  0.00  0.00    +0.145 C 
ATOM     19  C   UNL     1      34.957 -16.944 -23.745  0.00  0.00    +0.018 C 
ATOM     20  C   UNL     1      34.944 -16.101 -21.481  0.00  0.00    +0.018 C 
ATOM     21  C   UNL     1      35.322 -18.205 -23.272  0.00  0.00    +0.039 C 
ATOM     22  C   UNL     1      35.311 -17.361 -21.009  0.00  0.00    +0.039 C 
BRANCH  18  23
ATOM     23  O   UNL     1      35.858 -19.643 -21.444  0.00  0.00    -0.453 OA
BRANCH  23  25
ATOM     24  N   UNL     1      33.199 -21.617 -18.935  0.00  0.00    -0.242 NA
ATOM     25  C   UNL     1      34.972 -20.301 -20.610  0.00  0.00    +0.148 C 
ATOM     26  C   UNL     1      33.623 -20.033 -20.712  0.00  0.00    +0.058 C 
ATOM     27  C   UNL     1      35.457 -21.210 -19.694  0.00  0.00    +0.058 C 
ATOM     28  C   UNL     1      32.778 -20.717 -19.852  0.00  0.00    +0.102 C 
ATOM     29  C   UNL     1      34.531 -21.840 -18.880  0.00  0.00    +0.102 C 
ENDBRANCH  23  25
ENDBRANCH  18  23
ENDBRANCH   3  17
TORSDOF 5
ENDMDL
MODEL 5
REMARK VINA RESULT:     -10.7      5.247     10.597
REMARK  Name = 15942672
REMARK  5 active torsions:
REMARK  status: ('A' for Active; 'I' for Inactive)
REMARK    1  A    between atoms: N_2  and  C_7
REMARK    2  A    between atoms: N_3  and  C_17
REMARK    3  A    between atoms: C_8  and  C_16
REMARK    4  A    between atoms: C_18  and  O_23
REMARK    5  A    between atoms: O_23  and  C_25
REMARK                            x       y       z     vdW  Elec       q    Type
REMARK                         _______ _______ _______ _____ _____    ______ ____
ROOT
ATOM      1  O   UNL     1      33.772 -20.022 -20.112  0.00  0.00    -0.252 OA
ATOM      2  N   UNL     1      35.774 -19.561 -21.240  0.00  0.00    -0.268 N 
ATOM      3  N   UNL     1      35.772 -21.054 -19.476  0.00  0.00    -0.268 N 
ATOM      4  C   UNL     1      34.978 -20.198 -20.256  0.00  0.00    +0.308 C 
ATOM      5  H   UNL     1      36.729 -19.800 -21.234  0.00  0.00    +0.156 HD
ATOM      6  H   UNL     1      36.727 -21.090 -19.711  0.00  0.00    +0.156 HD
ENDROOT
BRANCH   2   7
ATOM      7  C   UNL     1      35.384 -18.640 -22.213  0.00  0.00    +0.052 C 
ATOM      8  C   UNL     1      34.736 -16.396 -22.829  0.00  0.00    +0.073 C 
ATOM      9  C   UNL     1      35.126 -17.317 -21.856  0.00  0.00    +0.019 C 
ATOM     10  C   UNL     1      35.254 -19.044 -23.541  0.00  0.00    +0.015 C 
ATOM     11  C   UNL     1      34.606 -16.800 -24.158  0.00  0.00    +0.004 C 
ATOM     12  C   UNL     1      34.864 -18.123 -24.514  0.00  0.00    +0.001 C 
BRANCH   8  16
ATOM     13  F   UNL     1      33.130 -14.676 -22.398  0.00  0.00    -0.166 F 
ATOM     14  F   UNL     1      34.953 -14.638 -21.223  0.00  0.00    -0.166 F 
ATOM     15  F   UNL     1      35.006 -14.087 -23.326  0.00  0.00    -0.166 F 
ATOM     16  C   UNL     1      34.460 -14.980 -22.450  0.00  0.00    +0.419 C 
ENDBRANCH   8  16
ENDBRANCH   2   7
BRANCH   3  17
ATOM     17  C   UNL     1      35.369 -21.871 -18.394  0.00  0.00    +0.052 C 
ATOM     18  C   UNL     1      34.580 -23.472 -16.275  0.00  0.00    +0.145 C 
ATOM     19  C   UNL     1      36.207 -22.010 -17.301  0.00  0.00    +0.018 C 
ATOM     20  C   UNL     1      34.144 -22.516 -18.451  0.00  0.00    +0.018 C 
ATOM     21  C   UNL     1      35.809 -22.816 -16.234  0.00  0.00    +0.039 C 
ATOM     22  C   UNL     1      33.746 -23.321 -17.384  0.00  0.00    +0.039 C 
BRANCH  18  23
ATOM     23  O   UNL     1      34.190 -24.256 -15.234  0.00  0.00    -0.453 OA
BRANCH  23  25
ATOM     24  N   UNL     1      37.160 -25.960 -12.878  0.00  0.00    -0.242 NA
ATOM     25  C   UNL     1      35.181 -24.824 -14.450  0.00  0.00    +0.148 C 
ATOM     26  C   UNL     1      35.948 -25.846 -14.968  0.00  0.00    +0.058 C 
ATOM     27  C   UNL     1      35.377 -24.355 -13.169  0.00  0.00    +0.058 C 
ATOM     28  C   UNL     1      36.924 -26.380 -14.142  0.00  0.00    +0.102 C 
ATOM     29  C   UNL     1      36.378 -24.957 -12.424  0.00  0.00    +0.102 C 
ENDBRANCH  23  25
ENDBRANCH  18  23
ENDBRANCH   3  17
TORSDOF 5
ENDMDL
MODEL 6
REMARK VINA RESULT:     -10.6      4.002      4.585
REMARK  Name = 15942672
REMARK  5 active torsions:
REMARK  status: ('A' for Active; 'I' for Inactive)
REMARK    1  A    between atoms: N_2  and  C_7
REMARK    2  A    between atoms: N_3  and  C_17
REMARK    3  A    between atoms: C_8  and  C_16
REMARK    4  A    between atoms: C_18  and  O_23
REMARK    5  A    between atoms: O_23  and  C_25
REMARK                            x       y       z     vdW  Elec       q    Type
REMARK                         _______ _______ _______ _____ _____    ______ ____
ROOT
ATOM      1  O   UNL     1      32.357 -22.061 -17.668  0.00  0.00    -0.252 OA
ATOM      2  N   UNL     1      33.684 -23.402 -16.279  0.00  0.00    -0.268 N 
ATOM      3  N   UNL     1      34.658 -22.259 -18.034  0.00  0.00    -0.268 N 
ATOM      4  C   UNL     1      33.453 -22.522 -17.364  0.00  0.00    +0.308 C 
ATOM      5  H   UNL     1      34.617 -23.691 -16.156  0.00  0.00    +0.156 HD
ATOM      6  H   UNL     1      35.458 -22.703 -17.673  0.00  0.00    +0.156 HD
ENDROOT
BRANCH   2   7
ATOM      7  C   UNL     1      32.766 -23.914 -15.362  0.00  0.00    +0.052 C 
ATOM      8  C   UNL     1      30.491 -24.468 -14.767  0.00  0.00    +0.073 C 
ATOM      9  C   UNL     1      31.409 -23.956 -15.684  0.00  0.00    +0.019 C 
ATOM     10  C   UNL     1      33.204 -24.384 -14.125  0.00  0.00    +0.015 C 
ATOM     11  C   UNL     1      30.930 -24.939 -13.529  0.00  0.00    +0.004 C 
ATOM     12  C   UNL     1      32.286 -24.896 -13.208  0.00  0.00    +0.001 C 
BRANCH   8  16
ATOM     13  F   UNL     1      28.793 -24.888 -16.399  0.00  0.00    -0.166 F 
ATOM     14  F   UNL     1      28.325 -25.389 -14.342  0.00  0.00    -0.166 F 
ATOM     15  F   UNL     1      28.426 -23.305 -14.955  0.00  0.00    -0.166 F 
ATOM     16  C   UNL     1      29.040 -24.515 -15.110  0.00  0.00    +0.419 C 
ENDBRANCH   8  16
ENDBRANCH   2   7
BRANCH   3  17
ATOM     17  C   UNL     1      34.864 -21.434 -19.166  0.00  0.00    +0.052 C 
ATOM     18  C   UNL     1      35.267 -19.820 -21.380  0.00  0.00    +0.145 C 
ATOM     19  C   UNL     1      36.157 -21.128 -19.554  0.00  0.00    +0.018 C 
ATOM     20  C   UNL     1      33.768 -20.951 -19.861  0.00  0.00    +0.018 C 
ATOM     21  C   UNL     1      36.360 -20.314 -20.670  0.00  0.00    +0.039 C 
ATOM     22  C   UNL     1      33.970 -20.139 -20.977  0.00  0.00    +0.039 C 
BRANCH  18  23
ATOM     23  O   UNL     1      35.465 -19.029 -22.470  0.00  0.00    -0.453 OA
BRANCH  23  25
ATOM     24  N   UNL     1      34.439 -15.014 -22.153  0.00  0.00    -0.242 NA
ATOM     25  C   UNL     1      35.122 -17.691 -22.365  0.00  0.00    +0.148 C 
ATOM     26  C   UNL     1      34.913 -16.956 -23.513  0.00  0.00    +0.058 C 
ATOM     27  C   UNL     1      34.998 -17.124 -21.115  0.00  0.00    +0.058 C 
ATOM     28  C   UNL     1      34.574 -15.622 -23.353  0.00  0.00    +0.102 C 
ATOM     29  C   UNL     1      34.656 -15.783 -21.063  0.00  0.00    +0.102 C 
ENDBRANCH  23  25
ENDBRANCH  18  23
ENDBRANCH   3  17
TORSDOF 5
ENDMDL
MODEL 7
REMARK VINA RESULT:     -10.6      5.584     10.476
REMARK  Name = 15942672
REMARK  5 active torsions:
REMARK  status: ('A' for Active; 'I' for Inactive)
REMARK    1  A    between atoms: N_2  and  C_7
REMARK    2  A    between atoms: N_3  and  C_17
REMARK    3  A    between atoms: C_8  and  C_16
REMARK    4  A    between atoms: C_18  and  O_23
REMARK    5  A    between atoms: O_23  and  C_25
REMARK                            x       y       z     vdW  Elec       q    Type
REMARK                         _______ _______ _______ _____ _____    ______ ____
ROOT
ATOM      1  O   UNL     1      33.727 -19.241 -20.506  0.00  0.00    -0.252 OA
ATOM      2  N   UNL     1      35.648 -18.813 -21.776  0.00  0.00    -0.268 N 
ATOM      3  N   UNL     1      35.683 -20.480 -20.177  0.00  0.00    -0.268 N 
ATOM      4  C   UNL     1      34.896 -19.490 -20.785  0.00  0.00    +0.308 C 
ATOM      5  H   UNL     1      36.577 -19.121 -21.890  0.00  0.00    +0.156 HD
ATOM      6  H   UNL     1      36.606 -20.561 -20.508  0.00  0.00    +0.156 HD
ENDROOT
BRANCH   2   7
ATOM      7  C   UNL     1      35.250 -17.768 -22.610  0.00  0.00    +0.052 C 
ATOM      8  C   UNL     1      34.538 -15.478 -22.900  0.00  0.00    +0.073 C 
ATOM      9  C   UNL     1      34.936 -16.523 -22.066  0.00  0.00    +0.019 C 
ATOM     10  C   UNL     1      35.165 -17.970 -23.988  0.00  0.00    +0.015 C 
ATOM     11  C   UNL     1      34.453 -15.679 -24.278  0.00  0.00    +0.004 C 
ATOM     12  C   UNL     1      34.767 -16.925 -24.822  0.00  0.00    +0.001 C 
BRANCH   8  16
ATOM     13  F   UNL     1      34.646 -13.094 -23.070  0.00  0.00    -0.166 F 
ATOM     14  F   UNL     1      32.862 -13.936 -22.170  0.00  0.00    -0.166 F 
ATOM     15  F   UNL     1      34.743 -13.963 -21.079  0.00  0.00    -0.166 F 
ATOM     16  C   UNL     1      34.203 -14.145 -22.320  0.00  0.00    +0.419 C 
ENDBRANCH   8  16
ENDBRANCH   2   7
BRANCH   3  17
ATOM     17  C   UNL     1      35.314 -21.375 -19.145  0.00  0.00    +0.052 C 
ATOM     18  C   UNL     1      34.592 -23.127 -17.124  0.00  0.00    +0.145 C 
ATOM     19  C   UNL     1      34.086 -22.011 -19.207  0.00  0.00    +0.018 C 
ATOM     20  C   UNL     1      36.189 -21.596 -18.094  0.00  0.00    +0.018 C 
ATOM     21  C   UNL     1      33.722 -22.894 -18.189  0.00  0.00    +0.039 C 
ATOM     22  C   UNL     1      35.826 -22.479 -17.077  0.00  0.00    +0.039 C 
BRANCH  18  23
ATOM     23  O   UNL     1      34.239 -23.990 -16.133  0.00  0.00    -0.453 OA
BRANCH  23  25
ATOM     24  N   UNL     1      30.867 -23.074 -13.884  0.00  0.00    -0.242 NA
ATOM     25  C   UNL     1      33.116 -23.683 -15.383  0.00  0.00    +0.148 C 
ATOM     26  C   UNL     1      33.182 -23.762 -14.008  0.00  0.00    +0.058 C 
ATOM     27  C   UNL     1      31.957 -23.308 -16.028  0.00  0.00    +0.058 C 
ATOM     28  C   UNL     1      32.030 -23.447 -13.304  0.00  0.00    +0.102 C 
ATOM     29  C   UNL     1      30.861 -23.014 -15.234  0.00  0.00    +0.102 C 
ENDBRANCH  23  25
ENDBRANCH  18  23
ENDBRANCH   3  17
TORSDOF 5
ENDMDL
MODEL 8
REMARK VINA RESULT:     -10.5      1.518      2.089
REMARK  Name = 15942672
REMARK  5 active torsions:
REMARK  status: ('A' for Active; 'I' for Inactive)
REMARK    1  A    between atoms: N_2  and  C_7
REMARK    2  A    between atoms: N_3  and  C_17
REMARK    3  A    between atoms: C_8  and  C_16
REMARK    4  A    between atoms: C_18  and  O_23
REMARK    5  A    between atoms: O_23  and  C_25
REMARK                            x       y       z     vdW  Elec       q    Type
REMARK                         _______ _______ _______ _____ _____    ______ ____
ROOT
ATOM      1  O   UNL     1      35.481 -22.284 -18.590  0.00  0.00    -0.252 OA
ATOM      2  N   UNL     1      37.149 -21.809 -17.015  0.00  0.00    -0.268 N 
ATOM      3  N   UNL     1      36.938 -20.481 -18.894  0.00  0.00    -0.268 N 
ATOM      4  C   UNL     1      36.422 -21.594 -18.212  0.00  0.00    +0.308 C 
ATOM      5  H   UNL     1      37.881 -21.173 -16.842  0.00  0.00    +0.156 HD
ATOM      6  H   UNL     1      37.698 -20.026 -18.465  0.00  0.00    +0.156 HD
ENDROOT
BRANCH   2   7
ATOM      7  C   UNL     1      36.966 -22.800 -16.052  0.00  0.00    +0.052 C 
ATOM      8  C   UNL     1      37.886 -24.478 -14.576  0.00  0.00    +0.073 C 
ATOM      9  C   UNL     1      38.068 -23.486 -15.540  0.00  0.00    +0.019 C 
ATOM     10  C   UNL     1      35.683 -23.106 -15.601  0.00  0.00    +0.015 C 
ATOM     11  C   UNL     1      36.601 -24.784 -14.125  0.00  0.00    +0.004 C 
ATOM     12  C   UNL     1      35.500 -24.098 -14.637  0.00  0.00    +0.001 C 
BRANCH   8  16
ATOM     13  F   UNL     1      38.941 -26.569 -14.092  0.00  0.00    -0.166 F 
ATOM     14  F   UNL     1      40.233 -24.925 -14.669  0.00  0.00    -0.166 F 
ATOM     15  F   UNL     1      39.289 -24.927 -12.710  0.00  0.00    -0.166 F 
ATOM     16  C   UNL     1      39.062 -25.211 -14.026  0.00  0.00    +0.419 C 
ENDBRANCH   8  16
ENDBRANCH   2   7
BRANCH   3  17
ATOM     17  C   UNL     1      36.501 -19.931 -20.122  0.00  0.00    +0.052 C 
ATOM     18  C   UNL     1      35.643 -18.856 -22.527  0.00  0.00    +0.145 C 
ATOM     19  C   UNL     1      37.372 -19.153 -20.865  0.00  0.00    +0.018 C 
ATOM     20  C   UNL     1      35.209 -20.183 -20.556  0.00  0.00    +0.018 C 
ATOM     21  C   UNL     1      36.940 -18.611 -22.077  0.00  0.00    +0.039 C 
ATOM     22  C   UNL     1      34.777 -19.643 -21.767  0.00  0.00    +0.039 C 
BRANCH  18  23
ATOM     23  O   UNL     1      35.222 -18.330 -23.709  0.00  0.00    -0.453 OA
BRANCH  23  25
ATOM     24  N   UNL     1      34.151 -14.315 -23.767  0.00  0.00    -0.242 NA
ATOM     25  C   UNL     1      34.867 -16.991 -23.728  0.00  0.00    +0.148 C 
ATOM     26  C   UNL     1      34.912 -16.265 -22.557  0.00  0.00    +0.058 C 
ATOM     27  C   UNL     1      34.474 -16.416 -24.917  0.00  0.00    +0.058 C 
ATOM     28  C   UNL     1      34.545 -14.931 -22.629  0.00  0.00    +0.102 C 
ATOM     29  C   UNL     1      34.126 -15.075 -24.883  0.00  0.00    +0.102 C 
ENDBRANCH  23  25
ENDBRANCH  18  23
ENDBRANCH   3  17
TORSDOF 5
ENDMDL
MODEL 9
REMARK VINA RESULT:     -10.5      9.345     14.529
REMARK  Name = 15942672
REMARK  5 active torsions:
REMARK  status: ('A' for Active; 'I' for Inactive)
REMARK    1  A    between atoms: N_2  and  C_7
REMARK    2  A    between atoms: N_3  and  C_17
REMARK    3  A    between atoms: C_8  and  C_16
REMARK    4  A    between atoms: C_18  and  O_23
REMARK    5  A    between atoms: O_23  and  C_25
REMARK                            x       y       z     vdW  Elec       q    Type
REMARK                         _______ _______ _______ _____ _____    ______ ____
ROOT
ATOM      1  O   UNL     1      34.906 -11.252 -24.073  0.00  0.00    -0.252 OA
ATOM      2  N   UNL     1      33.169 -10.213 -22.893  0.00  0.00    -0.268 N 
ATOM      3  N   UNL     1      33.371 -12.513 -22.839  0.00  0.00    -0.268 N 
ATOM      4  C   UNL     1      33.920 -11.325 -23.346  0.00  0.00    +0.308 C 
ATOM      5  H   UNL     1      32.401 -10.425 -22.314  0.00  0.00    +0.156 HD
ATOM      6  H   UNL     1      32.577 -12.412 -22.267  0.00  0.00    +0.156 HD
ENDROOT
BRANCH   2   7
ATOM      7  C   UNL     1      33.370  -8.859 -23.161  0.00  0.00    +0.052 C 
ATOM      8  C   UNL     1      32.563  -6.582 -23.152  0.00  0.00    +0.073 C 
ATOM      9  C   UNL     1      32.362  -7.936 -22.884  0.00  0.00    +0.019 C 
ATOM     10  C   UNL     1      34.580  -8.428 -23.705  0.00  0.00    +0.015 C 
ATOM     11  C   UNL     1      33.774  -6.151 -23.696  0.00  0.00    +0.004 C 
ATOM     12  C   UNL     1      34.782  -7.074 -23.973  0.00  0.00    +0.001 C 
BRANCH   8  16
ATOM     13  F   UNL     1      31.833  -4.672 -21.911  0.00  0.00    -0.166 F 
ATOM     14  F   UNL     1      31.102  -4.862 -23.943  0.00  0.00    -0.166 F 
ATOM     15  F   UNL     1      30.346  -6.183 -22.391  0.00  0.00    -0.166 F 
ATOM     16  C   UNL     1      31.486  -5.593 -22.856  0.00  0.00    +0.419 C 
ENDBRANCH   8  16
ENDBRANCH   2   7
BRANCH   3  17
ATOM     17  C   UNL     1      33.818 -13.839 -23.049  0.00  0.00    +0.052 C 
ATOM     18  C   UNL     1      34.694 -16.435 -23.463  0.00  0.00    +0.145 C 
ATOM     19  C   UNL     1      34.327 -14.560 -21.983  0.00  0.00    +0.018 C 
ATOM     20  C   UNL     1      33.738 -14.388 -24.319  0.00  0.00    +0.018 C 
ATOM     21  C   UNL     1      34.768 -15.868 -22.191  0.00  0.00    +0.039 C 
ATOM     22  C   UNL     1      34.178 -15.695 -24.527  0.00  0.00    +0.039 C 
BRANCH  18  23
ATOM     23  O   UNL     1      35.122 -17.710 -23.666  0.00  0.00    -0.453 OA
BRANCH  23  25
ATOM     24  N   UNL     1      36.285 -19.914 -20.340  0.00  0.00    -0.242 NA
ATOM     25  C   UNL     1      35.509 -18.443 -22.557  0.00  0.00    +0.148 C 
ATOM     26  C   UNL     1      36.779 -18.272 -22.045  0.00  0.00    +0.058 C 
ATOM     27  C   UNL     1      34.619 -19.329 -21.990  0.00  0.00    +0.058 C 
ATOM     28  C   UNL     1      37.118 -19.031 -20.936  0.00  0.00    +0.102 C 
ATOM     29  C   UNL     1      35.055 -20.041 -20.884  0.00  0.00    +0.102 C 
ENDBRANCH  23  25
ENDBRANCH  18  23
ENDBRANCH   3  17
TORSDOF 5
ENDMDL
