MODEL 1
REMARK VINA RESULT:     -12.6      0.000      0.000
REMARK  Name = 23629645
REMARK  6 active torsions:
REMARK  status: ('A' for Active; 'I' for Inactive)
REMARK    1  A    between atoms: N_1  and  C_6
REMARK    2  A    between atoms: N_1  and  C_21
REMARK    3  A    between atoms: C_3  and  C_16
REMARK    4  A    between atoms: C_11  and  C_18
REMARK    5  A    between atoms: C_18  and  O_19
REMARK    6  A    between atoms: C_21  and  C_28
REMARK                            x       y       z     vdW  Elec       q    Type
REMARK                         _______ _______ _______ _____ _____    ______ ____
ROOT
ATOM      1  N   UNL     1      35.919 -19.153 -21.794  0.00  0.00    -0.300 N 
ATOM      2  C   UNL     1      37.312 -18.759 -21.740  0.00  0.00    +0.113 C 
ENDROOT
BRANCH   1   6
ATOM      3  C   UNL     1      34.316 -21.702 -18.872  0.00  0.00    +0.054 C 
ATOM      4  C   UNL     1      33.467 -20.924 -19.654  0.00  0.00    +0.006 C 
ATOM      5  C   UNL     1      35.695 -21.639 -19.055  0.00  0.00    +0.006 C 
ATOM      6  C   UNL     1      35.380 -20.011 -20.811  0.00  0.00    +0.048 C 
ATOM      7  C   UNL     1      33.999 -20.076 -20.625  0.00  0.00    +0.015 C 
ATOM      8  C   UNL     1      36.228 -20.791 -20.026  0.00  0.00    +0.015 C 
BRANCH   3  16
ATOM      9  O   UNL     1      32.556 -22.847 -17.948  0.00  0.00    -0.270 OA
ATOM     10  N   UNL     1      34.609 -23.071 -16.851  0.00  0.00    -0.276 N 
ATOM     11  C   UNL     1      35.790 -22.999 -14.203  0.00  0.00    +0.102 C 
ATOM     12  C   UNL     1      34.331 -23.408 -14.434  0.00  0.00    +0.033 C 
ATOM     13  C   UNL     1      36.350 -22.166 -15.362  0.00  0.00    +0.033 C 
ATOM     14  C   UNL     1      34.093 -23.980 -15.831  0.00  0.00    +0.094 C 
ATOM     15  C   UNL     1      36.040 -22.770 -16.731  0.00  0.00    +0.094 C 
ATOM     16  C   UNL     1      33.756 -22.594 -17.849  0.00  0.00    +0.249 C 
BRANCH  11  18
ATOM     17  O   UNL     1      36.184 -25.321 -13.696  0.00  0.00    -0.250 OA
ATOM     18  C   UNL     1      36.635 -24.214 -13.952  0.00  0.00    +0.317 C 
BRANCH  18  19
ATOM     19  O   UNL     1      37.954 -23.881 -14.054  0.00  0.00    -0.444 OA
ATOM     20  C   UNL     1      38.836 -24.959 -14.382  0.00  0.00    +0.256 C 
ENDBRANCH  18  19
ENDBRANCH  11  18
ENDBRANCH   3  16
ENDBRANCH   1   6
BRANCH   1  21
ATOM     21  C   UNL     1      35.088 -18.665 -22.877  0.00  0.00    +0.148 C 
BRANCH  21  28
ATOM     22  N   UNL     1      34.485 -16.546 -23.888  0.00  0.00    -0.392 NA
ATOM     23  N   UNL     1      34.768 -15.221 -21.474  0.00  0.00    -0.200 NA
ATOM     24  N   UNL     1      34.187 -13.222 -22.487  0.00  0.00    -0.271 NA
ATOM     25  N   UNL     1      33.664 -13.130 -24.826  0.00  0.00    -0.310 NA
ATOM     26  N   UNL     1      33.741 -15.106 -26.119  0.00  0.00    -0.329 N 
ATOM     27  N   UNL     1      33.597 -11.193 -23.511  0.00  0.00    -0.283 N 
ATOM     28  C   UNL     1      34.842 -17.183 -22.773  0.00  0.00    +0.133 C 
ATOM     29  C   UNL     1      34.985 -16.546 -21.581  0.00  0.00    +0.193 C 
ATOM     30  C   UNL     1      34.268 -15.220 -23.780  0.00  0.00    +0.248 C 
ATOM     31  C   UNL     1      34.407 -14.539 -22.569  0.00  0.00    +0.131 C 
ATOM     32  C   UNL     1      33.894 -14.454 -24.867  0.00  0.00    +0.231 C 
ATOM     33  C   UNL     1      33.826 -12.582 -23.616  0.00  0.00    +0.207 C 
ATOM     34  H   UNL     1      33.475 -14.589 -26.913  0.00  0.00    +0.145 HD
ATOM     35  H   UNL     1      33.900 -16.074 -26.192  0.00  0.00    +0.145 HD
ATOM     36  H   UNL     1      33.703 -10.742 -22.642  0.00  0.00    +0.156 HD
ATOM     37  H   UNL     1      33.332 -10.677 -24.306  0.00  0.00    +0.156 HD
ENDBRANCH  21  28
ENDBRANCH   1  21
TORSDOF 6
ENDMDL
MODEL 2
REMARK VINA RESULT:     -12.5      1.282      1.568
REMARK  Name = 23629645
REMARK  6 active torsions:
REMARK  status: ('A' for Active; 'I' for Inactive)
REMARK    1  A    between atoms: N_1  and  C_6
REMARK    2  A    between atoms: N_1  and  C_21
REMARK    3  A    between atoms: C_3  and  C_16
REMARK    4  A    between atoms: C_11  and  C_18
REMARK    5  A    between atoms: C_18  and  O_19
REMARK    6  A    between atoms: C_21  and  C_28
REMARK                            x       y       z     vdW  Elec       q    Type
REMARK                         _______ _______ _______ _____ _____    ______ ____
ROOT
ATOM      1  N   UNL     1      35.150 -18.998 -22.374  0.00  0.00    -0.300 N 
ATOM      2  C   UNL     1      34.712 -19.331 -23.714  0.00  0.00    +0.113 C 
ENDROOT
BRANCH   1   6
ATOM      3  C   UNL     1      34.210 -21.509 -19.146  0.00  0.00    +0.054 C 
ATOM      4  C   UNL     1      33.193 -20.848 -19.829  0.00  0.00    +0.006 C 
ATOM      5  C   UNL     1      35.539 -21.341 -19.529  0.00  0.00    +0.006 C 
ATOM      6  C   UNL     1      34.834 -19.843 -21.288  0.00  0.00    +0.048 C 
ATOM      7  C   UNL     1      33.505 -20.014 -20.902  0.00  0.00    +0.015 C 
ATOM      8  C   UNL     1      35.851 -20.506 -20.602  0.00  0.00    +0.015 C 
BRANCH   3  16
ATOM      9  O   UNL     1      32.699 -22.701 -17.899  0.00  0.00    -0.270 OA
ATOM     10  N   UNL     1      34.917 -22.784 -17.167  0.00  0.00    -0.276 N 
ATOM     11  C   UNL     1      36.528 -22.554 -14.765  0.00  0.00    +0.102 C 
ATOM     12  C   UNL     1      35.075 -23.042 -14.729  0.00  0.00    +0.033 C 
ATOM     13  C   UNL     1      36.836 -21.740 -16.028  0.00  0.00    +0.033 C 
ATOM     14  C   UNL     1      34.634 -23.678 -16.047  0.00  0.00    +0.094 C 
ATOM     15  C   UNL     1      36.329 -22.410 -17.304  0.00  0.00    +0.094 C 
ATOM     16  C   UNL     1      33.882 -22.387 -18.016  0.00  0.00    +0.249 C 
BRANCH  11  18
ATOM     17  O   UNL     1      38.623 -23.714 -15.031  0.00  0.00    -0.250 OA
ATOM     18  C   UNL     1      37.468 -23.716 -14.629  0.00  0.00    +0.317 C 
BRANCH  18  19
ATOM     19  O   UNL     1      36.833 -24.745 -13.998  0.00  0.00    -0.444 OA
ATOM     20  C   UNL     1      37.233 -26.057 -14.406  0.00  0.00    +0.256 C 
ENDBRANCH  18  19
ENDBRANCH  11  18
ENDBRANCH   3  16
ENDBRANCH   1   6
BRANCH   1  21
ATOM     21  C   UNL     1      35.906 -17.780 -22.159  0.00  0.00    +0.148 C 
BRANCH  21  28
ATOM     22  N   UNL     1      34.574 -15.850 -22.777  0.00  0.00    -0.392 NA
ATOM     23  N   UNL     1      33.893 -15.373 -20.137  0.00  0.00    -0.200 NA
ATOM     24  N   UNL     1      32.634 -13.538 -20.778  0.00  0.00    -0.271 NA
ATOM     25  N   UNL     1      32.462 -12.906 -23.085  0.00  0.00    -0.310 NA
ATOM     26  N   UNL     1      33.592 -14.171 -24.730  0.00  0.00    -0.329 N 
ATOM     27  N   UNL     1      31.356 -11.679 -21.425  0.00  0.00    -0.283 N 
ATOM     28  C   UNL     1      35.014 -16.625 -21.785  0.00  0.00    +0.133 C 
ATOM     29  C   UNL     1      34.689 -16.402 -20.485  0.00  0.00    +0.193 C 
ATOM     30  C   UNL     1      33.778 -14.821 -22.427  0.00  0.00    +0.248 C 
ATOM     31  C   UNL     1      33.426 -14.568 -21.100  0.00  0.00    +0.131 C 
ATOM     32  C   UNL     1      33.260 -13.951 -23.367  0.00  0.00    +0.231 C 
ATOM     33  C   UNL     1      32.191 -12.760 -21.783  0.00  0.00    +0.207 C 
ATOM     34  H   UNL     1      33.239 -13.569 -25.425  0.00  0.00    +0.145 HD
ATOM     35  H   UNL     1      34.173 -14.925 -24.980  0.00  0.00    +0.145 HD
ATOM     36  H   UNL     1      31.127 -11.527 -20.480  0.00  0.00    +0.156 HD
ATOM     37  H   UNL     1      31.005 -11.077 -22.120  0.00  0.00    +0.156 HD
ENDBRANCH  21  28
ENDBRANCH   1  21
TORSDOF 6
ENDMDL
MODEL 3
REMARK VINA RESULT:     -12.4      0.673      1.836
REMARK  Name = 23629645
REMARK  6 active torsions:
REMARK  status: ('A' for Active; 'I' for Inactive)
REMARK    1  A    between atoms: N_1  and  C_6
REMARK    2  A    between atoms: N_1  and  C_21
REMARK    3  A    between atoms: C_3  and  C_16
REMARK    4  A    between atoms: C_11  and  C_18
REMARK    5  A    between atoms: C_18  and  O_19
REMARK    6  A    between atoms: C_21  and  C_28
REMARK                            x       y       z     vdW  Elec       q    Type
REMARK                         _______ _______ _______ _____ _____    ______ ____
ROOT
ATOM      1  N   UNL     1      35.890 -19.290 -21.832  0.00  0.00    -0.300 N 
ATOM      2  C   UNL     1      37.155 -18.613 -21.630  0.00  0.00    +0.113 C 
ENDROOT
BRANCH   1   6
ATOM      3  C   UNL     1      34.286 -21.742 -18.829  0.00  0.00    +0.054 C 
ATOM      4  C   UNL     1      35.663 -21.707 -19.034  0.00  0.00    +0.006 C 
ATOM      5  C   UNL     1      33.439 -20.968 -19.617  0.00  0.00    +0.006 C 
ATOM      6  C   UNL     1      35.351 -20.114 -20.822  0.00  0.00    +0.048 C 
ATOM      7  C   UNL     1      36.197 -20.892 -20.032  0.00  0.00    +0.015 C 
ATOM      8  C   UNL     1      33.972 -20.152 -20.615  0.00  0.00    +0.015 C 
BRANCH   3  16
ATOM      9  O   UNL     1      32.520 -22.833 -17.854  0.00  0.00    -0.270 OA
ATOM     10  N   UNL     1      34.584 -23.074 -16.785  0.00  0.00    -0.276 N 
ATOM     11  C   UNL     1      35.809 -22.972 -14.158  0.00  0.00    +0.102 C 
ATOM     12  C   UNL     1      34.339 -23.357 -14.357  0.00  0.00    +0.033 C 
ATOM     13  C   UNL     1      36.366 -22.174 -15.343  0.00  0.00    +0.033 C 
ATOM     14  C   UNL     1      34.068 -23.953 -15.739  0.00  0.00    +0.094 C 
ATOM     15  C   UNL     1      36.023 -22.799 -16.694  0.00  0.00    +0.094 C 
ATOM     16  C   UNL     1      33.725 -22.601 -17.779  0.00  0.00    +0.249 C 
BRANCH  11  18
ATOM     17  O   UNL     1      36.167 -25.284 -13.583  0.00  0.00    -0.250 OA
ATOM     18  C   UNL     1      36.635 -24.197 -13.895  0.00  0.00    +0.317 C 
BRANCH  18  19
ATOM     19  O   UNL     1      37.956 -23.901 -14.058  0.00  0.00    -0.444 OA
ATOM     20  C   UNL     1      38.812 -25.022 -14.300  0.00  0.00    +0.256 C 
ENDBRANCH  18  19
ENDBRANCH  11  18
ENDBRANCH   3  16
ENDBRANCH   1   6
BRANCH   1  21
ATOM     21  C   UNL     1      35.191 -19.120 -23.091  0.00  0.00    +0.148 C 
BRANCH  21  28
ATOM     22  N   UNL     1      34.674 -16.874 -22.336  0.00  0.00    -0.392 NA
ATOM     23  N   UNL     1      34.616 -15.926 -24.935  0.00  0.00    -0.200 NA
ATOM     24  N   UNL     1      34.123 -13.799 -24.163  0.00  0.00    -0.271 NA
ATOM     25  N   UNL     1      33.902 -13.360 -21.816  0.00  0.00    -0.310 NA
ATOM     26  N   UNL     1      34.190 -15.119 -20.266  0.00  0.00    -0.329 N 
ATOM     27  N   UNL     1      33.625 -11.642 -23.384  0.00  0.00    -0.283 N 
ATOM     28  C   UNL     1      34.901 -17.671 -23.381  0.00  0.00    +0.133 C 
ATOM     29  C   UNL     1      34.875 -17.219 -24.662  0.00  0.00    +0.193 C 
ATOM     30  C   UNL     1      34.416 -15.581 -22.610  0.00  0.00    +0.248 C 
ATOM     31  C   UNL     1      34.383 -15.089 -23.916  0.00  0.00    +0.131 C 
ATOM     32  C   UNL     1      34.167 -14.661 -21.609  0.00  0.00    +0.231 C 
ATOM     33  C   UNL     1      33.896 -12.999 -23.105  0.00  0.00    +0.207 C 
ATOM     34  H   UNL     1      34.017 -14.489 -19.529  0.00  0.00    +0.145 HD
ATOM     35  H   UNL     1      34.380 -16.065 -20.071  0.00  0.00    +0.145 HD
ATOM     36  H   UNL     1      33.609 -11.325 -24.316  0.00  0.00    +0.156 HD
ATOM     37  H   UNL     1      33.450 -11.013 -22.647  0.00  0.00    +0.156 HD
ENDBRANCH  21  28
ENDBRANCH   1  21
TORSDOF 6
ENDMDL
MODEL 4
REMARK VINA RESULT:     -11.4      1.608      3.107
REMARK  Name = 23629645
REMARK  6 active torsions:
REMARK  status: ('A' for Active; 'I' for Inactive)
REMARK    1  A    between atoms: N_1  and  C_6
REMARK    2  A    between atoms: N_1  and  C_21
REMARK    3  A    between atoms: C_3  and  C_16
REMARK    4  A    between atoms: C_11  and  C_18
REMARK    5  A    between atoms: C_18  and  O_19
REMARK    6  A    between atoms: C_21  and  C_28
REMARK                            x       y       z     vdW  Elec       q    Type
REMARK                         _______ _______ _______ _____ _____    ______ ____
ROOT
ATOM      1  N   UNL     1      34.240 -20.818 -19.915  0.00  0.00    -0.300 N 
ATOM      2  C   UNL     1      32.987 -20.483 -20.562  0.00  0.00    +0.113 C 
ENDROOT
BRANCH   1   6
ATOM      3  C   UNL     1      34.274 -23.173 -16.442  0.00  0.00    +0.054 C 
ATOM      4  C   UNL     1      33.070 -22.916 -17.094  0.00  0.00    +0.006 C 
ATOM      5  C   UNL     1      35.466 -22.651 -16.937  0.00  0.00    +0.006 C 
ATOM      6  C   UNL     1      34.251 -21.610 -18.747  0.00  0.00    +0.048 C 
ATOM      7  C   UNL     1      33.058 -22.134 -18.249  0.00  0.00    +0.015 C 
ATOM      8  C   UNL     1      35.455 -21.868 -18.091  0.00  0.00    +0.015 C 
BRANCH   3  16
ATOM      9  O   UNL     1      33.187 -24.302 -14.768  0.00  0.00    -0.270 OA
ATOM     10  N   UNL     1      35.522 -24.354 -14.684  0.00  0.00    -0.276 N 
ATOM     11  C   UNL     1      37.740 -24.014 -12.845  0.00  0.00    +0.102 C 
ATOM     12  C   UNL     1      36.361 -24.497 -12.380  0.00  0.00    +0.033 C 
ATOM     13  C   UNL     1      37.671 -23.261 -14.179  0.00  0.00    +0.033 C 
ATOM     14  C   UNL     1      35.575 -25.193 -13.491  0.00  0.00    +0.094 C 
ATOM     15  C   UNL     1      36.835 -23.989 -15.230  0.00  0.00    +0.094 C 
ATOM     16  C   UNL     1      34.286 -23.996 -15.226  0.00  0.00    +0.249 C 
BRANCH  11  18
ATOM     17  O   UNL     1      38.481 -26.269 -12.431  0.00  0.00    -0.250 OA
ATOM     18  C   UNL     1      38.693 -25.170 -12.925  0.00  0.00    +0.317 C 
BRANCH  18  19
ATOM     19  O   UNL     1      39.804 -24.797 -13.622  0.00  0.00    -0.444 OA
ATOM     20  C   UNL     1      40.356 -25.799 -14.482  0.00  0.00    +0.256 C 
ENDBRANCH  18  19
ENDBRANCH  11  18
ENDBRANCH   3  16
ENDBRANCH   1   6
BRANCH   1  21
ATOM     21  C   UNL     1      35.480 -20.318 -20.474  0.00  0.00    +0.148 C 
BRANCH  21  28
ATOM     22  N   UNL     1      35.013 -17.982 -20.927  0.00  0.00    -0.392 NA
ATOM     23  N   UNL     1      35.063 -18.418 -23.659  0.00  0.00    -0.200 NA
ATOM     24  N   UNL     1      34.615 -16.178 -24.039  0.00  0.00    -0.271 NA
ATOM     25  N   UNL     1      34.338 -14.649 -22.213  0.00  0.00    -0.310 NA
ATOM     26  N   UNL     1      34.523 -15.435 -19.993  0.00  0.00    -0.329 N 
ATOM     27  N   UNL     1      34.163 -13.908 -24.428  0.00  0.00    -0.283 N 
ATOM     28  C   UNL     1      35.245 -19.190 -21.443  0.00  0.00    +0.133 C 
ATOM     29  C   UNL     1      35.272 -19.418 -22.782  0.00  0.00    +0.193 C 
ATOM     30  C   UNL     1      34.804 -16.983 -21.805  0.00  0.00    +0.248 C 
ATOM     31  C   UNL     1      34.826 -17.188 -23.187  0.00  0.00    +0.131 C 
ATOM     32  C   UNL     1      34.555 -15.689 -21.389  0.00  0.00    +0.231 C 
ATOM     33  C   UNL     1      34.382 -14.961 -23.513  0.00  0.00    +0.207 C 
ATOM     34  H   UNL     1      34.348 -14.524 -19.662  0.00  0.00    +0.145 HD
ATOM     35  H   UNL     1      34.677 -16.169 -19.355  0.00  0.00    +0.145 HD
ATOM     36  H   UNL     1      34.185 -14.085 -25.396  0.00  0.00    +0.156 HD
ATOM     37  H   UNL     1      33.986 -12.998 -24.097  0.00  0.00    +0.156 HD
ENDBRANCH  21  28
ENDBRANCH   1  21
TORSDOF 6
ENDMDL
MODEL 5
REMARK VINA RESULT:     -11.1      9.225     15.052
REMARK  Name = 23629645
REMARK  6 active torsions:
REMARK  status: ('A' for Active; 'I' for Inactive)
REMARK    1  A    between atoms: N_1  and  C_6
REMARK    2  A    between atoms: N_1  and  C_21
REMARK    3  A    between atoms: C_3  and  C_16
REMARK    4  A    between atoms: C_11  and  C_18
REMARK    5  A    between atoms: C_18  and  O_19
REMARK    6  A    between atoms: C_21  and  C_28
REMARK                            x       y       z     vdW  Elec       q    Type
REMARK                         _______ _______ _______ _____ _____    ______ ____
ROOT
ATOM      1  N   UNL     1      31.778  -9.958 -20.358  0.00  0.00    -0.300 N 
ATOM      2  C   UNL     1      32.638 -10.118 -19.204  0.00  0.00    +0.113 C 
ENDROOT
BRANCH   1   6
ATOM      3  C   UNL     1      31.480  -6.244 -22.288  0.00  0.00    +0.054 C 
ATOM      4  C   UNL     1      31.939  -6.308 -20.975  0.00  0.00    +0.006 C 
ATOM      5  C   UNL     1      31.118  -7.406 -22.963  0.00  0.00    +0.006 C 
ATOM      6  C   UNL     1      31.678  -8.709 -21.007  0.00  0.00    +0.048 C 
ATOM      7  C   UNL     1      32.038  -7.542 -20.333  0.00  0.00    +0.015 C 
ATOM      8  C   UNL     1      31.217  -8.641 -22.322  0.00  0.00    +0.015 C 
BRANCH   3  16
ATOM      9  O   UNL     1      30.407  -4.250 -22.655  0.00  0.00    -0.270 OA
ATOM     10  N   UNL     1      32.356  -4.604 -23.895  0.00  0.00    -0.276 N 
ATOM     11  C   UNL     1      33.404  -4.394 -26.592  0.00  0.00    +0.102 C 
ATOM     12  C   UNL     1      32.272  -3.494 -26.085  0.00  0.00    +0.033 C 
ATOM     13  C   UNL     1      33.534  -5.682 -25.771  0.00  0.00    +0.033 C 
ATOM     14  C   UNL     1      32.300  -3.309 -24.568  0.00  0.00    +0.094 C 
ATOM     15  C   UNL     1      33.511  -5.431 -24.264  0.00  0.00    +0.094 C 
ATOM     16  C   UNL     1      31.374  -4.944 -22.963  0.00  0.00    +0.249 C 
BRANCH  11  18
ATOM     17  O   UNL     1      34.776  -2.413 -26.635  0.00  0.00    -0.250 OA
ATOM     18  C   UNL     1      34.699  -3.634 -26.614  0.00  0.00    +0.317 C 
BRANCH  18  19
ATOM     19  O   UNL     1      35.742  -4.511 -26.608  0.00  0.00    -0.444 OA
ATOM     20  C   UNL     1      36.452  -4.632 -27.845  0.00  0.00    +0.256 C 
ENDBRANCH  18  19
ENDBRANCH  11  18
ENDBRANCH   3  16
ENDBRANCH   1   6
BRANCH   1  21
ATOM     21  C   UNL     1      31.010 -11.093 -20.830  0.00  0.00    +0.148 C 
BRANCH  21  28
ATOM     22  N   UNL     1      32.585 -12.327 -22.199  0.00  0.00    -0.392 NA
ATOM     23  N   UNL     1      32.697 -14.388 -20.356  0.00  0.00    -0.200 NA
ATOM     24  N   UNL     1      34.200 -15.527 -21.700  0.00  0.00    -0.271 NA
ATOM     25  N   UNL     1      34.926 -14.608 -23.792  0.00  0.00    -0.310 NA
ATOM     26  N   UNL     1      34.099 -12.510 -24.496  0.00  0.00    -0.329 N 
ATOM     27  N   UNL     1      35.725 -16.684 -23.059  0.00  0.00    -0.283 N 
ATOM     28  C   UNL     1      31.879 -12.299 -21.068  0.00  0.00    +0.133 C 
ATOM     29  C   UNL     1      31.923 -13.304 -20.155  0.00  0.00    +0.193 C 
ATOM     30  C   UNL     1      33.359 -13.412 -22.399  0.00  0.00    +0.248 C 
ATOM     31  C   UNL     1      33.424 -14.460 -21.478  0.00  0.00    +0.131 C 
ATOM     32  C   UNL     1      34.135 -13.552 -23.533  0.00  0.00    +0.231 C 
ATOM     33  C   UNL     1      34.911 -15.550 -22.842  0.00  0.00    +0.207 C 
ATOM     34  H   UNL     1      34.640 -12.579 -25.316  0.00  0.00    +0.145 HD
ATOM     35  H   UNL     1      33.533 -11.719 -24.345  0.00  0.00    +0.145 HD
ATOM     36  H   UNL     1      35.749 -17.406 -22.390  0.00  0.00    +0.156 HD
ATOM     37  H   UNL     1      36.265 -16.753 -23.879  0.00  0.00    +0.156 HD
ENDBRANCH  21  28
ENDBRANCH   1  21
TORSDOF 6
ENDMDL
MODEL 6
REMARK VINA RESULT:     -10.9      9.142     15.465
REMARK  Name = 23629645
REMARK  6 active torsions:
REMARK  status: ('A' for Active; 'I' for Inactive)
REMARK    1  A    between atoms: N_1  and  C_6
REMARK    2  A    between atoms: N_1  and  C_21
REMARK    3  A    between atoms: C_3  and  C_16
REMARK    4  A    between atoms: C_11  and  C_18
REMARK    5  A    between atoms: C_18  and  O_19
REMARK    6  A    between atoms: C_21  and  C_28
REMARK                            x       y       z     vdW  Elec       q    Type
REMARK                         _______ _______ _______ _____ _____    ______ ____
ROOT
ATOM      1  N   UNL     1      31.753  -9.568 -20.692  0.00  0.00    -0.300 N 
ATOM      2  C   UNL     1      32.471  -9.690 -19.440  0.00  0.00    +0.113 C 
ENDROOT
BRANCH   1   6
ATOM      3  C   UNL     1      31.501  -5.864 -22.646  0.00  0.00    +0.054 C 
ATOM      4  C   UNL     1      32.037  -5.936 -21.363  0.00  0.00    +0.006 C 
ATOM      5  C   UNL     1      31.048  -7.016 -23.284  0.00  0.00    +0.006 C 
ATOM      6  C   UNL     1      31.669  -8.322 -21.349  0.00  0.00    +0.048 C 
ATOM      7  C   UNL     1      32.121  -7.167 -20.713  0.00  0.00    +0.015 C 
ATOM      8  C   UNL     1      31.132  -8.247 -22.635  0.00  0.00    +0.015 C 
BRANCH   3  16
ATOM      9  O   UNL     1      30.441  -3.869 -23.044  0.00  0.00    -0.270 OA
ATOM     10  N   UNL     1      32.413  -4.234 -24.245  0.00  0.00    -0.276 N 
ATOM     11  C   UNL     1      33.514  -4.040 -26.922  0.00  0.00    +0.102 C 
ATOM     12  C   UNL     1      32.374  -3.135 -26.441  0.00  0.00    +0.033 C 
ATOM     13  C   UNL     1      33.624  -5.325 -26.092  0.00  0.00    +0.033 C 
ATOM     14  C   UNL     1      32.373  -2.943 -24.925  0.00  0.00    +0.094 C 
ATOM     15  C   UNL     1      33.573  -5.066 -24.587  0.00  0.00    +0.094 C 
ATOM     16  C   UNL     1      31.412  -4.567 -23.330  0.00  0.00    +0.249 C 
BRANCH  11  18
ATOM     17  O   UNL     1      34.893  -2.066 -26.845  0.00  0.00    -0.250 OA
ATOM     18  C   UNL     1      34.810  -3.284 -26.922  0.00  0.00    +0.317 C 
BRANCH  18  19
ATOM     19  O   UNL     1      35.850  -4.161 -27.022  0.00  0.00    -0.444 OA
ATOM     20  C   UNL     1      36.369  -4.351 -28.342  0.00  0.00    +0.256 C 
ENDBRANCH  18  19
ENDBRANCH  11  18
ENDBRANCH   3  16
ENDBRANCH   1   6
BRANCH   1  21
ATOM     21  C   UNL     1      31.110 -10.739 -21.255  0.00  0.00    +0.148 C 
BRANCH  21  28
ATOM     22  N   UNL     1      32.207 -12.894 -21.081  0.00  0.00    -0.392 NA
ATOM     23  N   UNL     1      33.779 -12.363 -23.296  0.00  0.00    -0.200 NA
ATOM     24  N   UNL     1      34.798 -14.433 -23.087  0.00  0.00    -0.271 NA
ATOM     25  N   UNL     1      34.177 -15.940 -21.329  0.00  0.00    -0.310 NA
ATOM     26  N   UNL     1      32.503 -15.310 -19.786  0.00  0.00    -0.329 N 
ATOM     27  N   UNL     1      35.831 -16.530 -22.879  0.00  0.00    -0.283 N 
ATOM     28  C   UNL     1      32.113 -11.746 -21.753  0.00  0.00    +0.133 C 
ATOM     29  C   UNL     1      32.878 -11.472 -22.841  0.00  0.00    +0.193 C 
ATOM     30  C   UNL     1      33.109 -13.785 -21.538  0.00  0.00    +0.248 C 
ATOM     31  C   UNL     1      33.909 -13.531 -22.654  0.00  0.00    +0.131 C 
ATOM     32  C   UNL     1      33.295 -15.009 -20.925  0.00  0.00    +0.231 C 
ATOM     33  C   UNL     1      34.889 -15.590 -22.407  0.00  0.00    +0.207 C 
ATOM     34  H   UNL     1      32.611 -16.174 -19.326  0.00  0.00    +0.145 HD
ATOM     35  H   UNL     1      31.845 -14.656 -19.457  0.00  0.00    +0.145 HD
ATOM     36  H   UNL     1      36.381 -16.320 -23.669  0.00  0.00    +0.156 HD
ATOM     37  H   UNL     1      35.940 -17.392 -22.418  0.00  0.00    +0.156 HD
ENDBRANCH  21  28
ENDBRANCH   1  21
TORSDOF 6
ENDMDL
MODEL 7
REMARK VINA RESULT:     -10.7      1.794      2.714
REMARK  Name = 23629645
REMARK  6 active torsions:
REMARK  status: ('A' for Active; 'I' for Inactive)
REMARK    1  A    between atoms: N_1  and  C_6
REMARK    2  A    between atoms: N_1  and  C_21
REMARK    3  A    between atoms: C_3  and  C_16
REMARK    4  A    between atoms: C_11  and  C_18
REMARK    5  A    between atoms: C_18  and  O_19
REMARK    6  A    between atoms: C_21  and  C_28
REMARK                            x       y       z     vdW  Elec       q    Type
REMARK                         _______ _______ _______ _____ _____    ______ ____
ROOT
ATOM      1  N   UNL     1      34.568 -20.357 -20.659  0.00  0.00    -0.300 N 
ATOM      2  C   UNL     1      33.120 -20.353 -20.710  0.00  0.00    +0.113 C 
ENDROOT
BRANCH   1   6
ATOM      3  C   UNL     1      36.575 -22.035 -17.379  0.00  0.00    +0.054 C 
ATOM      4  C   UNL     1      35.259 -22.402 -17.648  0.00  0.00    +0.006 C 
ATOM      5  C   UNL     1      37.228 -21.113 -18.193  0.00  0.00    +0.006 C 
ATOM      6  C   UNL     1      35.243 -20.921 -19.556  0.00  0.00    +0.048 C 
ATOM      7  C   UNL     1      34.592 -21.844 -18.738  0.00  0.00    +0.015 C 
ATOM      8  C   UNL     1      36.561 -20.555 -19.283  0.00  0.00    +0.015 C 
BRANCH   3  16
ATOM      9  O   UNL     1      38.500 -22.703 -16.326  0.00  0.00    -0.270 OA
ATOM     10  N   UNL     1      36.516 -23.044 -15.138  0.00  0.00    -0.276 N 
ATOM     11  C   UNL     1      35.115 -25.051 -13.580  0.00  0.00    +0.102 C 
ATOM     12  C   UNL     1      36.645 -25.009 -13.669  0.00  0.00    +0.033 C 
ATOM     13  C   UNL     1      34.445 -24.321 -14.751  0.00  0.00    +0.033 C 
ATOM     14  C   UNL     1      37.181 -23.608 -13.967  0.00  0.00    +0.094 C 
ATOM     15  C   UNL     1      35.056 -22.947 -15.022  0.00  0.00    +0.094 C 
ATOM     16  C   UNL     1      37.277 -22.621 -16.230  0.00  0.00    +0.249 C 
BRANCH  11  18
ATOM     17  O   UNL     1      33.805 -23.626 -12.145  0.00  0.00    -0.250 OA
ATOM     18  C   UNL     1      34.659 -24.494 -12.263  0.00  0.00    +0.317 C 
BRANCH  18  19
ATOM     19  O   UNL     1      35.338 -25.104 -11.250  0.00  0.00    -0.444 OA
ATOM     20  C   UNL     1      35.790 -24.238 -10.204  0.00  0.00    +0.256 C 
ENDBRANCH  18  19
ENDBRANCH  11  18
ENDBRANCH   3  16
ENDBRANCH   1   6
BRANCH   1  21
ATOM     21  C   UNL     1      35.315 -19.761 -21.749  0.00  0.00    +0.148 C 
BRANCH  21  28
ATOM     22  N   UNL     1      34.936 -17.752 -23.053  0.00  0.00    -0.392 NA
ATOM     23  N   UNL     1      34.861 -16.188 -20.771  0.00  0.00    -0.200 NA
ATOM     24  N   UNL     1      34.501 -14.299 -22.061  0.00  0.00    -0.271 NA
ATOM     25  N   UNL     1      34.362 -14.445 -24.450  0.00  0.00    -0.310 NA
ATOM     26  N   UNL     1      34.596 -16.545 -25.508  0.00  0.00    -0.329 N 
ATOM     27  N   UNL     1      34.134 -12.382 -23.366  0.00  0.00    -0.283 N 
ATOM     28  C   UNL     1      35.093 -18.274 -21.836  0.00  0.00    +0.133 C 
ATOM     29  C   UNL     1      35.059 -17.518 -20.707  0.00  0.00    +0.193 C 
ATOM     30  C   UNL     1      34.738 -16.421 -23.115  0.00  0.00    +0.248 C 
ATOM     31  C   UNL     1      34.698 -15.619 -21.973  0.00  0.00    +0.131 C 
ATOM     32  C   UNL     1      34.562 -15.768 -24.320  0.00  0.00    +0.231 C 
ATOM     33  C   UNL     1      34.343 -13.776 -23.292  0.00  0.00    +0.207 C 
ATOM     34  H   UNL     1      34.474 -16.110 -26.383  0.00  0.00    +0.145 HD
ATOM     35  H   UNL     1      34.740 -17.517 -25.456  0.00  0.00    +0.145 HD
ATOM     36  H   UNL     1      34.111 -11.844 -22.541  0.00  0.00    +0.156 HD
ATOM     37  H   UNL     1      34.014 -11.948 -24.241  0.00  0.00    +0.156 HD
ENDBRANCH  21  28
ENDBRANCH   1  21
TORSDOF 6
ENDMDL
MODEL 8
REMARK VINA RESULT:     -10.6      4.410      8.736
REMARK  Name = 23629645
REMARK  6 active torsions:
REMARK  status: ('A' for Active; 'I' for Inactive)
REMARK    1  A    between atoms: N_1  and  C_6
REMARK    2  A    between atoms: N_1  and  C_21
REMARK    3  A    between atoms: C_3  and  C_16
REMARK    4  A    between atoms: C_11  and  C_18
REMARK    5  A    between atoms: C_18  and  O_19
REMARK    6  A    between atoms: C_21  and  C_28
REMARK                            x       y       z     vdW  Elec       q    Type
REMARK                         _______ _______ _______ _____ _____    ______ ____
ROOT
ATOM      1  N   UNL     1      31.741 -10.937 -20.834  0.00  0.00    -0.300 N 
ATOM      2  C   UNL     1      30.372 -11.015 -20.366  0.00  0.00    +0.113 C 
ENDROOT
BRANCH   1   6
ATOM      3  C   UNL     1      33.446 -14.128 -22.959  0.00  0.00    +0.054 C 
ATOM      4  C   UNL     1      33.510 -12.837 -23.477  0.00  0.00    +0.006 C 
ATOM      5  C   UNL     1      32.818 -14.365 -21.739  0.00  0.00    +0.006 C 
ATOM      6  C   UNL     1      32.315 -12.010 -21.549  0.00  0.00    +0.048 C 
ATOM      7  C   UNL     1      32.944 -11.776 -22.771  0.00  0.00    +0.015 C 
ATOM      8  C   UNL     1      32.251 -13.305 -21.032  0.00  0.00    +0.015 C 
BRANCH   3  16
ATOM      9  O   UNL     1      33.815 -15.274 -24.912  0.00  0.00    -0.270 OA
ATOM     10  N   UNL     1      34.798 -16.181 -22.995  0.00  0.00    -0.276 N 
ATOM     11  C   UNL     1      35.156 -18.697 -21.596  0.00  0.00    +0.102 C 
ATOM     12  C   UNL     1      34.976 -18.627 -23.117  0.00  0.00    +0.033 C 
ATOM     13  C   UNL     1      34.616 -17.448 -20.890  0.00  0.00    +0.033 C 
ATOM     14  C   UNL     1      35.428 -17.290 -23.704  0.00  0.00    +0.094 C 
ATOM     15  C   UNL     1      35.070 -16.148 -21.553  0.00  0.00    +0.094 C 
ATOM     16  C   UNL     1      34.041 -15.245 -23.704  0.00  0.00    +0.249 C 
BRANCH  11  18
ATOM     17  O   UNL     1      37.535 -18.547 -21.946  0.00  0.00    -0.250 OA
ATOM     18  C   UNL     1      36.600 -18.929 -21.257  0.00  0.00    +0.317 C 
BRANCH  18  19
ATOM     19  O   UNL     1      36.687 -19.618 -20.083  0.00  0.00    -0.444 OA
ATOM     20  C   UNL     1      35.899 -20.811 -20.011  0.00  0.00    +0.256 C 
ENDBRANCH  18  19
ENDBRANCH  11  18
ENDBRANCH   3  16
ENDBRANCH   1   6
BRANCH   1  21
ATOM     21  C   UNL     1      32.519  -9.748 -20.547  0.00  0.00    +0.148 C 
BRANCH  21  28
ATOM     22  N   UNL     1      33.582  -8.242 -22.123  0.00  0.00    -0.392 NA
ATOM     23  N   UNL     1      31.134  -7.462 -23.153  0.00  0.00    -0.200 NA
ATOM     24  N   UNL     1      32.196  -6.039 -24.638  0.00  0.00    -0.271 NA
ATOM     25  N   UNL     1      34.587  -5.853 -24.673  0.00  0.00    -0.310 NA
ATOM     26  N   UNL     1      35.880  -7.139 -23.171  0.00  0.00    -0.329 N 
ATOM     27  N   UNL     1      33.270  -4.596 -26.146  0.00  0.00    -0.283 N 
ATOM     28  C   UNL     1      32.433  -8.738 -21.661  0.00  0.00    +0.133 C 
ATOM     29  C   UNL     1      31.225  -8.364 -22.156  0.00  0.00    +0.193 C 
ATOM     30  C   UNL     1      33.489  -7.341 -23.120  0.00  0.00    +0.248 C 
ATOM     31  C   UNL     1      32.261  -6.937 -23.648  0.00  0.00    +0.131 C 
ATOM     32  C   UNL     1      34.611  -6.759 -23.679  0.00  0.00    +0.231 C 
ATOM     33  C   UNL     1      33.358  -5.542 -25.102  0.00  0.00    +0.207 C 
ATOM     34  H   UNL     1      36.699  -6.743 -23.548  0.00  0.00    +0.145 HD
ATOM     35  H   UNL     1      35.942  -7.799 -22.444  0.00  0.00    +0.145 HD
ATOM     36  H   UNL     1      32.389  -4.332 -26.498  0.00  0.00    +0.156 HD
ATOM     37  H   UNL     1      34.089  -4.199 -26.521  0.00  0.00    +0.156 HD
ENDBRANCH  21  28
ENDBRANCH   1  21
TORSDOF 6
ENDMDL
MODEL 9
REMARK VINA RESULT:     -10.3      4.748      8.666
REMARK  Name = 23629645
REMARK  6 active torsions:
REMARK  status: ('A' for Active; 'I' for Inactive)
REMARK    1  A    between atoms: N_1  and  C_6
REMARK    2  A    between atoms: N_1  and  C_21
REMARK    3  A    between atoms: C_3  and  C_16
REMARK    4  A    between atoms: C_11  and  C_18
REMARK    5  A    between atoms: C_18  and  O_19
REMARK    6  A    between atoms: C_21  and  C_28
REMARK                            x       y       z     vdW  Elec       q    Type
REMARK                         _______ _______ _______ _____ _____    ______ ____
ROOT
ATOM      1  N   UNL     1      31.580 -11.343 -20.452  0.00  0.00    -0.300 N 
ATOM      2  C   UNL     1      30.145 -11.161 -20.535  0.00  0.00    +0.113 C 
ENDROOT
BRANCH   1   6
ATOM      3  C   UNL     1      33.474 -14.350 -22.682  0.00  0.00    +0.054 C 
ATOM      4  C   UNL     1      33.383 -13.059 -23.196  0.00  0.00    +0.006 C 
ATOM      5  C   UNL     1      32.938 -14.648 -21.432  0.00  0.00    +0.006 C 
ATOM      6  C   UNL     1      32.217 -12.354 -21.202  0.00  0.00    +0.048 C 
ATOM      7  C   UNL     1      32.754 -12.059 -22.455  0.00  0.00    +0.015 C 
ATOM      8  C   UNL     1      32.309 -13.649 -20.690  0.00  0.00    +0.015 C 
BRANCH   3  16
ATOM      9  O   UNL     1      33.948 -15.376 -24.678  0.00  0.00    -0.270 OA
ATOM     10  N   UNL     1      34.906 -16.346 -22.779  0.00  0.00    -0.276 N 
ATOM     11  C   UNL     1      35.318 -18.918 -21.501  0.00  0.00    +0.102 C 
ATOM     12  C   UNL     1      35.182 -18.775 -23.022  0.00  0.00    +0.033 C 
ATOM     13  C   UNL     1      34.707 -17.729 -20.750  0.00  0.00    +0.033 C 
ATOM     14  C   UNL     1      35.600 -17.392 -23.523  0.00  0.00    +0.094 C 
ATOM     15  C   UNL     1      35.130 -16.380 -21.329  0.00  0.00    +0.094 C 
ATOM     16  C   UNL     1      34.136 -15.403 -23.463  0.00  0.00    +0.249 C 
BRANCH  11  18
ATOM     17  O   UNL     1      37.700 -18.706 -21.791  0.00  0.00    -0.250 OA
ATOM     18  C   UNL     1      36.758 -19.113 -21.126  0.00  0.00    +0.317 C 
BRANCH  18  19
ATOM     19  O   UNL     1      36.833 -19.802 -19.952  0.00  0.00    -0.444 OA
ATOM     20  C   UNL     1      36.074 -21.014 -19.900  0.00  0.00    +0.256 C 
ENDBRANCH  18  19
ENDBRANCH  11  18
ENDBRANCH   3  16
ENDBRANCH   1   6
BRANCH   1  21
ATOM     21  C   UNL     1      32.352 -10.481 -19.578  0.00  0.00    +0.148 C 
BRANCH  21  28
ATOM     22  N   UNL     1      31.829  -8.799 -21.244  0.00  0.00    -0.392 NA
ATOM     23  N   UNL     1      32.696  -6.765 -19.579  0.00  0.00    -0.200 NA
ATOM     24  N   UNL     1      32.180  -5.197 -21.203  0.00  0.00    -0.271 NA
ATOM     25  N   UNL     1      31.259  -5.864 -23.313  0.00  0.00    -0.310 NA
ATOM     26  N   UNL     1      30.869  -8.154 -23.746  0.00  0.00    -0.329 N 
ATOM     27  N   UNL     1      31.657  -3.604 -22.847  0.00  0.00    -0.283 N 
ATOM     28  C   UNL     1      32.304  -9.043 -20.022  0.00  0.00    +0.133 C 
ATOM     29  C   UNL     1      32.733  -8.055 -19.194  0.00  0.00    +0.193 C 
ATOM     30  C   UNL     1      31.792  -7.508 -21.627  0.00  0.00    +0.248 C 
ATOM     31  C   UNL     1      32.226  -6.471 -20.798  0.00  0.00    +0.131 C 
ATOM     32  C   UNL     1      31.320  -7.132 -22.870  0.00  0.00    +0.231 C 
ATOM     33  C   UNL     1      31.700  -4.955 -22.437  0.00  0.00    +0.207 C 
ATOM     34  H   UNL     1      30.527  -7.920 -24.640  0.00  0.00    +0.145 HD
ATOM     35  H   UNL     1      30.898  -9.095 -23.461  0.00  0.00    +0.145 HD
ATOM     36  H   UNL     1      31.971  -2.896 -22.238  0.00  0.00    +0.156 HD
ATOM     37  H   UNL     1      31.317  -3.372 -23.740  0.00  0.00    +0.156 HD
ENDBRANCH  21  28
ENDBRANCH   1  21
TORSDOF 6
ENDMDL
