MODEL 1
REMARK VINA RESULT:     -11.9      0.000      0.000
REMARK  Name = 154000
REMARK  7 active torsions:
REMARK  status: ('A' for Active; 'I' for Inactive)
REMARK    1  A    between atoms: O_1  and  C_5
REMARK    2  A    between atoms: O_1  and  C_17
REMARK    3  A    between atoms: C_2  and  C_8
REMARK    4  A    between atoms: C_8  and  C_13
REMARK    5  A    between atoms: C_17  and  C_18
REMARK    6  A    between atoms: C_18  and  C_21
REMARK    7  A    between atoms: C_23  and  C_25
REMARK                            x       y       z     vdW  Elec       q    Type
REMARK                         _______ _______ _______ _____ _____    ______ ____
ROOT
ATOM      1  O   UNL     1      35.905 -19.014 -21.341  0.00  0.00    -0.475 OA
ENDROOT
BRANCH   1   5
ATOM      2  C   UNL     1      34.214 -22.000 -19.037  0.00  0.00    -0.021 C 
ATOM      3  C   UNL     1      33.390 -21.113 -19.714  0.00  0.00    -0.001 C 
ATOM      4  C   UNL     1      35.595 -21.903 -19.119  0.00  0.00    -0.001 C 
ATOM      5  C   UNL     1      35.348 -19.997 -20.582  0.00  0.00    +0.139 C 
ATOM      6  C   UNL     1      33.960 -20.105 -20.491  0.00  0.00    +0.037 C 
ATOM      7  C   UNL     1      36.165 -20.895 -19.896  0.00  0.00    +0.037 C 
BRANCH   2   8
ATOM      8  C   UNL     1      33.597 -23.089 -18.196  0.00  0.00    +0.047 C 
BRANCH   8  13
ATOM      9  O   UNL     1      32.067 -23.765 -15.189  0.00  0.00    -0.346 OA
ATOM     10  O   UNL     1      35.474 -23.347 -15.835  0.00  0.00    -0.272 OA
ATOM     11  O   UNL     1      30.912 -22.652 -16.833  0.00  0.00    -0.247 OA
ATOM     12  N   UNL     1      33.432 -23.969 -14.900  0.00  0.00    -0.144 N 
ATOM     13  C   UNL     1      33.350 -22.633 -16.770  0.00  0.00    +0.184 C 
ATOM     14  C   UNL     1      34.253 -23.342 -15.807  0.00  0.00    +0.264 C 
ATOM     15  C   UNL     1      31.961 -22.991 -16.310  0.00  0.00    +0.348 C 
ATOM     16  H   UNL     1      33.759 -24.499 -14.137  0.00  0.00    +0.196 HD
ENDBRANCH   8  13
ENDBRANCH   2   8
ENDBRANCH   1   5
BRANCH   1  17
ATOM     17  C   UNL     1      35.258 -17.741 -21.332  0.00  0.00    +0.213 C 
BRANCH  17  18
ATOM     18  C   UNL     1      35.355 -17.104 -22.715  0.00  0.00    +0.105 C 
BRANCH  18  21
ATOM     19  O   UNL     1      33.319 -14.211 -23.614  0.00  0.00    -0.449 OA
ATOM     20  N   UNL     1      34.126 -15.192 -21.742  0.00  0.00    -0.373 NA
ATOM     21  C   UNL     1      34.507 -15.872 -22.850  0.00  0.00    +0.134 C 
ATOM     22  C   UNL     1      34.038 -15.307 -23.986  0.00  0.00    +0.216 C 
ATOM     23  C   UNL     1      33.420 -14.210 -22.257  0.00  0.00    +0.277 C 
ATOM     24  C   UNL     1      34.126 -15.592 -25.423  0.00  0.00    +0.055 C 
BRANCH  23  25
ATOM     25  C   UNL     1      32.736 -13.134 -21.594  0.00  0.00    +0.066 C 
ATOM     26  C   UNL     1      32.437 -11.957 -22.286  0.00  0.00    +0.006 C 
ATOM     27  C   UNL     1      32.367 -13.258 -20.252  0.00  0.00    +0.006 C 
ATOM     28  C   UNL     1      31.775 -10.913 -21.641  0.00  0.00    +0.000 C 
ATOM     29  C   UNL     1      31.704 -12.214 -19.607  0.00  0.00    +0.000 C 
ATOM     30  C   UNL     1      31.408 -11.041 -20.301  0.00  0.00    +0.000 C 
ENDBRANCH  23  25
ENDBRANCH  18  21
ENDBRANCH  17  18
ENDBRANCH   1  17
TORSDOF 7
ENDMDL
MODEL 2
REMARK VINA RESULT:     -11.5      3.025      5.033
REMARK  Name = 154000
REMARK  7 active torsions:
REMARK  status: ('A' for Active; 'I' for Inactive)
REMARK    1  A    between atoms: O_1  and  C_5
REMARK    2  A    between atoms: O_1  and  C_17
REMARK    3  A    between atoms: C_2  and  C_8
REMARK    4  A    between atoms: C_8  and  C_13
REMARK    5  A    between atoms: C_17  and  C_18
REMARK    6  A    between atoms: C_18  and  C_21
REMARK    7  A    between atoms: C_23  and  C_25
REMARK                            x       y       z     vdW  Elec       q    Type
REMARK                         _______ _______ _______ _____ _____    ______ ____
ROOT
ATOM      1  O   UNL     1      34.919 -14.759 -23.251  0.00  0.00    -0.475 OA
ENDROOT
BRANCH   1   5
ATOM      2  C   UNL     1      35.030 -18.723 -22.085  0.00  0.00    -0.021 C 
ATOM      3  C   UNL     1      35.018 -18.411 -23.437  0.00  0.00    -0.001 C 
ATOM      4  C   UNL     1      35.005 -17.730 -21.118  0.00  0.00    -0.001 C 
ATOM      5  C   UNL     1      34.955 -16.065 -22.868  0.00  0.00    +0.139 C 
ATOM      6  C   UNL     1      34.981 -17.074 -23.830  0.00  0.00    +0.037 C 
ATOM      7  C   UNL     1      34.967 -16.393 -21.512  0.00  0.00    +0.037 C 
BRANCH   2   8
ATOM      8  C   UNL     1      35.069 -20.170 -21.660  0.00  0.00    +0.047 C 
BRANCH   8  13
ATOM      9  O   UNL     1      33.601 -22.075 -19.200  0.00  0.00    -0.346 OA
ATOM     10  O   UNL     1      36.970 -21.228 -19.557  0.00  0.00    -0.272 OA
ATOM     11  O   UNL     1      32.368 -20.474 -20.293  0.00  0.00    -0.247 OA
ATOM     12  N   UNL     1      34.978 -22.293 -18.987  0.00  0.00    -0.144 N 
ATOM     13  C   UNL     1      34.800 -20.333 -20.177  0.00  0.00    +0.184 C 
ATOM     14  C   UNL     1      35.752 -21.309 -19.554  0.00  0.00    +0.264 C 
ATOM     15  C   UNL     1      33.440 -20.928 -19.925  0.00  0.00    +0.348 C 
ATOM     16  H   UNL     1      35.342 -23.061 -18.490  0.00  0.00    +0.196 HD
ENDBRANCH   8  13
ENDBRANCH   2   8
ENDBRANCH   1   5
BRANCH   1  17
ATOM     17  C   UNL     1      34.437 -13.815 -22.294  0.00  0.00    +0.213 C 
BRANCH  17  18
ATOM     18  C   UNL     1      33.034 -13.359 -22.682  0.00  0.00    +0.105 C 
BRANCH  18  21
ATOM     19  O   UNL     1      32.165  -9.918 -21.833  0.00  0.00    -0.449 OA
ATOM     20  N   UNL     1      33.514 -11.010 -23.283  0.00  0.00    -0.373 NA
ATOM     21  C   UNL     1      32.830 -11.882 -22.504  0.00  0.00    +0.134 C 
ATOM     22  C   UNL     1      32.014 -11.256 -21.626  0.00  0.00    +0.216 C 
ATOM     23  C   UNL     1      33.078  -9.852 -22.840  0.00  0.00    +0.277 C 
ATOM     24  C   UNL     1      31.072 -11.668 -20.579  0.00  0.00    +0.055 C 
BRANCH  23  25
ATOM     25  C   UNL     1      33.427  -8.524 -23.263  0.00  0.00    +0.066 C 
ATOM     26  C   UNL     1      34.761  -8.192 -23.514  0.00  0.00    +0.006 C 
ATOM     27  C   UNL     1      32.433  -7.555 -23.425  0.00  0.00    +0.006 C 
ATOM     28  C   UNL     1      35.099  -6.902 -23.922  0.00  0.00    +0.000 C 
ATOM     29  C   UNL     1      32.770  -6.265 -23.835  0.00  0.00    +0.000 C 
ATOM     30  C   UNL     1      34.103  -5.938 -24.083  0.00  0.00    +0.000 C 
ENDBRANCH  23  25
ENDBRANCH  18  21
ENDBRANCH  17  18
ENDBRANCH   1  17
TORSDOF 7
ENDMDL
MODEL 3
REMARK VINA RESULT:     -11.4      2.849     10.276
REMARK  Name = 154000
REMARK  7 active torsions:
REMARK  status: ('A' for Active; 'I' for Inactive)
REMARK    1  A    between atoms: O_1  and  C_5
REMARK    2  A    between atoms: O_1  and  C_17
REMARK    3  A    between atoms: C_2  and  C_8
REMARK    4  A    between atoms: C_8  and  C_13
REMARK    5  A    between atoms: C_17  and  C_18
REMARK    6  A    between atoms: C_18  and  C_21
REMARK    7  A    between atoms: C_23  and  C_25
REMARK                            x       y       z     vdW  Elec       q    Type
REMARK                         _______ _______ _______ _____ _____    ______ ____
ROOT
ATOM      1  O   UNL     1      37.030 -20.954 -18.883  0.00  0.00    -0.475 OA
ENDROOT
BRANCH   1   5
ATOM      2  C   UNL     1      35.384 -18.933 -22.091  0.00  0.00    -0.021 C 
ATOM      3  C   UNL     1      36.712 -18.711 -21.755  0.00  0.00    -0.001 C 
ATOM      4  C   UNL     1      34.600 -19.819 -21.370  0.00  0.00    -0.001 C 
ATOM      5  C   UNL     1      36.489 -20.288 -19.939  0.00  0.00    +0.139 C 
ATOM      6  C   UNL     1      37.268 -19.393 -20.673  0.00  0.00    +0.037 C 
ATOM      7  C   UNL     1      35.155 -20.501 -20.288  0.00  0.00    +0.037 C 
BRANCH   2   8
ATOM      8  C   UNL     1      34.784 -18.194 -23.260  0.00  0.00    +0.047 C 
BRANCH   8  13
ATOM      9  O   UNL     1      33.940 -14.992 -24.197  0.00  0.00    -0.346 OA
ATOM     10  O   UNL     1      34.573 -16.209 -20.985  0.00  0.00    -0.272 OA
ATOM     11  O   UNL     1      35.027 -16.367 -25.681  0.00  0.00    -0.247 OA
ATOM     12  N   UNL     1      33.808 -14.954 -22.793  0.00  0.00    -0.144 N 
ATOM     13  C   UNL     1      35.186 -16.732 -23.275  0.00  0.00    +0.184 C 
ATOM     14  C   UNL     1      34.506 -15.967 -22.180  0.00  0.00    +0.264 C 
ATOM     15  C   UNL     1      34.736 -16.049 -24.540  0.00  0.00    +0.348 C 
ATOM     16  H   UNL     1      33.278 -14.280 -22.309  0.00  0.00    +0.196 HD
ENDBRANCH   8  13
ENDBRANCH   2   8
ENDBRANCH   1   5
BRANCH   1  17
ATOM     17  C   UNL     1      36.164 -21.819 -18.148  0.00  0.00    +0.213 C 
BRANCH  17  18
ATOM     18  C   UNL     1      36.809 -22.181 -16.813  0.00  0.00    +0.105 C 
BRANCH  18  21
ATOM     19  O   UNL     1      34.892 -23.655 -14.079  0.00  0.00    -0.449 OA
ATOM     20  N   UNL     1      34.528 -22.893 -16.177  0.00  0.00    -0.373 NA
ATOM     21  C   UNL     1      35.833 -22.768 -15.834  0.00  0.00    +0.134 C 
ATOM     22  C   UNL     1      36.080 -23.216 -14.582  0.00  0.00    +0.216 C 
ATOM     23  C   UNL     1      34.013 -23.429 -15.093  0.00  0.00    +0.277 C 
ATOM     24  C   UNL     1      37.256 -23.327 -13.712  0.00  0.00    +0.055 C 
BRANCH  23  25
ATOM     25  C   UNL     1      32.655 -23.809 -14.821  0.00  0.00    +0.066 C 
ATOM     26  C   UNL     1      32.361 -24.647 -13.741  0.00  0.00    +0.006 C 
ATOM     27  C   UNL     1      31.619 -23.346 -15.637  0.00  0.00    +0.006 C 
ATOM     28  C   UNL     1      31.042 -25.017 -13.479  0.00  0.00    +0.000 C 
ATOM     29  C   UNL     1      30.300 -23.716 -15.375  0.00  0.00    +0.000 C 
ATOM     30  C   UNL     1      30.011 -24.552 -14.296  0.00  0.00    +0.000 C 
ENDBRANCH  23  25
ENDBRANCH  18  21
ENDBRANCH  17  18
ENDBRANCH   1  17
TORSDOF 7
ENDMDL
MODEL 4
REMARK VINA RESULT:     -11.4      2.441     10.449
REMARK  Name = 154000
REMARK  7 active torsions:
REMARK  status: ('A' for Active; 'I' for Inactive)
REMARK    1  A    between atoms: O_1  and  C_5
REMARK    2  A    between atoms: O_1  and  C_17
REMARK    3  A    between atoms: C_2  and  C_8
REMARK    4  A    between atoms: C_8  and  C_13
REMARK    5  A    between atoms: C_17  and  C_18
REMARK    6  A    between atoms: C_18  and  C_21
REMARK    7  A    between atoms: C_23  and  C_25
REMARK                            x       y       z     vdW  Elec       q    Type
REMARK                         _______ _______ _______ _____ _____    ______ ____
ROOT
ATOM      1  O   UNL     1      34.997 -20.275 -20.630  0.00  0.00    -0.475 OA
ENDROOT
BRANCH   1   5
ATOM      2  C   UNL     1      35.179 -17.073 -23.237  0.00  0.00    -0.021 C 
ATOM      3  C   UNL     1      34.953 -18.347 -23.738  0.00  0.00    -0.001 C 
ATOM      4  C   UNL     1      35.346 -16.855 -21.878  0.00  0.00    -0.001 C 
ATOM      5  C   UNL     1      35.057 -19.222 -21.489  0.00  0.00    +0.139 C 
ATOM      6  C   UNL     1      34.892 -19.428 -22.859  0.00  0.00    +0.037 C 
ATOM      7  C   UNL     1      35.285 -17.936 -20.999  0.00  0.00    +0.037 C 
BRANCH   2   8
ATOM      8  C   UNL     1      35.247 -15.905 -24.189  0.00  0.00    +0.047 C 
BRANCH   8  13
ATOM      9  O   UNL     1      33.731 -12.833 -24.512  0.00  0.00    -0.346 OA
ATOM     10  O   UNL     1      33.355 -15.653 -26.538  0.00  0.00    -0.272 OA
ATOM     11  O   UNL     1      34.413 -13.558 -22.442  0.00  0.00    -0.247 OA
ATOM     12  N   UNL     1      33.419 -13.468 -25.732  0.00  0.00    -0.144 N 
ATOM     13  C   UNL     1      33.940 -15.138 -24.239  0.00  0.00    +0.184 C 
ATOM     14  C   UNL     1      33.539 -14.834 -25.651  0.00  0.00    +0.264 C 
ATOM     15  C   UNL     1      34.070 -13.784 -23.591  0.00  0.00    +0.348 C 
ATOM     16  H   UNL     1      33.148 -12.987 -26.547  0.00  0.00    +0.196 HD
ENDBRANCH   8  13
ENDBRANCH   2   8
ENDBRANCH   1   5
BRANCH   1  17
ATOM     17  C   UNL     1      33.748 -20.516 -19.983  0.00  0.00    +0.213 C 
BRANCH  17  18
ATOM     18  C   UNL     1      33.546 -22.016 -19.792  0.00  0.00    +0.105 C 
BRANCH  18  21
ATOM     19  O   UNL     1      34.294 -22.903 -16.332  0.00  0.00    -0.449 OA
ATOM     20  N   UNL     1      32.507 -22.870 -17.718  0.00  0.00    -0.373 NA
ATOM     21  C   UNL     1      33.622 -22.436 -18.353  0.00  0.00    +0.134 C 
ATOM     22  C   UNL     1      34.708 -22.445 -17.546  0.00  0.00    +0.216 C 
ATOM     23  C   UNL     1      32.966 -23.136 -16.515  0.00  0.00    +0.277 C 
ATOM     24  C   UNL     1      36.127 -22.098 -17.680  0.00  0.00    +0.055 C 
BRANCH  23  25
ATOM     25  C   UNL     1      32.267 -23.636 -15.363  0.00  0.00    +0.066 C 
ATOM     26  C   UNL     1      30.870 -23.637 -15.332  0.00  0.00    +0.006 C 
ATOM     27  C   UNL     1      32.982 -24.122 -14.265  0.00  0.00    +0.006 C 
ATOM     28  C   UNL     1      30.194 -24.120 -14.212  0.00  0.00    +0.000 C 
ATOM     29  C   UNL     1      32.306 -24.606 -13.146  0.00  0.00    +0.000 C 
ATOM     30  C   UNL     1      30.911 -24.605 -13.119  0.00  0.00    +0.000 C 
ENDBRANCH  23  25
ENDBRANCH  18  21
ENDBRANCH  17  18
ENDBRANCH   1  17
TORSDOF 7
ENDMDL
MODEL 5
REMARK VINA RESULT:     -11.4      3.124     11.047
REMARK  Name = 154000
REMARK  7 active torsions:
REMARK  status: ('A' for Active; 'I' for Inactive)
REMARK    1  A    between atoms: O_1  and  C_5
REMARK    2  A    between atoms: O_1  and  C_17
REMARK    3  A    between atoms: C_2  and  C_8
REMARK    4  A    between atoms: C_8  and  C_13
REMARK    5  A    between atoms: C_17  and  C_18
REMARK    6  A    between atoms: C_18  and  C_21
REMARK    7  A    between atoms: C_23  and  C_25
REMARK                            x       y       z     vdW  Elec       q    Type
REMARK                         _______ _______ _______ _____ _____    ______ ____
ROOT
ATOM      1  O   UNL     1      32.761 -22.730 -18.423  0.00  0.00    -0.475 OA
ENDROOT
BRANCH   1   5
ATOM      2  C   UNL     1      34.917 -19.979 -20.629  0.00  0.00    -0.021 C 
ATOM      3  C   UNL     1      35.593 -20.949 -19.904  0.00  0.00    -0.001 C 
ATOM      4  C   UNL     1      33.532 -19.915 -20.627  0.00  0.00    -0.001 C 
ATOM      5  C   UNL     1      33.472 -21.825 -19.149  0.00  0.00    +0.139 C 
ATOM      6  C   UNL     1      34.866 -21.878 -19.159  0.00  0.00    +0.037 C 
ATOM      7  C   UNL     1      32.805 -20.843 -19.883  0.00  0.00    +0.037 C 
BRANCH   2   8
ATOM      8  C   UNL     1      35.704 -18.974 -21.433  0.00  0.00    +0.047 C 
BRANCH   8  13
ATOM      9  O   UNL     1      35.400 -15.850 -22.844  0.00  0.00    -0.346 OA
ATOM     10  O   UNL     1      35.000 -18.963 -24.377  0.00  0.00    -0.272 OA
ATOM     11  O   UNL     1      35.007 -16.133 -20.598  0.00  0.00    -0.247 OA
ATOM     12  N   UNL     1      35.398 -16.704 -23.966  0.00  0.00    -0.144 N 
ATOM     13  C   UNL     1      34.801 -17.996 -22.159  0.00  0.00    +0.184 C 
ATOM     14  C   UNL     1      35.069 -17.997 -23.634  0.00  0.00    +0.264 C 
ATOM     15  C   UNL     1      35.071 -16.576 -21.733  0.00  0.00    +0.348 C 
ATOM     16  H   UNL     1      35.607 -16.408 -24.882  0.00  0.00    +0.196 HD
ENDBRANCH   8  13
ENDBRANCH   2   8
ENDBRANCH   1   5
BRANCH   1  17
ATOM     17  C   UNL     1      33.416 -23.320 -17.300  0.00  0.00    +0.213 C 
BRANCH  17  18
ATOM     18  C   UNL     1      32.492 -23.282 -16.086  0.00  0.00    +0.105 C 
BRANCH  18  21
ATOM     19  O   UNL     1      33.647 -24.292 -12.775  0.00  0.00    -0.449 OA
ATOM     20  N   UNL     1      34.540 -23.663 -14.756  0.00  0.00    -0.373 NA
ATOM     21  C   UNL     1      33.187 -23.666 -14.812  0.00  0.00    +0.134 C 
ATOM     22  C   UNL     1      32.625 -24.040 -13.640  0.00  0.00    +0.216 C 
ATOM     23  C   UNL     1      34.761 -24.044 -13.517  0.00  0.00    +0.277 C 
ATOM     24  C   UNL     1      31.261 -24.218 -13.131  0.00  0.00    +0.055 C 
BRANCH  23  25
ATOM     25  C   UNL     1      36.009 -24.238 -12.832  0.00  0.00    +0.066 C 
ATOM     26  C   UNL     1      36.741 -25.414 -13.022  0.00  0.00    +0.006 C 
ATOM     27  C   UNL     1      36.496 -23.254 -11.968  0.00  0.00    +0.006 C 
ATOM     28  C   UNL     1      37.951 -25.602 -12.354  0.00  0.00    +0.000 C 
ATOM     29  C   UNL     1      37.707 -23.442 -11.301  0.00  0.00    +0.000 C 
ATOM     30  C   UNL     1      38.434 -24.617 -11.493  0.00  0.00    +0.000 C 
ENDBRANCH  23  25
ENDBRANCH  18  21
ENDBRANCH  17  18
ENDBRANCH   1  17
TORSDOF 7
ENDMDL
MODEL 6
REMARK VINA RESULT:     -11.3      3.660     10.273
REMARK  Name = 154000
REMARK  7 active torsions:
REMARK  status: ('A' for Active; 'I' for Inactive)
REMARK    1  A    between atoms: O_1  and  C_5
REMARK    2  A    between atoms: O_1  and  C_17
REMARK    3  A    between atoms: C_2  and  C_8
REMARK    4  A    between atoms: C_8  and  C_13
REMARK    5  A    between atoms: C_17  and  C_18
REMARK    6  A    between atoms: C_18  and  C_21
REMARK    7  A    between atoms: C_23  and  C_25
REMARK                            x       y       z     vdW  Elec       q    Type
REMARK                         _______ _______ _______ _____ _____    ______ ____
ROOT
ATOM      1  O   UNL     1      36.347 -22.843 -16.918  0.00  0.00    -0.475 OA
ENDROOT
BRANCH   1   5
ATOM      2  C   UNL     1      34.770 -20.707 -20.087  0.00  0.00    -0.021 C 
ATOM      3  C   UNL     1      36.138 -20.673 -19.856  0.00  0.00    -0.001 C 
ATOM      4  C   UNL     1      33.923 -21.444 -19.274  0.00  0.00    -0.001 C 
ATOM      5  C   UNL     1      35.828 -22.140 -17.962  0.00  0.00    +0.139 C 
ATOM      6  C   UNL     1      36.670 -21.394 -18.787  0.00  0.00    +0.037 C 
ATOM      7  C   UNL     1      34.455 -22.165 -18.205  0.00  0.00    +0.037 C 
BRANCH   2   8
ATOM      8  C   UNL     1      34.195 -19.927 -21.242  0.00  0.00    +0.047 C 
BRANCH   8  13
ATOM      9  O   UNL     1      34.915 -17.865 -23.902  0.00  0.00    -0.346 OA
ATOM     10  O   UNL     1      35.351 -17.231 -20.495  0.00  0.00    -0.272 OA
ATOM     11  O   UNL     1      34.932 -20.144 -24.186  0.00  0.00    -0.247 OA
ATOM     12  N   UNL     1      35.039 -17.003 -22.792  0.00  0.00    -0.144 N 
ATOM     13  C   UNL     1      35.261 -19.145 -21.985  0.00  0.00    +0.184 C 
ATOM     14  C   UNL     1      35.229 -17.692 -21.618  0.00  0.00    +0.264 C 
ATOM     15  C   UNL     1      35.019 -19.159 -23.472  0.00  0.00    +0.348 C 
ATOM     16  H   UNL     1      34.995 -16.021 -22.852  0.00  0.00    +0.196 HD
ENDBRANCH   8  13
ENDBRANCH   2   8
ENDBRANCH   1   5
BRANCH   1  17
ATOM     17  C   UNL     1      36.353 -22.203 -15.643  0.00  0.00    +0.213 C 
BRANCH  17  18
ATOM     18  C   UNL     1      36.370 -23.255 -14.538  0.00  0.00    +0.105 C 
BRANCH  18  21
ATOM     19  O   UNL     1      33.276 -24.414 -12.987  0.00  0.00    -0.449 OA
ATOM     20  N   UNL     1      33.943 -23.498 -14.945  0.00  0.00    -0.373 NA
ATOM     21  C   UNL     1      34.992 -23.666 -14.104  0.00  0.00    +0.134 C 
ATOM     22  C   UNL     1      34.622 -24.212 -12.923  0.00  0.00    +0.216 C 
ATOM     23  C   UNL     1      32.944 -23.962 -14.227  0.00  0.00    +0.277 C 
ATOM     24  C   UNL     1      35.298 -24.607 -11.683  0.00  0.00    +0.055 C 
BRANCH  23  25
ATOM     25  C   UNL     1      31.550 -24.060 -14.562  0.00  0.00    +0.066 C 
ATOM     26  C   UNL     1      30.756 -25.056 -13.986  0.00  0.00    +0.006 C 
ATOM     27  C   UNL     1      30.980 -23.161 -15.467  0.00  0.00    +0.006 C 
ATOM     28  C   UNL     1      29.404 -25.152 -14.313  0.00  0.00    +0.000 C 
ATOM     29  C   UNL     1      29.628 -23.256 -15.793  0.00  0.00    +0.000 C 
ATOM     30  C   UNL     1      28.839 -24.251 -15.217  0.00  0.00    +0.000 C 
ENDBRANCH  23  25
ENDBRANCH  18  21
ENDBRANCH  17  18
ENDBRANCH   1  17
TORSDOF 7
ENDMDL
MODEL 7
REMARK VINA RESULT:     -11.3      2.670      4.078
REMARK  Name = 154000
REMARK  7 active torsions:
REMARK  status: ('A' for Active; 'I' for Inactive)
REMARK    1  A    between atoms: O_1  and  C_5
REMARK    2  A    between atoms: O_1  and  C_17
REMARK    3  A    between atoms: C_2  and  C_8
REMARK    4  A    between atoms: C_8  and  C_13
REMARK    5  A    between atoms: C_17  and  C_18
REMARK    6  A    between atoms: C_18  and  C_21
REMARK    7  A    between atoms: C_23  and  C_25
REMARK                            x       y       z     vdW  Elec       q    Type
REMARK                         _______ _______ _______ _____ _____    ______ ____
ROOT
ATOM      1  O   UNL     1      35.768 -21.290 -20.193  0.00  0.00    -0.475 OA
ENDROOT
BRANCH   1   5
ATOM      2  C   UNL     1      35.533 -22.783 -16.346  0.00  0.00    -0.021 C 
ATOM      3  C   UNL     1      36.713 -22.194 -16.777  0.00  0.00    -0.001 C 
ATOM      4  C   UNL     1      34.432 -22.880 -17.182  0.00  0.00    -0.001 C 
ATOM      5  C   UNL     1      35.691 -21.782 -18.927  0.00  0.00    +0.139 C 
ATOM      6  C   UNL     1      36.793 -21.691 -18.075  0.00  0.00    +0.037 C 
ATOM      7  C   UNL     1      34.511 -22.376 -18.480  0.00  0.00    +0.037 C 
BRANCH   2   8
ATOM      8  C   UNL     1      35.449 -23.329 -14.943  0.00  0.00    +0.047 C 
BRANCH   8  13
ATOM      9  O   UNL     1      37.205 -24.937 -12.459  0.00  0.00    -0.346 OA
ATOM     10  O   UNL     1      35.736 -26.319 -15.311  0.00  0.00    -0.272 OA
ATOM     11  O   UNL     1      37.625 -22.723 -12.905  0.00  0.00    -0.247 OA
ATOM     12  N   UNL     1      36.637 -26.005 -13.185  0.00  0.00    -0.144 N 
ATOM     13  C   UNL     1      36.649 -24.187 -14.594  0.00  0.00    +0.184 C 
ATOM     14  C   UNL     1      36.267 -25.630 -14.454  0.00  0.00    +0.264 C 
ATOM     15  C   UNL     1      37.217 -23.821 -13.248  0.00  0.00    +0.348 C 
ATOM     16  H   UNL     1      36.520 -26.913 -12.824  0.00  0.00    +0.196 HD
ENDBRANCH   8  13
ENDBRANCH   2   8
ENDBRANCH   1   5
BRANCH   1  17
ATOM     17  C   UNL     1      34.997 -20.124 -20.485  0.00  0.00    +0.213 C 
BRANCH  17  18
ATOM     18  C   UNL     1      35.923 -18.984 -20.896  0.00  0.00    +0.105 C 
BRANCH  18  21
ATOM     19  O   UNL     1      34.628 -17.571 -24.002  0.00  0.00    -0.449 OA
ATOM     20  N   UNL     1      35.216 -16.856 -21.938  0.00  0.00    -0.373 NA
ATOM     21  C   UNL     1      35.395 -18.193 -22.059  0.00  0.00    +0.134 C 
ATOM     22  C   UNL     1      35.051 -18.649 -23.285  0.00  0.00    +0.216 C 
ATOM     23  C   UNL     1      34.757 -16.536 -23.127  0.00  0.00    +0.277 C 
ATOM     24  C   UNL     1      35.034 -19.950 -23.963  0.00  0.00    +0.055 C 
BRANCH  23  25
ATOM     25  C   UNL     1      34.369 -15.250 -23.639  0.00  0.00    +0.066 C 
ATOM     26  C   UNL     1      34.536 -14.102 -22.859  0.00  0.00    +0.006 C 
ATOM     27  C   UNL     1      33.819 -15.141 -24.919  0.00  0.00    +0.006 C 
ATOM     28  C   UNL     1      34.157 -12.856 -23.356  0.00  0.00    +0.000 C 
ATOM     29  C   UNL     1      33.440 -13.894 -25.417  0.00  0.00    +0.000 C 
ATOM     30  C   UNL     1      33.609 -12.751 -24.635  0.00  0.00    +0.000 C 
ENDBRANCH  23  25
ENDBRANCH  18  21
ENDBRANCH  17  18
ENDBRANCH   1  17
TORSDOF 7
ENDMDL
MODEL 8
REMARK VINA RESULT:     -11.2      3.678     11.423
REMARK  Name = 154000
REMARK  7 active torsions:
REMARK  status: ('A' for Active; 'I' for Inactive)
REMARK    1  A    between atoms: O_1  and  C_5
REMARK    2  A    between atoms: O_1  and  C_17
REMARK    3  A    between atoms: C_2  and  C_8
REMARK    4  A    between atoms: C_8  and  C_13
REMARK    5  A    between atoms: C_17  and  C_18
REMARK    6  A    between atoms: C_18  and  C_21
REMARK    7  A    between atoms: C_23  and  C_25
REMARK                            x       y       z     vdW  Elec       q    Type
REMARK                         _______ _______ _______ _____ _____    ______ ____
ROOT
ATOM      1  O   UNL     1      34.216 -13.478 -23.639  0.00  0.00    -0.475 OA
ENDROOT
BRANCH   1   5
ATOM      2  C   UNL     1      32.353 -10.053 -22.266  0.00  0.00    -0.021 C 
ATOM      3  C   UNL     1      33.346  -9.949 -23.229  0.00  0.00    -0.001 C 
ATOM      4  C   UNL     1      31.974 -11.286 -21.755  0.00  0.00    -0.001 C 
ATOM      5  C   UNL     1      33.603 -12.350 -23.187  0.00  0.00    +0.139 C 
ATOM      6  C   UNL     1      33.975 -11.104 -23.692  0.00  0.00    +0.037 C 
ATOM      7  C   UNL     1      32.603 -12.441 -22.219  0.00  0.00    +0.037 C 
BRANCH   2   8
ATOM      8  C   UNL     1      31.675  -8.803 -21.764  0.00  0.00    +0.047 C 
BRANCH   8  13
ATOM      9  O   UNL     1      31.942  -5.392 -22.122  0.00  0.00    -0.346 OA
ATOM     10  O   UNL     1      32.893  -7.361 -19.399  0.00  0.00    -0.272 OA
ATOM     11  O   UNL     1      31.949  -6.739 -23.982  0.00  0.00    -0.247 OA
ATOM     12  N   UNL     1      32.225  -5.588 -20.754  0.00  0.00    -0.144 N 
ATOM     13  C   UNL     1      32.601  -7.603 -21.796  0.00  0.00    +0.184 C 
ATOM     14  C   UNL     1      32.604  -6.880 -20.483  0.00  0.00    +0.264 C 
ATOM     15  C   UNL     1      32.131  -6.571 -22.787  0.00  0.00    +0.348 C 
ATOM     16  H   UNL     1      32.157  -4.880 -20.073  0.00  0.00    +0.196 HD
ENDBRANCH   8  13
ENDBRANCH   2   8
ENDBRANCH   1   5
BRANCH   1  17
ATOM     17  C   UNL     1      33.800 -14.717 -23.065  0.00  0.00    +0.213 C 
BRANCH  17  18
ATOM     18  C   UNL     1      34.932 -15.301 -22.224  0.00  0.00    +0.105 C 
BRANCH  18  21
ATOM     19  O   UNL     1      34.894 -18.919 -22.708  0.00  0.00    -0.449 OA
ATOM     20  N   UNL     1      34.902 -17.445 -20.992  0.00  0.00    -0.373 NA
ATOM     21  C   UNL     1      34.915 -16.802 -22.185  0.00  0.00    +0.134 C 
ATOM     22  C   UNL     1      34.910 -17.661 -23.230  0.00  0.00    +0.216 C 
ATOM     23  C   UNL     1      34.889 -18.705 -21.363  0.00  0.00    +0.277 C 
ATOM     24  C   UNL     1      34.918 -17.545 -24.693  0.00  0.00    +0.055 C 
BRANCH  23  25
ATOM     25  C   UNL     1      34.873 -19.894 -20.556  0.00  0.00    +0.066 C 
ATOM     26  C   UNL     1      33.657 -20.458 -20.158  0.00  0.00    +0.006 C 
ATOM     27  C   UNL     1      36.073 -20.490 -20.160  0.00  0.00    +0.006 C 
ATOM     28  C   UNL     1      33.643 -21.610 -19.372  0.00  0.00    +0.000 C 
ATOM     29  C   UNL     1      36.059 -21.643 -19.375  0.00  0.00    +0.000 C 
ATOM     30  C   UNL     1      34.843 -22.203 -18.980  0.00  0.00    +0.000 C 
ENDBRANCH  23  25
ENDBRANCH  18  21
ENDBRANCH  17  18
ENDBRANCH   1  17
TORSDOF 7
ENDMDL
MODEL 9
REMARK VINA RESULT:     -11.2      3.359      6.358
REMARK  Name = 154000
REMARK  7 active torsions:
REMARK  status: ('A' for Active; 'I' for Inactive)
REMARK    1  A    between atoms: O_1  and  C_5
REMARK    2  A    between atoms: O_1  and  C_17
REMARK    3  A    between atoms: C_2  and  C_8
REMARK    4  A    between atoms: C_8  and  C_13
REMARK    5  A    between atoms: C_17  and  C_18
REMARK    6  A    between atoms: C_18  and  C_21
REMARK    7  A    between atoms: C_23  and  C_25
REMARK                            x       y       z     vdW  Elec       q    Type
REMARK                         _______ _______ _______ _____ _____    ______ ____
ROOT
ATOM      1  O   UNL     1      33.502 -13.581 -23.853  0.00  0.00    -0.475 OA
ENDROOT
BRANCH   1   5
ATOM      2  C   UNL     1      35.070 -17.277 -22.870  0.00  0.00    -0.021 C 
ATOM      3  C   UNL     1      34.766 -16.376 -21.860  0.00  0.00    -0.001 C 
ATOM      4  C   UNL     1      34.857 -16.961 -24.203  0.00  0.00    -0.001 C 
ATOM      5  C   UNL     1      34.018 -14.798 -23.529  0.00  0.00    +0.139 C 
ATOM      6  C   UNL     1      34.238 -15.129 -22.191  0.00  0.00    +0.037 C 
ATOM      7  C   UNL     1      34.328 -15.714 -24.534  0.00  0.00    +0.037 C 
BRANCH   2   8
ATOM      8  C   UNL     1      35.643 -18.625 -22.511  0.00  0.00    +0.047 C 
BRANCH   8  13
ATOM      9  O   UNL     1      35.449 -20.970 -20.000  0.00  0.00    -0.346 OA
ATOM     10  O   UNL     1      37.981 -18.637 -20.590  0.00  0.00    -0.272 OA
ATOM     11  O   UNL     1      33.525 -20.152 -20.950  0.00  0.00    -0.247 OA
ATOM     12  N   UNL     1      36.779 -20.510 -19.899  0.00  0.00    -0.144 N 
ATOM     13  C   UNL     1      35.604 -18.879 -21.016  0.00  0.00    +0.184 C 
ATOM     14  C   UNL     1      36.950 -19.284 -20.496  0.00  0.00    +0.264 C 
ATOM     15  C   UNL     1      34.709 -20.042 -20.678  0.00  0.00    +0.348 C 
ATOM     16  H   UNL     1      37.501 -21.010 -19.454  0.00  0.00    +0.196 HD
ENDBRANCH   8  13
ENDBRANCH   2   8
ENDBRANCH   1   5
BRANCH   1  17
ATOM     17  C   UNL     1      33.681 -12.527 -22.908  0.00  0.00    +0.213 C 
BRANCH  17  18
ATOM     18  C   UNL     1      32.392 -12.318 -22.118  0.00  0.00    +0.105 C 
BRANCH  18  21
ATOM     19  O   UNL     1      31.629  -9.010 -20.778  0.00  0.00    -0.449 OA
ATOM     20  N   UNL     1      32.355  -9.920 -22.718  0.00  0.00    -0.373 NA
ATOM     21  C   UNL     1      32.141 -10.876 -21.782  0.00  0.00    +0.134 C 
ATOM     22  C   UNL     1      31.706 -10.360 -20.610  0.00  0.00    +0.216 C 
ATOM     23  C   UNL     1      32.032  -8.826 -22.065  0.00  0.00    +0.277 C 
ATOM     24  C   UNL     1      31.327 -10.892 -19.297  0.00  0.00    +0.055 C 
BRANCH  23  25
ATOM     25  C   UNL     1      32.046  -7.460 -22.512  0.00  0.00    +0.066 C 
ATOM     26  C   UNL     1      31.084  -6.558 -22.049  0.00  0.00    +0.006 C 
ATOM     27  C   UNL     1      33.021  -7.026 -23.414  0.00  0.00    +0.006 C 
ATOM     28  C   UNL     1      31.097  -5.234 -22.485  0.00  0.00    +0.000 C 
ATOM     29  C   UNL     1      33.035  -5.701 -23.850  0.00  0.00    +0.000 C 
ATOM     30  C   UNL     1      32.072  -4.805 -23.385  0.00  0.00    +0.000 C 
ENDBRANCH  23  25
ENDBRANCH  18  21
ENDBRANCH  17  18
ENDBRANCH   1  17
TORSDOF 7
ENDMDL
