MODEL 1
REMARK VINA RESULT:     -11.6      0.000      0.000
REMARK  Name = 11574606
REMARK  6 active torsions:
REMARK  status: ('A' for Active; 'I' for Inactive)
REMARK    1  A    between atoms: C_5  and  O_24
REMARK    2  A    between atoms: C_7  and  N_10
REMARK    3  A    between atoms: N_10  and  C_12
REMARK    4  A    between atoms: C_15  and  S_18
REMARK    5  A    between atoms: S_18  and  N_21
REMARK    6  A    between atoms: O_24  and  C_25
REMARK                            x       y       z     vdW  Elec       q    Type
REMARK                         _______ _______ _______ _____ _____    ______ ____
ROOT
ATOM      1  N   UNL     1      33.149 -23.483 -14.141  0.00  0.00    -0.299 NA
ATOM      2  N   UNL     1      32.024 -23.037 -16.220  0.00  0.00    -0.106 N 
ATOM      3  N   UNL     1      30.752 -22.853 -16.661  0.00  0.00    -0.139 NA
ATOM      4  N   UNL     1      30.751 -23.227 -14.415  0.00  0.00    -0.145 NA
ATOM      5  C   UNL     1      34.238 -23.461 -14.841  0.00  0.00    +0.291 C 
ATOM      6  C   UNL     1      34.374 -23.230 -16.296  0.00  0.00    +0.105 C 
ATOM      7  C   UNL     1      33.221 -23.019 -16.952  0.00  0.00    +0.142 C 
ATOM      8  C   UNL     1      31.998 -23.265 -14.839  0.00  0.00    +0.178 C 
ATOM      9  C   UNL     1      30.042 -22.976 -15.544  0.00  0.00    +0.230 C 
ENDROOT
BRANCH   7  10
ATOM     10  N   UNL     1      33.137 -22.787 -18.296  0.00  0.00    -0.299 N 
ATOM     11  H   UNL     1      32.494 -23.348 -18.788  0.00  0.00    +0.153 HD
BRANCH  10  12
ATOM     12  C   UNL     1      33.847 -21.857 -19.062  0.00  0.00    +0.049 C 
ATOM     13  C   UNL     1      35.246 -21.883 -19.092  0.00  0.00    +0.016 C 
ATOM     14  C   UNL     1      33.166 -20.888 -19.811  0.00  0.00    +0.016 C 
ATOM     15  C   UNL     1      35.268 -19.994 -20.598  0.00  0.00    +0.122 C 
ATOM     16  C   UNL     1      35.954 -20.956 -19.857  0.00  0.00    +0.021 C 
ATOM     17  C   UNL     1      33.873 -19.961 -20.574  0.00  0.00    +0.021 C 
BRANCH  15  18
ATOM     18  S   UNL     1      36.153 -18.832 -21.554  0.00  0.00    +0.057 S 
ATOM     19  O   UNL     1      37.557 -18.899 -21.173  0.00  0.00    -0.153 OA
ATOM     20  O   UNL     1      35.774 -18.997 -22.950  0.00  0.00    -0.153 OA
BRANCH  18  21
ATOM     21  N   UNL     1      35.494 -17.366 -20.976  0.00  0.00    -0.203 NA
ATOM     22  H   UNL     1      35.999 -16.580 -21.389  0.00  0.00    +0.144 HD
ATOM     23  H   UNL     1      35.582 -17.330 -19.960  0.00  0.00    +0.144 HD
ENDBRANCH  18  21
ENDBRANCH  15  18
ENDBRANCH  10  12
ENDBRANCH   7  10
BRANCH   5  24
ATOM     24  O   UNL     1      35.434 -23.667 -14.239  0.00  0.00    -0.455 OA
BRANCH  24  25
ATOM     25  C   UNL     1      35.525 -24.976 -13.681  0.00  0.00    +0.169 C 
ATOM     26  C   UNL     1      36.469 -25.834 -14.524  0.00  0.00    +0.044 C 
ATOM     27  C   UNL     1      36.008 -24.861 -12.235  0.00  0.00    +0.044 C 
ATOM     28  C   UNL     1      37.918 -25.352 -14.434  0.00  0.00    +0.004 C 
ATOM     29  C   UNL     1      37.458 -24.384 -12.148  0.00  0.00    +0.004 C 
ATOM     30  C   UNL     1      38.389 -25.255 -12.986  0.00  0.00    +0.000 C 
ENDBRANCH  24  25
ENDBRANCH   5  24
TORSDOF 6
ENDMDL
MODEL 2
REMARK VINA RESULT:     -10.2      7.557     11.207
REMARK  Name = 11574606
REMARK  6 active torsions:
REMARK  status: ('A' for Active; 'I' for Inactive)
REMARK    1  A    between atoms: C_5  and  O_24
REMARK    2  A    between atoms: C_7  and  N_10
REMARK    3  A    between atoms: N_10  and  C_12
REMARK    4  A    between atoms: C_15  and  S_18
REMARK    5  A    between atoms: S_18  and  N_21
REMARK    6  A    between atoms: O_24  and  C_25
REMARK                            x       y       z     vdW  Elec       q    Type
REMARK                         _______ _______ _______ _____ _____    ______ ____
ROOT
ATOM      1  N   UNL     1      35.041 -16.527 -24.010  0.00  0.00    -0.299 NA
ATOM      2  N   UNL     1      33.505 -14.690 -24.231  0.00  0.00    -0.106 N 
ATOM      3  N   UNL     1      32.889 -14.002 -25.229  0.00  0.00    -0.139 NA
ATOM      4  N   UNL     1      34.206 -15.639 -26.108  0.00  0.00    -0.145 NA
ATOM      5  C   UNL     1      34.936 -16.331 -22.735  0.00  0.00    +0.291 C 
ATOM      6  C   UNL     1      34.121 -15.310 -22.040  0.00  0.00    +0.105 C 
ATOM      7  C   UNL     1      33.412 -14.500 -22.844  0.00  0.00    +0.142 C 
ATOM      8  C   UNL     1      34.307 -15.688 -24.795  0.00  0.00    +0.178 C 
ATOM      9  C   UNL     1      33.344 -14.612 -26.319  0.00  0.00    +0.230 C 
ENDROOT
BRANCH   7  10
ATOM     10  N   UNL     1      32.599 -13.497 -22.396  0.00  0.00    -0.299 N 
ATOM     11  H   UNL     1      31.785 -13.784 -21.923  0.00  0.00    +0.153 HD
BRANCH  10  12
ATOM     12  C   UNL     1      32.776 -12.116 -22.523  0.00  0.00    +0.049 C 
ATOM     13  C   UNL     1      33.768 -11.601 -23.367  0.00  0.00    +0.016 C 
ATOM     14  C   UNL     1      31.960 -11.228 -21.809  0.00  0.00    +0.016 C 
ATOM     15  C   UNL     1      33.127  -9.347 -22.778  0.00  0.00    +0.122 C 
ATOM     16  C   UNL     1      33.943 -10.223 -23.494  0.00  0.00    +0.021 C 
ATOM     17  C   UNL     1      32.136  -9.851 -21.935  0.00  0.00    +0.021 C 
BRANCH  15  18
ATOM     18  S   UNL     1      33.346  -7.623 -22.936  0.00  0.00    +0.057 S 
ATOM     19  O   UNL     1      34.737  -7.367 -23.285  0.00  0.00    -0.153 OA
ATOM     20  O   UNL     1      32.281  -7.095 -23.777  0.00  0.00    -0.153 OA
BRANCH  18  21
ATOM     21  N   UNL     1      33.079  -7.112 -21.327  0.00  0.00    -0.203 NA
ATOM     22  H   UNL     1      33.588  -7.723 -20.687  0.00  0.00    +0.144 HD
ATOM     23  H   UNL     1      32.081  -7.157 -21.117  0.00  0.00    +0.144 HD
ENDBRANCH  18  21
ENDBRANCH  15  18
ENDBRANCH  10  12
ENDBRANCH   7  10
BRANCH   5  24
ATOM     24  O   UNL     1      35.626 -17.113 -21.870  0.00  0.00    -0.455 OA
BRANCH  24  25
ATOM     25  C   UNL     1      36.059 -18.325 -22.486  0.00  0.00    +0.169 C 
ATOM     26  C   UNL     1      37.354 -18.806 -21.828  0.00  0.00    +0.044 C 
ATOM     27  C   UNL     1      34.944 -19.363 -22.361  0.00  0.00    +0.044 C 
ATOM     28  C   UNL     1      37.133 -19.249 -20.381  0.00  0.00    +0.004 C 
ATOM     29  C   UNL     1      34.729 -19.808 -20.915  0.00  0.00    +0.004 C 
ATOM     30  C   UNL     1      36.026 -20.295 -20.276  0.00  0.00    +0.000 C 
ENDBRANCH  24  25
ENDBRANCH   5  24
TORSDOF 6
ENDMDL
MODEL 3
REMARK VINA RESULT:     -10.1      3.699      7.388
REMARK  Name = 11574606
REMARK  6 active torsions:
REMARK  status: ('A' for Active; 'I' for Inactive)
REMARK    1  A    between atoms: C_5  and  O_24
REMARK    2  A    between atoms: C_7  and  N_10
REMARK    3  A    between atoms: N_10  and  C_12
REMARK    4  A    between atoms: C_15  and  S_18
REMARK    5  A    between atoms: S_18  and  N_21
REMARK    6  A    between atoms: O_24  and  C_25
REMARK                            x       y       z     vdW  Elec       q    Type
REMARK                         _______ _______ _______ _____ _____    ______ ____
ROOT
ATOM      1  N   UNL     1      37.480 -22.498 -16.383  0.00  0.00    -0.299 NA
ATOM      2  N   UNL     1      36.293 -23.843 -14.781  0.00  0.00    -0.106 N 
ATOM      3  N   UNL     1      36.585 -24.673 -13.744  0.00  0.00    -0.139 NA
ATOM      4  N   UNL     1      38.507 -23.857 -14.654  0.00  0.00    -0.145 NA
ATOM      5  C   UNL     1      36.309 -22.179 -16.833  0.00  0.00    +0.291 C 
ATOM      6  C   UNL     1      34.993 -22.636 -16.336  0.00  0.00    +0.105 C 
ATOM      7  C   UNL     1      35.038 -23.481 -15.291  0.00  0.00    +0.142 C 
ATOM      8  C   UNL     1      37.488 -23.356 -15.323  0.00  0.00    +0.178 C 
ATOM      9  C   UNL     1      37.913 -24.639 -13.717  0.00  0.00    +0.230 C 
ENDROOT
BRANCH   7  10
ATOM     10  N   UNL     1      33.933 -24.013 -14.690  0.00  0.00    -0.299 N 
ATOM     11  H   UNL     1      34.106 -24.626 -13.939  0.00  0.00    +0.153 HD
BRANCH  10  12
ATOM     12  C   UNL     1      32.586 -23.799 -15.003  0.00  0.00    +0.049 C 
ATOM     13  C   UNL     1      32.230 -23.070 -16.145  0.00  0.00    +0.016 C 
ATOM     14  C   UNL     1      31.576 -24.313 -14.178  0.00  0.00    +0.016 C 
ATOM     15  C   UNL     1      29.889 -23.372 -15.630  0.00  0.00    +0.122 C 
ATOM     16  C   UNL     1      30.887 -22.858 -16.457  0.00  0.00    +0.021 C 
ATOM     17  C   UNL     1      30.234 -24.099 -14.490  0.00  0.00    +0.021 C 
BRANCH  15  18
ATOM     18  S   UNL     1      28.208 -23.106 -16.019  0.00  0.00    +0.057 S 
ATOM     19  O   UNL     1      27.427 -23.238 -14.796  0.00  0.00    -0.153 OA
ATOM     20  O   UNL     1      28.104 -21.892 -16.816  0.00  0.00    -0.153 OA
BRANCH  18  21
ATOM     21  N   UNL     1      27.890 -24.450 -17.024  0.00  0.00    -0.203 NA
ATOM     22  H   UNL     1      28.353 -25.277 -16.644  0.00  0.00    +0.144 HD
ATOM     23  H   UNL     1      28.243 -24.265 -17.963  0.00  0.00    +0.144 HD
ENDBRANCH  18  21
ENDBRANCH  15  18
ENDBRANCH  10  12
ENDBRANCH   7  10
BRANCH   5  24
ATOM     24  O   UNL     1      36.196 -21.333 -17.885  0.00  0.00    -0.455 OA
BRANCH  24  25
ATOM     25  C   UNL     1      35.960 -22.035 -19.104  0.00  0.00    +0.169 C 
ATOM     26  C   UNL     1      34.475 -22.386 -19.220  0.00  0.00    +0.044 C 
ATOM     27  C   UNL     1      36.426 -21.163 -20.270  0.00  0.00    +0.044 C 
ATOM     28  C   UNL     1      33.603 -21.142 -19.399  0.00  0.00    +0.004 C 
ATOM     29  C   UNL     1      35.549 -19.924 -20.449  0.00  0.00    +0.004 C 
ATOM     30  C   UNL     1      34.074 -20.290 -20.575  0.00  0.00    +0.000 C 
ENDBRANCH  24  25
ENDBRANCH   5  24
TORSDOF 6
ENDMDL
MODEL 4
REMARK VINA RESULT:     -10.0      3.409      7.132
REMARK  Name = 11574606
REMARK  6 active torsions:
REMARK  status: ('A' for Active; 'I' for Inactive)
REMARK    1  A    between atoms: C_5  and  O_24
REMARK    2  A    between atoms: C_7  and  N_10
REMARK    3  A    between atoms: N_10  and  C_12
REMARK    4  A    between atoms: C_15  and  S_18
REMARK    5  A    between atoms: S_18  and  N_21
REMARK    6  A    between atoms: O_24  and  C_25
REMARK                            x       y       z     vdW  Elec       q    Type
REMARK                         _______ _______ _______ _____ _____    ______ ____
ROOT
ATOM      1  N   UNL     1      31.787 -23.080 -16.392  0.00  0.00    -0.299 NA
ATOM      2  N   UNL     1      32.335 -24.539 -14.560  0.00  0.00    -0.106 N 
ATOM      3  N   UNL     1      31.686 -25.365 -13.698  0.00  0.00    -0.139 NA
ATOM      4  N   UNL     1      30.194 -24.398 -15.121  0.00  0.00    -0.145 NA
ATOM      5  C   UNL     1      33.057 -22.837 -16.448  0.00  0.00    +0.291 C 
ATOM      6  C   UNL     1      34.124 -23.395 -15.589  0.00  0.00    +0.105 C 
ATOM      7  C   UNL     1      33.706 -24.256 -14.644  0.00  0.00    +0.142 C 
ATOM      8  C   UNL     1      31.399 -23.957 -15.424  0.00  0.00    +0.178 C 
ATOM      9  C   UNL     1      30.420 -25.240 -14.081  0.00  0.00    +0.230 C 
ENDROOT
BRANCH   7  10
ATOM     10  N   UNL     1      34.536 -24.877 -13.754  0.00  0.00    -0.299 N 
ATOM     11  H   UNL     1      34.107 -25.230 -12.942  0.00  0.00    +0.153 HD
BRANCH  10  12
ATOM     12  C   UNL     1      35.918 -25.075 -13.848  0.00  0.00    +0.049 C 
ATOM     13  C   UNL     1      36.802 -24.252 -13.139  0.00  0.00    +0.016 C 
ATOM     14  C   UNL     1      36.434 -26.100 -14.652  0.00  0.00    +0.016 C 
ATOM     15  C   UNL     1      38.685 -25.472 -14.036  0.00  0.00    +0.122 C 
ATOM     16  C   UNL     1      38.180 -24.450 -13.233  0.00  0.00    +0.021 C 
ATOM     17  C   UNL     1      37.811 -26.296 -14.746  0.00  0.00    +0.021 C 
BRANCH  15  18
ATOM     18  S   UNL     1      40.409 -25.719 -14.155  0.00  0.00    +0.057 S 
ATOM     19  O   UNL     1      41.075 -24.458 -13.859  0.00  0.00    -0.153 OA
ATOM     20  O   UNL     1      40.758 -26.915 -13.402  0.00  0.00    -0.153 OA
BRANCH  18  21
ATOM     21  N   UNL     1      40.576 -26.053 -15.822  0.00  0.00    -0.203 NA
ATOM     22  H   UNL     1      40.881 -25.209 -16.309  0.00  0.00    +0.144 HD
ATOM     23  H   UNL     1      39.679 -26.357 -16.200  0.00  0.00    +0.144 HD
ENDBRANCH  18  21
ENDBRANCH  15  18
ENDBRANCH  10  12
ENDBRANCH   7  10
BRANCH   5  24
ATOM     24  O   UNL     1      33.542 -21.979 -17.377  0.00  0.00    -0.455 OA
BRANCH  24  25
ATOM     25  C   UNL     1      33.571 -22.568 -18.676  0.00  0.00    +0.169 C 
ATOM     26  C   UNL     1      32.803 -21.686 -19.661  0.00  0.00    +0.044 C 
ATOM     27  C   UNL     1      35.029 -22.750 -19.100  0.00  0.00    +0.044 C 
ATOM     28  C   UNL     1      33.506 -20.350 -19.906  0.00  0.00    +0.004 C 
ATOM     29  C   UNL     1      35.728 -21.413 -19.348  0.00  0.00    +0.004 C 
ATOM     30  C   UNL     1      34.956 -20.549 -20.341  0.00  0.00    +0.000 C 
ENDBRANCH  24  25
ENDBRANCH   5  24
TORSDOF 6
ENDMDL
MODEL 5
REMARK VINA RESULT:     -10.0      3.898      7.720
REMARK  Name = 11574606
REMARK  6 active torsions:
REMARK  status: ('A' for Active; 'I' for Inactive)
REMARK    1  A    between atoms: C_5  and  O_24
REMARK    2  A    between atoms: C_7  and  N_10
REMARK    3  A    between atoms: N_10  and  C_12
REMARK    4  A    between atoms: C_15  and  S_18
REMARK    5  A    between atoms: S_18  and  N_21
REMARK    6  A    between atoms: O_24  and  C_25
REMARK                            x       y       z     vdW  Elec       q    Type
REMARK                         _______ _______ _______ _____ _____    ______ ____
ROOT
ATOM      1  N   UNL     1      32.694 -22.149 -18.703  0.00  0.00    -0.299 NA
ATOM      2  N   UNL     1      35.060 -21.930 -18.334  0.00  0.00    -0.106 N 
ATOM      3  N   UNL     1      36.121 -21.316 -18.919  0.00  0.00    -0.139 NA
ATOM      4  N   UNL     1      34.222 -20.881 -20.098  0.00  0.00    -0.145 NA
ATOM      5  C   UNL     1      32.696 -22.883 -17.636  0.00  0.00    +0.291 C 
ATOM      6  C   UNL     1      33.853 -23.239 -16.785  0.00  0.00    +0.105 C 
ATOM      7  C   UNL     1      35.032 -22.730 -17.181  0.00  0.00    +0.142 C 
ATOM      8  C   UNL     1      33.906 -21.649 -19.075  0.00  0.00    +0.178 C 
ATOM      9  C   UNL     1      35.561 -20.709 -19.960  0.00  0.00    +0.230 C 
ENDROOT
BRANCH   7  10
ATOM     10  N   UNL     1      36.215 -22.943 -16.530  0.00  0.00    -0.299 N 
ATOM     11  H   UNL     1      37.026 -22.657 -17.010  0.00  0.00    +0.153 HD
BRANCH  10  12
ATOM     12  C   UNL     1      36.421 -23.516 -15.271  0.00  0.00    +0.049 C 
ATOM     13  C   UNL     1      36.278 -24.897 -15.088  0.00  0.00    +0.016 C 
ATOM     14  C   UNL     1      36.775 -22.715 -14.177  0.00  0.00    +0.016 C 
ATOM     15  C   UNL     1      36.836 -24.662 -12.748  0.00  0.00    +0.122 C 
ATOM     16  C   UNL     1      36.485 -25.468 -13.832  0.00  0.00    +0.021 C 
ATOM     17  C   UNL     1      36.981 -23.286 -12.922  0.00  0.00    +0.021 C 
BRANCH  15  18
ATOM     18  S   UNL     1      37.093 -25.376 -11.176  0.00  0.00    +0.057 S 
ATOM     19  O   UNL     1      37.216 -26.818 -11.341  0.00  0.00    -0.153 OA
ATOM     20  O   UNL     1      38.146 -24.633 -10.497  0.00  0.00    -0.153 OA
BRANCH  18  21
ATOM     21  N   UNL     1      35.602 -25.033 -10.415  0.00  0.00    -0.203 NA
ATOM     22  H   UNL     1      35.669 -25.255  -9.421  0.00  0.00    +0.144 HD
ATOM     23  H   UNL     1      34.866 -25.597 -10.840  0.00  0.00    +0.144 HD
ENDBRANCH  18  21
ENDBRANCH  15  18
ENDBRANCH  10  12
ENDBRANCH   7  10
BRANCH   5  24
ATOM     24  O   UNL     1      31.540 -23.426 -17.185  0.00  0.00    -0.455 OA
BRANCH  24  25
ATOM     25  C   UNL     1      31.091 -22.792 -15.989  0.00  0.00    +0.169 C 
ATOM     26  C   UNL     1      29.611 -22.429 -16.119  0.00  0.00    +0.044 C 
ATOM     27  C   UNL     1      31.339 -23.734 -14.811  0.00  0.00    +0.044 C 
ATOM     28  C   UNL     1      28.718 -23.670 -16.172  0.00  0.00    +0.004 C 
ATOM     29  C   UNL     1      30.442 -24.971 -14.864  0.00  0.00    +0.004 C 
ATOM     30  C   UNL     1      28.969 -24.593 -14.983  0.00  0.00    +0.000 C 
ENDBRANCH  24  25
ENDBRANCH   5  24
TORSDOF 6
ENDMDL
MODEL 6
REMARK VINA RESULT:      -9.8      9.456     14.295
REMARK  Name = 11574606
REMARK  6 active torsions:
REMARK  status: ('A' for Active; 'I' for Inactive)
REMARK    1  A    between atoms: C_5  and  O_24
REMARK    2  A    between atoms: C_7  and  N_10
REMARK    3  A    between atoms: N_10  and  C_12
REMARK    4  A    between atoms: C_15  and  S_18
REMARK    5  A    between atoms: S_18  and  N_21
REMARK    6  A    between atoms: O_24  and  C_25
REMARK                            x       y       z     vdW  Elec       q    Type
REMARK                         _______ _______ _______ _____ _____    ______ ____
ROOT
ATOM      1  N   UNL     1      32.485  -8.413 -21.013  0.00  0.00    -0.299 NA
ATOM      2  N   UNL     1      31.841 -10.638 -20.365  0.00  0.00    -0.106 N 
ATOM      3  N   UNL     1      31.503 -11.301 -19.228  0.00  0.00    -0.139 NA
ATOM      4  N   UNL     1      31.959  -9.121 -18.753  0.00  0.00    -0.145 NA
ATOM      5  C   UNL     1      32.555  -8.891 -22.215  0.00  0.00    +0.291 C 
ATOM      6  C   UNL     1      32.286 -10.278 -22.654  0.00  0.00    +0.105 C 
ATOM      7  C   UNL     1      31.926 -11.128 -21.677  0.00  0.00    +0.142 C 
ATOM      8  C   UNL     1      32.116  -9.303 -20.048  0.00  0.00    +0.178 C 
ATOM      9  C   UNL     1      31.590 -10.347 -18.305  0.00  0.00    +0.230 C 
ENDROOT
BRANCH   7  10
ATOM     10  N   UNL     1      31.636 -12.448 -21.879  0.00  0.00    -0.299 N 
ATOM     11  H   UNL     1      30.686 -12.660 -22.028  0.00  0.00    +0.153 HD
BRANCH  10  12
ATOM     12  C   UNL     1      32.514 -13.536 -21.900  0.00  0.00    +0.049 C 
ATOM     13  C   UNL     1      33.174 -13.893 -23.083  0.00  0.00    +0.016 C 
ATOM     14  C   UNL     1      32.747 -14.283 -20.737  0.00  0.00    +0.016 C 
ATOM     15  C   UNL     1      34.274 -15.716 -21.942  0.00  0.00    +0.122 C 
ATOM     16  C   UNL     1      34.050 -14.978 -23.104  0.00  0.00    +0.021 C 
ATOM     17  C   UNL     1      33.622 -15.368 -20.759  0.00  0.00    +0.021 C 
BRANCH  15  18
ATOM     18  S   UNL     1      35.369 -17.075 -21.967  0.00  0.00    +0.057 S 
ATOM     19  O   UNL     1      36.526 -16.718 -22.778  0.00  0.00    -0.153 OA
ATOM     20  O   UNL     1      35.560 -17.542 -20.601  0.00  0.00    -0.153 OA
BRANCH  18  21
ATOM     21  N   UNL     1      34.437 -18.229 -22.815  0.00  0.00    -0.203 NA
ATOM     22  H   UNL     1      34.833 -18.368 -23.746  0.00  0.00    +0.144 HD
ATOM     23  H   UNL     1      33.477 -17.894 -22.902  0.00  0.00    +0.144 HD
ENDBRANCH  18  21
ENDBRANCH  15  18
ENDBRANCH  10  12
ENDBRANCH   7  10
BRANCH   5  24
ATOM     24  O   UNL     1      32.913  -8.086 -23.244  0.00  0.00    -0.455 OA
BRANCH  24  25
ATOM     25  C   UNL     1      33.593  -6.918 -22.788  0.00  0.00    +0.169 C 
ATOM     26  C   UNL     1      35.049  -6.953 -23.253  0.00  0.00    +0.044 C 
ATOM     27  C   UNL     1      32.861  -5.686 -23.320  0.00  0.00    +0.044 C 
ATOM     28  C   UNL     1      35.172  -6.817 -24.772  0.00  0.00    +0.004 C 
ATOM     29  C   UNL     1      32.989  -5.550 -24.837  0.00  0.00    +0.004 C 
ATOM     30  C   UNL     1      34.447  -5.575 -25.284  0.00  0.00    +0.000 C 
ENDBRANCH  24  25
ENDBRANCH   5  24
TORSDOF 6
ENDMDL
MODEL 7
REMARK VINA RESULT:      -9.1      7.264     10.851
REMARK  Name = 11574606
REMARK  6 active torsions:
REMARK  status: ('A' for Active; 'I' for Inactive)
REMARK    1  A    between atoms: C_5  and  O_24
REMARK    2  A    between atoms: C_7  and  N_10
REMARK    3  A    between atoms: N_10  and  C_12
REMARK    4  A    between atoms: C_15  and  S_18
REMARK    5  A    between atoms: S_18  and  N_21
REMARK    6  A    between atoms: O_24  and  C_25
REMARK                            x       y       z     vdW  Elec       q    Type
REMARK                         _______ _______ _______ _____ _____    ______ ____
ROOT
ATOM      1  N   UNL     1      35.032 -16.060 -23.056  0.00  0.00    -0.299 NA
ATOM      2  N   UNL     1      33.313 -14.379 -23.010  0.00  0.00    -0.106 N 
ATOM      3  N   UNL     1      32.744 -13.491 -23.868  0.00  0.00    -0.139 NA
ATOM      4  N   UNL     1      34.360 -14.685 -24.940  0.00  0.00    -0.145 NA
ATOM      5  C   UNL     1      34.743 -16.247 -21.808  0.00  0.00    +0.291 C 
ATOM      6  C   UNL     1      33.724 -15.543 -21.000  0.00  0.00    +0.105 C 
ATOM      7  C   UNL     1      33.023 -14.603 -21.655  0.00  0.00    +0.142 C 
ATOM      8  C   UNL     1      34.301 -15.099 -23.690  0.00  0.00    +0.178 C 
ATOM      9  C   UNL     1      33.407 -13.721 -24.997  0.00  0.00    +0.230 C 
ENDROOT
BRANCH   7  10
ATOM     10  N   UNL     1      32.039 -13.846 -21.086  0.00  0.00    -0.299 N 
ATOM     11  H   UNL     1      31.230 -14.333 -20.806  0.00  0.00    +0.153 HD
BRANCH  10  12
ATOM     12  C   UNL     1      32.031 -12.467 -20.850  0.00  0.00    +0.049 C 
ATOM     13  C   UNL     1      31.965 -11.971 -19.542  0.00  0.00    +0.016 C 
ATOM     14  C   UNL     1      32.092 -11.564 -21.920  0.00  0.00    +0.016 C 
ATOM     15  C   UNL     1      32.017  -9.705 -20.379  0.00  0.00    +0.122 C 
ATOM     16  C   UNL     1      31.958 -10.596 -19.307  0.00  0.00    +0.021 C 
ATOM     17  C   UNL     1      32.084 -10.190 -21.685  0.00  0.00    +0.021 C 
BRANCH  15  18
ATOM     18  S   UNL     1      32.007  -7.984 -20.086  0.00  0.00    +0.057 S 
ATOM     19  O   UNL     1      31.410  -7.325 -21.241  0.00  0.00    -0.153 OA
ATOM     20  O   UNL     1      31.466  -7.743 -18.756  0.00  0.00    -0.153 OA
BRANCH  18  21
ATOM     21  N   UNL     1      33.682  -7.648 -20.066  0.00  0.00    -0.203 NA
ATOM     22  H   UNL     1      33.829  -6.644 -20.176  0.00  0.00    +0.144 HD
ATOM     23  H   UNL     1      34.138  -8.144 -20.831  0.00  0.00    +0.144 HD
ENDBRANCH  18  21
ENDBRANCH  15  18
ENDBRANCH  10  12
ENDBRANCH   7  10
BRANCH   5  24
ATOM     24  O   UNL     1      35.414 -17.180 -21.091  0.00  0.00    -0.455 OA
BRANCH  24  25
ATOM     25  C   UNL     1      35.909 -18.229 -21.921  0.00  0.00    +0.169 C 
ATOM     26  C   UNL     1      37.249 -18.729 -21.379  0.00  0.00    +0.044 C 
ATOM     27  C   UNL     1      34.868 -19.347 -21.972  0.00  0.00    +0.044 C 
ATOM     28  C   UNL     1      37.096 -19.439 -20.033  0.00  0.00    +0.004 C 
ATOM     29  C   UNL     1      34.721 -20.058 -20.626  0.00  0.00    +0.004 C 
ATOM     30  C   UNL     1      36.063 -20.561 -20.104  0.00  0.00    +0.000 C 
ENDBRANCH  24  25
ENDBRANCH   5  24
TORSDOF 6
ENDMDL
MODEL 8
REMARK VINA RESULT:      -9.1      5.740     11.216
REMARK  Name = 11574606
REMARK  6 active torsions:
REMARK  status: ('A' for Active; 'I' for Inactive)
REMARK    1  A    between atoms: C_5  and  O_24
REMARK    2  A    between atoms: C_7  and  N_10
REMARK    3  A    between atoms: N_10  and  C_12
REMARK    4  A    between atoms: C_15  and  S_18
REMARK    5  A    between atoms: S_18  and  N_21
REMARK    6  A    between atoms: O_24  and  C_25
REMARK                            x       y       z     vdW  Elec       q    Type
REMARK                         _______ _______ _______ _____ _____    ______ ____
ROOT
ATOM      1  N   UNL     1      33.040 -13.562 -23.371  0.00  0.00    -0.299 NA
ATOM      2  N   UNL     1      34.315 -15.404 -24.245  0.00  0.00    -0.106 N 
ATOM      3  N   UNL     1      34.489 -16.037 -25.435  0.00  0.00    -0.139 NA
ATOM      4  N   UNL     1      33.001 -14.329 -25.672  0.00  0.00    -0.145 NA
ATOM      5  C   UNL     1      33.604 -13.838 -22.239  0.00  0.00    +0.291 C 
ATOM      6  C   UNL     1      34.580 -14.912 -21.953  0.00  0.00    +0.105 C 
ATOM      7  C   UNL     1      34.910 -15.681 -23.005  0.00  0.00    +0.142 C 
ATOM      8  C   UNL     1      33.397 -14.360 -24.416  0.00  0.00    +0.178 C 
ATOM      9  C   UNL     1      33.685 -15.353 -26.243  0.00  0.00    +0.230 C 
ENDROOT
BRANCH   7  10
ATOM     10  N   UNL     1      35.793 -16.721 -22.946  0.00  0.00    -0.299 N 
ATOM     11  H   UNL     1      36.556 -16.672 -23.566  0.00  0.00    +0.153 HD
BRANCH  10  12
ATOM     12  C   UNL     1      35.752 -17.848 -22.118  0.00  0.00    +0.049 C 
ATOM     13  C   UNL     1      34.568 -18.581 -21.974  0.00  0.00    +0.016 C 
ATOM     14  C   UNL     1      36.898 -18.259 -21.422  0.00  0.00    +0.016 C 
ATOM     15  C   UNL     1      35.672 -20.105 -20.459  0.00  0.00    +0.122 C 
ATOM     16  C   UNL     1      34.527 -19.705 -21.148  0.00  0.00    +0.021 C 
ATOM     17  C   UNL     1      36.857 -19.381 -20.597  0.00  0.00    +0.021 C 
BRANCH  15  18
ATOM     18  S   UNL     1      35.623 -21.510 -19.425  0.00  0.00    +0.057 S 
ATOM     19  O   UNL     1      35.863 -22.691 -20.244  0.00  0.00    -0.153 OA
ATOM     20  O   UNL     1      36.457 -21.257 -18.259  0.00  0.00    -0.153 OA
BRANCH  18  21
ATOM     21  N   UNL     1      33.985 -21.500 -18.940  0.00  0.00    -0.203 NA
ATOM     22  H   UNL     1      33.932 -21.472 -17.921  0.00  0.00    +0.144 HD
ATOM     23  H   UNL     1      33.523 -22.344 -19.281  0.00  0.00    +0.144 HD
ENDBRANCH  18  21
ENDBRANCH  15  18
ENDBRANCH  10  12
ENDBRANCH   7  10
BRANCH   5  24
ATOM     24  O   UNL     1      33.314 -13.102 -21.139  0.00  0.00    -0.455 OA
BRANCH  24  25
ATOM     25  C   UNL     1      31.915 -12.843 -21.031  0.00  0.00    +0.169 C 
ATOM     26  C   UNL     1      31.578 -12.407 -19.605  0.00  0.00    +0.044 C 
ATOM     27  C   UNL     1      31.534 -11.772 -22.053  0.00  0.00    +0.044 C 
ATOM     28  C   UNL     1      32.178 -11.042 -19.263  0.00  0.00    +0.004 C 
ATOM     29  C   UNL     1      32.131 -10.407 -21.707  0.00  0.00    +0.004 C 
ATOM     30  C   UNL     1      31.777  -9.982 -20.285  0.00  0.00    +0.000 C 
ENDBRANCH  24  25
ENDBRANCH   5  24
TORSDOF 6
ENDMDL
MODEL 9
REMARK VINA RESULT:      -8.9      3.465      8.430
REMARK  Name = 11574606
REMARK  6 active torsions:
REMARK  status: ('A' for Active; 'I' for Inactive)
REMARK    1  A    between atoms: C_5  and  O_24
REMARK    2  A    between atoms: C_7  and  N_10
REMARK    3  A    between atoms: N_10  and  C_12
REMARK    4  A    between atoms: C_15  and  S_18
REMARK    5  A    between atoms: S_18  and  N_21
REMARK    6  A    between atoms: O_24  and  C_25
REMARK                            x       y       z     vdW  Elec       q    Type
REMARK                         _______ _______ _______ _____ _____    ______ ____
ROOT
ATOM      1  N   UNL     1      37.217 -20.099 -19.033  0.00  0.00    -0.299 NA
ATOM      2  N   UNL     1      36.354 -21.861 -17.643  0.00  0.00    -0.106 N 
ATOM      3  N   UNL     1      36.625 -22.418 -16.433  0.00  0.00    -0.139 NA
ATOM      4  N   UNL     1      38.091 -20.728 -16.858  0.00  0.00    -0.145 NA
ATOM      5  C   UNL     1      36.282 -20.432 -19.864  0.00  0.00    +0.291 C 
ATOM      6  C   UNL     1      35.273 -21.503 -19.709  0.00  0.00    +0.105 C 
ATOM      7  C   UNL     1      35.351 -22.201 -18.563  0.00  0.00    +0.142 C 
ATOM      8  C   UNL     1      37.266 -20.827 -17.881  0.00  0.00    +0.178 C 
ATOM      9  C   UNL     1      37.665 -21.703 -16.016  0.00  0.00    +0.230 C 
ENDROOT
BRANCH   7  10
ATOM     10  N   UNL     1      34.511 -23.227 -18.233  0.00  0.00    -0.299 N 
ATOM     11  H   UNL     1      34.512 -23.996 -18.847  0.00  0.00    +0.153 HD
BRANCH  10  12
ATOM     12  C   UNL     1      33.648 -23.324 -17.137  0.00  0.00    +0.049 C 
ATOM     13  C   UNL     1      34.072 -23.941 -15.953  0.00  0.00    +0.016 C 
ATOM     14  C   UNL     1      32.349 -22.804 -17.208  0.00  0.00    +0.016 C 
ATOM     15  C   UNL     1      31.919 -23.517 -14.940  0.00  0.00    +0.122 C 
ATOM     16  C   UNL     1      33.211 -24.037 -14.859  0.00  0.00    +0.021 C 
ATOM     17  C   UNL     1      31.489 -22.901 -16.116  0.00  0.00    +0.021 C 
BRANCH  15  18
ATOM     18  S   UNL     1      30.841 -23.638 -13.573  0.00  0.00    +0.057 S 
ATOM     19  O   UNL     1      31.592 -23.314 -12.367  0.00  0.00    -0.153 OA
ATOM     20  O   UNL     1      29.618 -22.911 -13.881  0.00  0.00    -0.153 OA
BRANCH  18  21
ATOM     21  N   UNL     1      30.500 -25.312 -13.575  0.00  0.00    -0.203 NA
ATOM     22  H   UNL     1      30.732 -25.706 -14.488  0.00  0.00    +0.144 HD
ATOM     23  H   UNL     1      29.508 -25.458 -13.385  0.00  0.00    +0.144 HD
ENDBRANCH  18  21
ENDBRANCH  15  18
ENDBRANCH  10  12
ENDBRANCH   7  10
BRANCH   5  24
ATOM     24  O   UNL     1      36.151 -19.768 -21.037  0.00  0.00    -0.455 OA
BRANCH  24  25
ATOM     25  C   UNL     1      34.855 -19.187 -21.172  0.00  0.00    +0.169 C 
ATOM     26  C   UNL     1      34.960 -17.663 -21.089  0.00  0.00    +0.044 C 
ATOM     27  C   UNL     1      34.251 -19.638 -22.502  0.00  0.00    +0.044 C 
ATOM     28  C   UNL     1      35.698 -17.071 -22.291  0.00  0.00    +0.004 C 
ATOM     29  C   UNL     1      34.987 -19.041 -23.701  0.00  0.00    +0.004 C 
ATOM     30  C   UNL     1      35.074 -17.521 -23.610  0.00  0.00    +0.000 C 
ENDBRANCH  24  25
ENDBRANCH   5  24
TORSDOF 6
ENDMDL
