MODEL 1
REMARK VINA RESULT:     -13.4      0.000      0.000
REMARK  Name = 4887
REMARK  9 active torsions:
REMARK  status: ('A' for Active; 'I' for Inactive)
REMARK    1  A    between atoms: N_2  and  C_8
REMARK    2  A    between atoms: C_3  and  C_23
REMARK    3  A    between atoms: C_14  and  C_20
REMARK    4  A    between atoms: C_22  and  O_28
REMARK    5  A    between atoms: O_28  and  C_29
REMARK    6  A    between atoms: C_29  and  C_30
REMARK    7  A    between atoms: C_30  and  C_31
REMARK    8  A    between atoms: C_31  and  C_32
REMARK    9  A    between atoms: C_32  and  C_33
REMARK                            x       y       z     vdW  Elec       q    Type
REMARK                         _______ _______ _______ _____ _____    ______ ____
ROOT
ATOM      1  O   UNL     1      33.662 -24.073 -18.348  0.00  0.00    -0.270 OA
ATOM      2  N   UNL     1      33.898 -22.505 -16.612  0.00  0.00    -0.278 N 
ATOM      3  C   UNL     1      33.836 -22.928 -17.946  0.00  0.00    +0.250 C 
ATOM      4  H   UNL     1      34.044 -21.542 -16.471  0.00  0.00    +0.155 HD
ENDROOT
BRANCH   2   8
ATOM      5  O   UNL     1      31.431 -23.288 -15.706  0.00  0.00    -0.442 OA
ATOM      6  O   UNL     1      30.952 -25.560 -12.360  0.00  0.00    -0.286 OA
ATOM      7  C   UNL     1      32.529 -23.688 -14.988  0.00  0.00    +0.163 C 
ATOM      8  C   UNL     1      33.779 -23.284 -15.458  0.00  0.00    +0.086 C 
ATOM      9  C   UNL     1      32.438 -24.465 -13.835  0.00  0.00    +0.075 C 
ATOM     10  C   UNL     1      34.933 -23.660 -14.771  0.00  0.00    +0.018 C 
ATOM     11  C   UNL     1      33.591 -24.844 -13.145  0.00  0.00    +0.006 C 
ATOM     12  C   UNL     1      31.108 -24.877 -13.363  0.00  0.00    +0.202 C 
ATOM     13  C   UNL     1      34.840 -24.438 -13.617  0.00  0.00    +0.002 C 
ATOM     14  C   UNL     1      30.168 -23.670 -15.266  0.00  0.00    +0.213 C 
ATOM     15  C   UNL     1      29.960 -24.419 -14.170  0.00  0.00    +0.090 C 
BRANCH  14  20
ATOM     16  N   UNL     1      28.619 -23.774 -17.204  0.00  0.00    -0.107 NA
ATOM     17  N   UNL     1      28.507 -21.990 -15.813  0.00  0.00    -0.084 NA
ATOM     18  N   UNL     1      27.687 -22.872 -17.546  0.00  0.00    -0.140 N 
ATOM     19  N   UNL     1      27.586 -21.799 -16.749  0.00  0.00    -0.022 NA
ATOM     20  C   UNL     1      29.106 -23.178 -16.113  0.00  0.00    +0.109 C 
ATOM     21  H   UNL     1      27.112 -22.991 -18.335  0.00  0.00    +0.197 HD
ENDBRANCH  14  20
ENDBRANCH   2   8
BRANCH   3  23
ATOM     22  C   UNL     1      34.387 -19.852 -20.864  0.00  0.00    +0.139 C 
ATOM     23  C   UNL     1      34.027 -21.859 -18.961  0.00  0.00    +0.054 C 
ATOM     24  C   UNL     1      35.491 -20.536 -20.354  0.00  0.00    +0.037 C 
ATOM     25  C   UNL     1      33.103 -20.171 -20.423  0.00  0.00    +0.037 C 
ATOM     26  C   UNL     1      35.311 -21.539 -19.402  0.00  0.00    +0.008 C 
ATOM     27  C   UNL     1      32.923 -21.175 -19.471  0.00  0.00    +0.008 C 
BRANCH  22  28
ATOM     28  O   UNL     1      34.563 -18.875 -21.795  0.00  0.00    -0.475 OA
BRANCH  28  29
ATOM     29  C   UNL     1      34.875 -19.292 -23.123  0.00  0.00    +0.205 C 
BRANCH  29  30
ATOM     30  C   UNL     1      34.931 -18.066 -24.024  0.00  0.00    +0.048 C 
BRANCH  30  31
ATOM     31  C   UNL     1      35.312 -16.810 -23.241  0.00  0.00    +0.009 C 
BRANCH  31  32
ATOM     32  C   UNL     1      34.565 -15.582 -23.767  0.00  0.00    +0.026 C 
BRANCH  32  33
ATOM     33  C   UNL     1      33.824 -14.868 -22.665  0.00  0.00    -0.022 C 
ATOM     34  C   UNL     1      33.099 -13.711 -22.949  0.00  0.00    -0.004 C 
ATOM     35  C   UNL     1      33.865 -15.362 -21.362  0.00  0.00    -0.004 C 
ATOM     36  C   UNL     1      32.414 -13.049 -21.930  0.00  0.00    -0.000 C 
ATOM     37  C   UNL     1      33.181 -14.702 -20.342  0.00  0.00    -0.000 C 
ATOM     38  C   UNL     1      32.455 -13.545 -20.626  0.00  0.00    -0.000 C 
ENDBRANCH  32  33
ENDBRANCH  31  32
ENDBRANCH  30  31
ENDBRANCH  29  30
ENDBRANCH  28  29
ENDBRANCH  22  28
ENDBRANCH   3  23
TORSDOF 9
ENDMDL
MODEL 2
REMARK VINA RESULT:     -13.1      1.670      3.857
REMARK  Name = 4887
REMARK  9 active torsions:
REMARK  status: ('A' for Active; 'I' for Inactive)
REMARK    1  A    between atoms: N_2  and  C_8
REMARK    2  A    between atoms: C_3  and  C_23
REMARK    3  A    between atoms: C_14  and  C_20
REMARK    4  A    between atoms: C_22  and  O_28
REMARK    5  A    between atoms: O_28  and  C_29
REMARK    6  A    between atoms: C_29  and  C_30
REMARK    7  A    between atoms: C_30  and  C_31
REMARK    8  A    between atoms: C_31  and  C_32
REMARK    9  A    between atoms: C_32  and  C_33
REMARK                            x       y       z     vdW  Elec       q    Type
REMARK                         _______ _______ _______ _____ _____    ______ ____
ROOT
ATOM      1  O   UNL     1      33.583 -23.853 -18.418  0.00  0.00    -0.270 OA
ATOM      2  N   UNL     1      32.320 -22.155 -17.394  0.00  0.00    -0.278 N 
ATOM      3  C   UNL     1      33.248 -22.679 -18.303  0.00  0.00    +0.250 C 
ATOM      4  H   UNL     1      32.172 -21.183 -17.441  0.00  0.00    +0.155 HD
ENDROOT
BRANCH   2   8
ATOM      5  O   UNL     1      33.569 -23.311 -15.243  0.00  0.00    -0.442 OA
ATOM      6  O   UNL     1      31.526 -25.340 -12.363  0.00  0.00    -0.286 OA
ATOM      7  C   UNL     1      32.205 -23.435 -15.330  0.00  0.00    +0.163 C 
ATOM      8  C   UNL     1      31.581 -22.843 -16.429  0.00  0.00    +0.086 C 
ATOM      9  C   UNL     1      31.445 -24.115 -14.381  0.00  0.00    +0.075 C 
ATOM     10  C   UNL     1      30.197 -22.935 -16.573  0.00  0.00    +0.018 C 
ATOM     11  C   UNL     1      30.058 -24.209 -14.521  0.00  0.00    +0.006 C 
ATOM     12  C   UNL     1      32.129 -24.729 -13.235  0.00  0.00    +0.202 C 
ATOM     13  C   UNL     1      29.437 -23.617 -15.621  0.00  0.00    +0.002 C 
ATOM     14  C   UNL     1      34.226 -23.890 -14.163  0.00  0.00    +0.213 C 
ATOM     15  C   UNL     1      33.596 -24.568 -13.189  0.00  0.00    +0.090 C 
BRANCH  14  20
ATOM     16  N   UNL     1      36.401 -23.478 -15.288  0.00  0.00    -0.107 NA
ATOM     17  N   UNL     1      36.363 -23.693 -13.033  0.00  0.00    -0.084 NA
ATOM     18  N   UNL     1      37.604 -23.362 -14.707  0.00  0.00    -0.140 N 
ATOM     19  N   UNL     1      37.628 -23.483 -13.373  0.00  0.00    -0.022 NA
ATOM     20  C   UNL     1      35.655 -23.684 -14.199  0.00  0.00    +0.109 C 
ATOM     21  H   UNL     1      38.421 -23.198 -15.230  0.00  0.00    +0.197 HD
ENDBRANCH  14  20
ENDBRANCH   2   8
BRANCH   3  23
ATOM     22  C   UNL     1      35.119 -19.811 -20.864  0.00  0.00    +0.139 C 
ATOM     23  C   UNL     1      33.898 -21.682 -19.193  0.00  0.00    +0.054 C 
ATOM     24  C   UNL     1      35.898 -20.725 -20.153  0.00  0.00    +0.037 C 
ATOM     25  C   UNL     1      33.730 -19.833 -20.739  0.00  0.00    +0.037 C 
ATOM     26  C   UNL     1      35.287 -21.660 -19.317  0.00  0.00    +0.008 C 
ATOM     27  C   UNL     1      33.119 -20.769 -19.904  0.00  0.00    +0.008 C 
BRANCH  22  28
ATOM     28  O   UNL     1      35.714 -18.901 -21.681  0.00  0.00    -0.475 OA
BRANCH  28  29
ATOM     29  C   UNL     1      35.504 -19.052 -23.084  0.00  0.00    +0.205 C 
BRANCH  29  30
ATOM     30  C   UNL     1      34.931 -17.755 -23.638  0.00  0.00    +0.048 C 
BRANCH  30  31
ATOM     31  C   UNL     1      35.294 -16.559 -22.759  0.00  0.00    +0.009 C 
BRANCH  31  32
ATOM     32  C   UNL     1      34.759 -15.253 -23.353  0.00  0.00    +0.026 C 
BRANCH  32  33
ATOM     33  C   UNL     1      33.829 -14.548 -22.398  0.00  0.00    -0.022 C 
ATOM     34  C   UNL     1      33.210 -13.357 -22.779  0.00  0.00    -0.004 C 
ATOM     35  C   UNL     1      33.587 -15.085 -21.135  0.00  0.00    -0.004 C 
ATOM     36  C   UNL     1      32.351 -12.704 -21.897  0.00  0.00    -0.000 C 
ATOM     37  C   UNL     1      32.727 -14.433 -20.251  0.00  0.00    -0.000 C 
ATOM     38  C   UNL     1      32.109 -13.242 -20.633  0.00  0.00    -0.000 C 
ENDBRANCH  32  33
ENDBRANCH  31  32
ENDBRANCH  30  31
ENDBRANCH  29  30
ENDBRANCH  28  29
ENDBRANCH  22  28
ENDBRANCH   3  23
TORSDOF 9
ENDMDL
MODEL 3
REMARK VINA RESULT:     -11.9      2.567      3.573
REMARK  Name = 4887
REMARK  9 active torsions:
REMARK  status: ('A' for Active; 'I' for Inactive)
REMARK    1  A    between atoms: N_2  and  C_8
REMARK    2  A    between atoms: C_3  and  C_23
REMARK    3  A    between atoms: C_14  and  C_20
REMARK    4  A    between atoms: C_22  and  O_28
REMARK    5  A    between atoms: O_28  and  C_29
REMARK    6  A    between atoms: C_29  and  C_30
REMARK    7  A    between atoms: C_30  and  C_31
REMARK    8  A    between atoms: C_31  and  C_32
REMARK    9  A    between atoms: C_32  and  C_33
REMARK                            x       y       z     vdW  Elec       q    Type
REMARK                         _______ _______ _______ _____ _____    ______ ____
ROOT
ATOM      1  O   UNL     1      37.937 -21.235 -16.124  0.00  0.00    -0.270 OA
ATOM      2  N   UNL     1      36.840 -23.313 -16.185  0.00  0.00    -0.278 N 
ATOM      3  C   UNL     1      37.177 -22.038 -16.655  0.00  0.00    +0.250 C 
ATOM      4  H   UNL     1      36.211 -23.826 -16.742  0.00  0.00    +0.155 HD
ENDROOT
BRANCH   2   8
ATOM      5  O   UNL     1      35.096 -23.866 -14.141  0.00  0.00    -0.442 OA
ATOM      6  O   UNL     1      36.272 -25.707 -10.705  0.00  0.00    -0.286 OA
ATOM      7  C   UNL     1      36.408 -24.232 -13.976  0.00  0.00    +0.163 C 
ATOM      8  C   UNL     1      37.286 -23.946 -15.022  0.00  0.00    +0.086 C 
ATOM      9  C   UNL     1      36.878 -24.864 -12.827  0.00  0.00    +0.075 C 
ATOM     10  C   UNL     1      38.632 -24.293 -14.913  0.00  0.00    +0.018 C 
ATOM     11  C   UNL     1      38.225 -25.215 -12.713  0.00  0.00    +0.006 C 
ATOM     12  C   UNL     1      35.931 -25.153 -11.741  0.00  0.00    +0.202 C 
ATOM     13  C   UNL     1      39.101 -24.927 -13.761  0.00  0.00    +0.002 C 
ATOM     14  C   UNL     1      34.192 -24.133 -13.119  0.00  0.00    +0.213 C 
ATOM     15  C   UNL     1      34.532 -24.738 -11.969  0.00  0.00    +0.090 C 
BRANCH  14  20
ATOM     16  N   UNL     1      31.756 -23.911 -12.694  0.00  0.00    -0.107 NA
ATOM     17  N   UNL     1      32.625 -22.981 -14.567  0.00  0.00    -0.084 NA
ATOM     18  N   UNL     1      30.853 -23.285 -13.462  0.00  0.00    -0.140 N 
ATOM     19  N   UNL     1      31.324 -22.720 -14.582  0.00  0.00    -0.022 NA
ATOM     20  C   UNL     1      32.852 -23.693 -13.426  0.00  0.00    +0.109 C 
ATOM     21  H   UNL     1      29.901 -23.244 -13.219  0.00  0.00    +0.197 HD
ENDBRANCH  14  20
ENDBRANCH   2   8
BRANCH   3  23
ATOM     22  C   UNL     1      35.266 -20.864 -20.295  0.00  0.00    +0.139 C 
ATOM     23  C   UNL     1      36.513 -21.630 -17.920  0.00  0.00    +0.054 C 
ATOM     24  C   UNL     1      36.579 -20.468 -20.037  0.00  0.00    +0.037 C 
ATOM     25  C   UNL     1      34.576 -21.642 -19.365  0.00  0.00    +0.037 C 
ATOM     26  C   UNL     1      37.202 -20.851 -18.850  0.00  0.00    +0.008 C 
ATOM     27  C   UNL     1      35.199 -22.025 -18.178  0.00  0.00    +0.008 C 
BRANCH  22  28
ATOM     28  O   UNL     1      34.659 -20.492 -21.455  0.00  0.00    -0.475 OA
BRANCH  28  29
ATOM     29  C   UNL     1      34.617 -19.096 -21.747  0.00  0.00    +0.205 C 
BRANCH  29  30
ATOM     30  C   UNL     1      35.072 -18.881 -23.183  0.00  0.00    +0.048 C 
BRANCH  30  31
ATOM     31  C   UNL     1      35.002 -17.407 -23.581  0.00  0.00    +0.009 C 
BRANCH  31  32
ATOM     32  C   UNL     1      35.416 -16.499 -22.421  0.00  0.00    +0.026 C 
BRANCH  32  33
ATOM     33  C   UNL     1      34.384 -15.432 -22.154  0.00  0.00    -0.022 C 
ATOM     34  C   UNL     1      33.843 -15.290 -20.876  0.00  0.00    -0.004 C 
ATOM     35  C   UNL     1      33.970 -14.589 -23.184  0.00  0.00    -0.004 C 
ATOM     36  C   UNL     1      32.889 -14.304 -20.629  0.00  0.00    -0.000 C 
ATOM     37  C   UNL     1      33.016 -13.602 -22.937  0.00  0.00    -0.000 C 
ATOM     38  C   UNL     1      32.475 -13.459 -21.660  0.00  0.00    -0.000 C 
ENDBRANCH  32  33
ENDBRANCH  31  32
ENDBRANCH  30  31
ENDBRANCH  29  30
ENDBRANCH  28  29
ENDBRANCH  22  28
ENDBRANCH   3  23
TORSDOF 9
ENDMDL
MODEL 4
REMARK VINA RESULT:     -11.7      1.485      2.202
REMARK  Name = 4887
REMARK  9 active torsions:
REMARK  status: ('A' for Active; 'I' for Inactive)
REMARK    1  A    between atoms: N_2  and  C_8
REMARK    2  A    between atoms: C_3  and  C_23
REMARK    3  A    between atoms: C_14  and  C_20
REMARK    4  A    between atoms: C_22  and  O_28
REMARK    5  A    between atoms: O_28  and  C_29
REMARK    6  A    between atoms: C_29  and  C_30
REMARK    7  A    between atoms: C_30  and  C_31
REMARK    8  A    between atoms: C_31  and  C_32
REMARK    9  A    between atoms: C_32  and  C_33
REMARK                            x       y       z     vdW  Elec       q    Type
REMARK                         _______ _______ _______ _____ _____    ______ ____
ROOT
ATOM      1  O   UNL     1      34.338 -23.475 -18.144  0.00  0.00    -0.270 OA
ATOM      2  N   UNL     1      35.813 -22.051 -16.994  0.00  0.00    -0.278 N 
ATOM      3  C   UNL     1      35.006 -22.450 -18.067  0.00  0.00    +0.250 C 
ATOM      4  H   UNL     1      36.282 -21.192 -17.102  0.00  0.00    +0.155 HD
ENDROOT
BRANCH   2   8
ATOM      5  O   UNL     1      33.704 -22.895 -15.459  0.00  0.00    -0.442 OA
ATOM      6  O   UNL     1      34.218 -24.869 -11.934  0.00  0.00    -0.286 OA
ATOM      7  C   UNL     1      34.969 -23.158 -15.001  0.00  0.00    +0.163 C 
ATOM      8  C   UNL     1      36.035 -22.724 -15.790  0.00  0.00    +0.086 C 
ATOM      9  C   UNL     1      35.218 -23.828 -13.805  0.00  0.00    +0.075 C 
ATOM     10  C   UNL     1      37.346 -22.962 -15.377  0.00  0.00    +0.018 C 
ATOM     11  C   UNL     1      36.529 -24.069 -13.388  0.00  0.00    +0.006 C 
ATOM     12  C   UNL     1      34.076 -24.274 -12.994  0.00  0.00    +0.202 C 
ATOM     13  C   UNL     1      37.593 -23.633 -14.179  0.00  0.00    +0.002 C 
ATOM     14  C   UNL     1      32.616 -23.312 -14.698  0.00  0.00    +0.213 C 
ATOM     15  C   UNL     1      32.736 -23.966 -13.531  0.00  0.00    +0.090 C 
BRANCH  14  20
ATOM     16  N   UNL     1      31.091 -22.847 -16.602  0.00  0.00    -0.107 NA
ATOM     17  N   UNL     1      30.271 -22.732 -14.494  0.00  0.00    -0.084 NA
ATOM     18  N   UNL     1      29.792 -22.523 -16.538  0.00  0.00    -0.140 N 
ATOM     19  N   UNL     1      29.264 -22.444 -15.309  0.00  0.00    -0.022 NA
ATOM     20  C   UNL     1      31.348 -22.968 -15.297  0.00  0.00    +0.109 C 
ATOM     21  H   UNL     1      29.257 -22.354 -17.346  0.00  0.00    +0.197 HD
ENDBRANCH  14  20
ENDBRANCH   2   8
BRANCH   3  23
ATOM     22  C   UNL     1      34.975 -19.792 -21.416  0.00  0.00    +0.139 C 
ATOM     23  C   UNL     1      34.995 -21.526 -19.231  0.00  0.00    +0.054 C 
ATOM     24  C   UNL     1      36.186 -20.279 -20.923  0.00  0.00    +0.037 C 
ATOM     25  C   UNL     1      33.774 -20.172 -20.817  0.00  0.00    +0.037 C 
ATOM     26  C   UNL     1      36.196 -21.145 -19.830  0.00  0.00    +0.008 C 
ATOM     27  C   UNL     1      33.784 -21.039 -19.724  0.00  0.00    +0.008 C 
BRANCH  22  28
ATOM     28  O   UNL     1      34.965 -18.948 -22.484  0.00  0.00    -0.475 OA
BRANCH  28  29
ATOM     29  C   UNL     1      35.000 -17.549 -22.206  0.00  0.00    +0.205 C 
BRANCH  29  30
ATOM     30  C   UNL     1      35.010 -16.786 -23.523  0.00  0.00    +0.048 C 
BRANCH  30  31
ATOM     31  C   UNL     1      34.136 -15.535 -23.456  0.00  0.00    +0.009 C 
BRANCH  31  32
ATOM     32  C   UNL     1      34.702 -14.516 -22.464  0.00  0.00    +0.026 C 
BRANCH  32  33
ATOM     33  C   UNL     1      33.610 -13.694 -21.828  0.00  0.00    -0.022 C 
ATOM     34  C   UNL     1      33.111 -14.047 -20.574  0.00  0.00    -0.004 C 
ATOM     35  C   UNL     1      33.098 -12.581 -22.492  0.00  0.00    -0.004 C 
ATOM     36  C   UNL     1      32.101 -13.288 -19.985  0.00  0.00    -0.000 C 
ATOM     37  C   UNL     1      32.087 -11.820 -21.904  0.00  0.00    -0.000 C 
ATOM     38  C   UNL     1      31.589 -12.173 -20.651  0.00  0.00    -0.000 C 
ENDBRANCH  32  33
ENDBRANCH  31  32
ENDBRANCH  30  31
ENDBRANCH  29  30
ENDBRANCH  28  29
ENDBRANCH  22  28
ENDBRANCH   3  23
TORSDOF 9
ENDMDL
MODEL 5
REMARK VINA RESULT:     -11.5      2.609      4.990
REMARK  Name = 4887
REMARK  9 active torsions:
REMARK  status: ('A' for Active; 'I' for Inactive)
REMARK    1  A    between atoms: N_2  and  C_8
REMARK    2  A    between atoms: C_3  and  C_23
REMARK    3  A    between atoms: C_14  and  C_20
REMARK    4  A    between atoms: C_22  and  O_28
REMARK    5  A    between atoms: O_28  and  C_29
REMARK    6  A    between atoms: C_29  and  C_30
REMARK    7  A    between atoms: C_30  and  C_31
REMARK    8  A    between atoms: C_31  and  C_32
REMARK    9  A    between atoms: C_32  and  C_33
REMARK                            x       y       z     vdW  Elec       q    Type
REMARK                         _______ _______ _______ _____ _____    ______ ____
ROOT
ATOM      1  O   UNL     1      32.686 -23.672 -17.815  0.00  0.00    -0.270 OA
ATOM      2  N   UNL     1      33.825 -22.361 -16.231  0.00  0.00    -0.278 N 
ATOM      3  C   UNL     1      33.430 -22.744 -17.518  0.00  0.00    +0.250 C 
ATOM      4  H   UNL     1      34.430 -21.586 -16.177  0.00  0.00    +0.155 HD
ENDROOT
BRANCH   2   8
ATOM      5  O   UNL     1      35.704 -23.624 -14.683  0.00  0.00    -0.442 OA
ATOM      6  O   UNL     1      34.787 -25.361 -11.116  0.00  0.00    -0.286 OA
ATOM      7  C   UNL     1      34.415 -23.590 -14.217  0.00  0.00    +0.163 C 
ATOM      8  C   UNL     1      33.467 -22.945 -15.013  0.00  0.00    +0.086 C 
ATOM      9  C   UNL     1      34.031 -24.164 -13.007  0.00  0.00    +0.075 C 
ATOM     10  C   UNL     1      32.138 -22.878 -14.594  0.00  0.00    +0.018 C 
ATOM     11  C   UNL     1      32.702 -24.099 -12.583  0.00  0.00    +0.006 C 
ATOM     12  C   UNL     1      35.050 -24.837 -12.189  0.00  0.00    +0.202 C 
ATOM     13  C   UNL     1      31.757 -23.453 -13.381  0.00  0.00    +0.002 C 
ATOM     14  C   UNL     1      36.676 -24.260 -13.917  0.00  0.00    +0.213 C 
ATOM     15  C   UNL     1      36.422 -24.846 -12.736  0.00  0.00    +0.090 C 
BRANCH  14  20
ATOM     16  N   UNL     1      38.392 -23.384 -15.484  0.00  0.00    -0.107 NA
ATOM     17  N   UNL     1      38.938 -25.109 -14.122  0.00  0.00    -0.084 NA
ATOM     18  N   UNL     1      39.651 -23.820 -15.633  0.00  0.00    -0.140 N 
ATOM     19  N   UNL     1      40.017 -24.841 -14.846  0.00  0.00    -0.022 NA
ATOM     20  C   UNL     1      37.985 -24.222 -14.527  0.00  0.00    +0.109 C 
ATOM     21  H   UNL     1      40.270 -23.415 -16.281  0.00  0.00    +0.197 HD
ENDBRANCH  14  20
ENDBRANCH   2   8
BRANCH   3  23
ATOM     22  C   UNL     1      35.087 -20.422 -20.704  0.00  0.00    +0.139 C 
ATOM     23  C   UNL     1      34.005 -21.937 -18.626  0.00  0.00    +0.054 C 
ATOM     24  C   UNL     1      35.927 -21.155 -19.864  0.00  0.00    +0.037 C 
ATOM     25  C   UNL     1      33.707 -20.447 -20.505  0.00  0.00    +0.037 C 
ATOM     26  C   UNL     1      35.386 -21.911 -18.825  0.00  0.00    +0.008 C 
ATOM     27  C   UNL     1      33.165 -21.205 -19.466  0.00  0.00    +0.008 C 
BRANCH  22  28
ATOM     28  O   UNL     1      35.614 -19.686 -21.719  0.00  0.00    -0.475 OA
BRANCH  28  29
ATOM     29  C   UNL     1      36.274 -18.471 -21.365  0.00  0.00    +0.205 C 
BRANCH  29  30
ATOM     30  C   UNL     1      35.234 -17.367 -21.236  0.00  0.00    +0.048 C 
BRANCH  30  31
ATOM     31  C   UNL     1      35.006 -16.649 -22.566  0.00  0.00    +0.009 C 
BRANCH  31  32
ATOM     32  C   UNL     1      34.708 -15.164 -22.349  0.00  0.00    +0.026 C 
BRANCH  32  33
ATOM     33  C   UNL     1      34.248 -14.497 -23.621  0.00  0.00    -0.022 C 
ATOM     34  C   UNL     1      34.143 -13.108 -23.681  0.00  0.00    -0.004 C 
ATOM     35  C   UNL     1      33.926 -15.269 -24.736  0.00  0.00    -0.004 C 
ATOM     36  C   UNL     1      33.716 -12.491 -24.857  0.00  0.00    -0.000 C 
ATOM     37  C   UNL     1      33.500 -14.654 -25.912  0.00  0.00    -0.000 C 
ATOM     38  C   UNL     1      33.395 -13.264 -25.973  0.00  0.00    -0.000 C 
ENDBRANCH  32  33
ENDBRANCH  31  32
ENDBRANCH  30  31
ENDBRANCH  29  30
ENDBRANCH  28  29
ENDBRANCH  22  28
ENDBRANCH   3  23
TORSDOF 9
ENDMDL
MODEL 6
REMARK VINA RESULT:     -11.1      1.973      2.877
REMARK  Name = 4887
REMARK  9 active torsions:
REMARK  status: ('A' for Active; 'I' for Inactive)
REMARK    1  A    between atoms: N_2  and  C_8
REMARK    2  A    between atoms: C_3  and  C_23
REMARK    3  A    between atoms: C_14  and  C_20
REMARK    4  A    between atoms: C_22  and  O_28
REMARK    5  A    between atoms: O_28  and  C_29
REMARK    6  A    between atoms: C_29  and  C_30
REMARK    7  A    between atoms: C_30  and  C_31
REMARK    8  A    between atoms: C_31  and  C_32
REMARK    9  A    between atoms: C_32  and  C_33
REMARK                            x       y       z     vdW  Elec       q    Type
REMARK                         _______ _______ _______ _____ _____    ______ ____
ROOT
ATOM      1  O   UNL     1      37.586 -20.886 -17.197  0.00  0.00    -0.270 OA
ATOM      2  N   UNL     1      35.932 -22.542 -16.973  0.00  0.00    -0.278 N 
ATOM      3  C   UNL     1      36.593 -21.480 -17.603  0.00  0.00    +0.250 C 
ATOM      4  H   UNL     1      35.146 -22.902 -17.444  0.00  0.00    +0.155 HD
ENDROOT
BRANCH   2   8
ATOM      5  O   UNL     1      33.954 -23.298 -15.229  0.00  0.00    -0.442 OA
ATOM      6  O   UNL     1      34.756 -25.087 -11.660  0.00  0.00    -0.286 OA
ATOM      7  C   UNL     1      35.253 -23.541 -14.862  0.00  0.00    +0.163 C 
ATOM      8  C   UNL     1      36.252 -23.152 -15.757  0.00  0.00    +0.086 C 
ATOM      9  C   UNL     1      35.599 -24.148 -13.657  0.00  0.00    +0.075 C 
ATOM     10  C   UNL     1      37.592 -23.372 -15.440  0.00  0.00    +0.018 C 
ATOM     11  C   UNL     1      36.940 -24.371 -13.336  0.00  0.00    +0.006 C 
ATOM     12  C   UNL     1      34.527 -24.548 -12.734  0.00  0.00    +0.202 C 
ATOM     13  C   UNL     1      37.936 -23.981 -14.232  0.00  0.00    +0.002 C 
ATOM     14  C   UNL     1      32.933 -23.671 -14.362  0.00  0.00    +0.213 C 
ATOM     15  C   UNL     1      33.147 -24.263 -13.176  0.00  0.00    +0.090 C 
BRANCH  14  20
ATOM     16  N   UNL     1      31.331 -22.886 -16.090  0.00  0.00    -0.107 NA
ATOM     17  N   UNL     1      30.529 -23.533 -14.073  0.00  0.00    -0.084 NA
ATOM     18  N   UNL     1      29.999 -22.792 -15.976  0.00  0.00    -0.140 N 
ATOM     19  N   UNL     1      29.480 -23.165 -14.798  0.00  0.00    -0.022 NA
ATOM     20  C   UNL     1      31.620 -23.355 -14.873  0.00  0.00    +0.109 C 
ATOM     21  H   UNL     1      29.434 -22.469 -16.714  0.00  0.00    +0.197 HD
ENDBRANCH  14  20
ENDBRANCH   2   8
BRANCH   3  23
ATOM     22  C   UNL     1      34.865 -20.186 -21.293  0.00  0.00    +0.139 C 
ATOM     23  C   UNL     1      35.993 -21.030 -18.886  0.00  0.00    +0.054 C 
ATOM     24  C   UNL     1      34.096 -20.904 -20.377  0.00  0.00    +0.037 C 
ATOM     25  C   UNL     1      36.197 -19.890 -21.006  0.00  0.00    +0.037 C 
ATOM     26  C   UNL     1      34.660 -21.326 -19.173  0.00  0.00    +0.008 C 
ATOM     27  C   UNL     1      36.762 -20.312 -19.802  0.00  0.00    +0.008 C 
BRANCH  22  28
ATOM     28  O   UNL     1      34.314 -19.772 -22.467  0.00  0.00    -0.475 OA
BRANCH  28  29
ATOM     29  C   UNL     1      35.208 -19.292 -23.470  0.00  0.00    +0.205 C 
BRANCH  29  30
ATOM     30  C   UNL     1      34.778 -17.891 -23.883  0.00  0.00    +0.048 C 
BRANCH  30  31
ATOM     31  C   UNL     1      35.503 -16.818 -23.071  0.00  0.00    +0.009 C 
BRANCH  31  32
ATOM     32  C   UNL     1      34.513 -15.823 -22.461  0.00  0.00    +0.026 C 
BRANCH  32  33
ATOM     33  C   UNL     1      34.196 -14.698 -23.414  0.00  0.00    -0.022 C 
ATOM     34  C   UNL     1      33.765 -14.983 -24.710  0.00  0.00    -0.004 C 
ATOM     35  C   UNL     1      34.334 -13.374 -23.002  0.00  0.00    -0.004 C 
ATOM     36  C   UNL     1      33.472 -13.944 -25.592  0.00  0.00    -0.000 C 
ATOM     37  C   UNL     1      34.041 -12.334 -23.883  0.00  0.00    -0.000 C 
ATOM     38  C   UNL     1      33.610 -12.619 -25.179  0.00  0.00    -0.000 C 
ENDBRANCH  32  33
ENDBRANCH  31  32
ENDBRANCH  30  31
ENDBRANCH  29  30
ENDBRANCH  28  29
ENDBRANCH  22  28
ENDBRANCH   3  23
TORSDOF 9
ENDMDL
MODEL 7
REMARK VINA RESULT:     -10.7      6.159     12.929
REMARK  Name = 4887
REMARK  9 active torsions:
REMARK  status: ('A' for Active; 'I' for Inactive)
REMARK    1  A    between atoms: N_2  and  C_8
REMARK    2  A    between atoms: C_3  and  C_23
REMARK    3  A    between atoms: C_14  and  C_20
REMARK    4  A    between atoms: C_22  and  O_28
REMARK    5  A    between atoms: O_28  and  C_29
REMARK    6  A    between atoms: C_29  and  C_30
REMARK    7  A    between atoms: C_30  and  C_31
REMARK    8  A    between atoms: C_31  and  C_32
REMARK    9  A    between atoms: C_32  and  C_33
REMARK                            x       y       z     vdW  Elec       q    Type
REMARK                         _______ _______ _______ _____ _____    ______ ____
ROOT
ATOM      1  O   UNL     1      33.235 -11.980 -25.628  0.00  0.00    -0.270 OA
ATOM      2  N   UNL     1      34.775 -11.385 -23.954  0.00  0.00    -0.278 N 
ATOM      3  C   UNL     1      34.034 -12.272 -24.745  0.00  0.00    +0.250 C 
ATOM      4  H   UNL     1      35.374 -11.795 -23.290  0.00  0.00    +0.155 HD
ENDROOT
BRANCH   2   8
ATOM      5  O   UNL     1      33.108  -9.951 -22.315  0.00  0.00    -0.442 OA
ATOM      6  O   UNL     1      32.996  -5.881 -22.333  0.00  0.00    -0.286 OA
ATOM      7  C   UNL     1      33.924  -9.248 -23.164  0.00  0.00    +0.163 C 
ATOM      8  C   UNL     1      34.768  -9.988 -23.994  0.00  0.00    +0.086 C 
ATOM      9  C   UNL     1      33.937  -7.856 -23.223  0.00  0.00    +0.075 C 
ATOM     10  C   UNL     1      35.621  -9.330 -24.880  0.00  0.00    +0.018 C 
ATOM     11  C   UNL     1      34.789  -7.193 -24.108  0.00  0.00    +0.006 C 
ATOM     12  C   UNL     1      33.037  -7.103 -22.337  0.00  0.00    +0.202 C 
ATOM     13  C   UNL     1      35.632  -7.935 -24.937  0.00  0.00    +0.002 C 
ATOM     14  C   UNL     1      32.253  -9.248 -21.474  0.00  0.00    +0.213 C 
ATOM     15  C   UNL     1      32.180  -7.907 -21.444  0.00  0.00    +0.090 C 
BRANCH  14  20
ATOM     16  N   UNL     1      30.617 -11.068 -21.051  0.00  0.00    -0.107 NA
ATOM     17  N   UNL     1      31.516  -9.978 -19.281  0.00  0.00    -0.084 NA
ATOM     18  N   UNL     1      30.181 -11.506 -19.861  0.00  0.00    -0.140 N 
ATOM     19  N   UNL     1      30.688 -10.888 -18.785  0.00  0.00    -0.022 NA
ATOM     20  C   UNL     1      31.452 -10.112 -20.638  0.00  0.00    +0.109 C 
ATOM     21  H   UNL     1      29.528 -12.237 -19.783  0.00  0.00    +0.197 HD
ENDBRANCH  14  20
ENDBRANCH   2   8
BRANCH   3  23
ATOM     22  C   UNL     1      34.624 -16.418 -23.884  0.00  0.00    +0.139 C 
ATOM     23  C   UNL     1      34.240 -13.713 -24.445  0.00  0.00    +0.054 C 
ATOM     24  C   UNL     1      34.319 -16.012 -25.184  0.00  0.00    +0.037 C 
ATOM     25  C   UNL     1      34.736 -15.472 -22.865  0.00  0.00    +0.037 C 
ATOM     26  C   UNL     1      34.126 -14.659 -25.464  0.00  0.00    +0.008 C 
ATOM     27  C   UNL     1      34.544 -14.119 -23.145  0.00  0.00    +0.008 C 
BRANCH  22  28
ATOM     28  O   UNL     1      34.814 -17.738 -23.611  0.00  0.00    -0.475 OA
BRANCH  28  29
ATOM     29  C   UNL     1      35.123 -18.083 -22.261  0.00  0.00    +0.205 C 
BRANCH  29  30
ATOM     30  C   UNL     1      35.050 -19.597 -22.113  0.00  0.00    +0.048 C 
BRANCH  30  31
ATOM     31  C   UNL     1      34.620 -20.004 -20.704  0.00  0.00    +0.009 C 
BRANCH  31  32
ATOM     32  C   UNL     1      35.695 -20.852 -20.020  0.00  0.00    +0.026 C 
BRANCH  32  33
ATOM     33  C   UNL     1      35.129 -21.643 -18.868  0.00  0.00    -0.022 C 
ATOM     34  C   UNL     1      33.781 -21.998 -18.861  0.00  0.00    -0.004 C 
ATOM     35  C   UNL     1      35.954 -22.019 -17.809  0.00  0.00    -0.004 C 
ATOM     36  C   UNL     1      33.257 -22.729 -17.795  0.00  0.00    -0.000 C 
ATOM     37  C   UNL     1      35.431 -22.751 -16.742  0.00  0.00    -0.000 C 
ATOM     38  C   UNL     1      34.083 -23.106 -16.736  0.00  0.00    -0.000 C 
ENDBRANCH  32  33
ENDBRANCH  31  32
ENDBRANCH  30  31
ENDBRANCH  29  30
ENDBRANCH  28  29
ENDBRANCH  22  28
ENDBRANCH   3  23
TORSDOF 9
ENDMDL
