MODEL 1
REMARK VINA RESULT:     -12.1      0.000      0.000
REMARK  Name = 22479942
REMARK  4 active torsions:
REMARK  status: ('A' for Active; 'I' for Inactive)
REMARK    1  A    between atoms: C_4  and  C_17
REMARK    2  A    between atoms: C_7  and  C_14
REMARK    3  A    between atoms: C_20  and  N_24
REMARK    4  A    between atoms: C_25  and  C_28
REMARK                            x       y       z     vdW  Elec       q    Type
REMARK                         _______ _______ _______ _____ _____    ______ ____
ROOT
ATOM      1  N   UNL     1      32.378 -22.044 -18.948  0.00  0.00    -0.276 N 
ATOM      2  N   UNL     1      32.929 -21.211 -19.848  0.00  0.00    -0.173 NA
ATOM      3  C   UNL     1      34.477 -21.927 -18.322  0.00  0.00    +0.036 A 
ATOM      4  C   UNL     1      34.205 -21.144 -19.464  0.00  0.00    +0.102 A 
ATOM      5  C   UNL     1      33.255 -22.508 -18.004  0.00  0.00    +0.075 A 
ATOM      6  C   UNL     1      35.601 -22.210 -17.528  0.00  0.00    +0.006 C 
ATOM      7  C   UNL     1      35.448 -23.076 -16.437  0.00  0.00    +0.033 C 
ATOM      8  C   UNL     1      33.080 -23.373 -16.922  0.00  0.00    +0.019 C 
ATOM      9  C   UNL     1      34.208 -23.645 -16.141  0.00  0.00    +0.004 C 
ATOM     10  H   UNL     1      31.428 -22.297 -18.966  0.00  0.00    +0.189 HD
ENDROOT
BRANCH   7  14
ATOM     11  N   UNL     1      37.871 -23.127 -15.987  0.00  0.00    -0.218 N 
ATOM     12  N   UNL     1      36.581 -23.923 -14.412  0.00  0.00    -0.206 NA
ATOM     13  N   UNL     1      38.742 -23.503 -15.038  0.00  0.00    -0.157 NA
ATOM     14  C   UNL     1      36.589 -23.379 -15.608  0.00  0.00    +0.149 C 
ATOM     15  C   UNL     1      37.911 -23.978 -14.106  0.00  0.00    +0.218 C 
ATOM     16  H   UNL     1      38.127 -22.720 -16.846  0.00  0.00    +0.176 HD
ENDBRANCH   7  14
BRANCH   4  17
ATOM     17  C   UNL     1      35.139 -20.330 -20.201  0.00  0.00    +0.021 C 
ATOM     18  C   UNL     1      34.674 -19.435 -21.166  0.00  0.00    +0.016 C 
ATOM     19  C   UNL     1      36.506 -20.437 -19.950  0.00  0.00    +0.002 C 
ATOM     20  C   UNL     1      35.578 -18.647 -21.878  0.00  0.00    +0.051 C 
ATOM     21  C   UNL     1      37.410 -19.649 -20.664  0.00  0.00    +0.001 C 
ATOM     22  C   UNL     1      36.946 -18.754 -21.628  0.00  0.00    +0.015 C 
BRANCH  20  24
ATOM     23  O   UNL     1      34.943 -15.762 -21.642  0.00  0.00    -0.266 OA
ATOM     24  N   UNL     1      35.115 -17.751 -22.842  0.00  0.00    -0.278 N 
ATOM     25  C   UNL     1      34.822 -16.380 -22.697  0.00  0.00    +0.284 C 
ATOM     26  H   UNL     1      34.975 -18.126 -23.742  0.00  0.00    +0.155 HD
BRANCH  25  28
ATOM     27  O   UNL     1      33.493 -14.643 -23.748  0.00  0.00    -0.446 OA
ATOM     28  C   UNL     1      34.308 -15.719 -23.908  0.00  0.00    +0.199 C 
ATOM     29  C   UNL     1      34.497 -15.985 -25.244  0.00  0.00    +0.045 C 
ATOM     30  C   UNL     1      33.751 -15.012 -25.950  0.00  0.00    +0.044 C 
ATOM     31  C   UNL     1      33.159 -14.218 -24.994  0.00  0.00    +0.180 C 
ENDBRANCH  25  28
ENDBRANCH  20  24
ENDBRANCH   4  17
TORSDOF 4
ENDMDL
MODEL 2
REMARK VINA RESULT:     -11.9      2.151      3.276
REMARK  Name = 22479942
REMARK  4 active torsions:
REMARK  status: ('A' for Active; 'I' for Inactive)
REMARK    1  A    between atoms: C_4  and  C_17
REMARK    2  A    between atoms: C_7  and  C_14
REMARK    3  A    between atoms: C_20  and  N_24
REMARK    4  A    between atoms: C_25  and  C_28
REMARK                            x       y       z     vdW  Elec       q    Type
REMARK                         _______ _______ _______ _____ _____    ______ ____
ROOT
ATOM      1  N   UNL     1      31.250 -23.126 -16.828  0.00  0.00    -0.276 N 
ATOM      2  N   UNL     1      32.046 -22.572 -17.758  0.00  0.00    -0.173 NA
ATOM      3  C   UNL     1      33.249 -23.247 -15.932  0.00  0.00    +0.036 A 
ATOM      4  C   UNL     1      33.260 -22.648 -17.210  0.00  0.00    +0.102 A 
ATOM      5  C   UNL     1      31.911 -23.551 -15.706  0.00  0.00    +0.075 A 
ATOM      6  C   UNL     1      34.202 -23.563 -14.949  0.00  0.00    +0.006 C 
ATOM      7  C   UNL     1      33.766 -24.179 -13.769  0.00  0.00    +0.033 C 
ATOM      8  C   UNL     1      31.456 -24.164 -14.537  0.00  0.00    +0.019 C 
ATOM      9  C   UNL     1      32.416 -24.473 -13.569  0.00  0.00    +0.004 C 
ATOM     10  H   UNL     1      30.277 -23.218 -16.942  0.00  0.00    +0.189 HD
ENDROOT
BRANCH   7  14
ATOM     11  N   UNL     1      35.703 -25.445 -12.919  0.00  0.00    -0.218 N 
ATOM     12  N   UNL     1      34.818 -23.999 -11.541  0.00  0.00    -0.206 NA
ATOM     13  N   UNL     1      36.462 -25.565 -11.819  0.00  0.00    -0.157 NA
ATOM     14  C   UNL     1      34.728 -24.512 -12.746  0.00  0.00    +0.149 C 
ATOM     15  C   UNL     1      35.885 -24.669 -11.015  0.00  0.00    +0.218 C 
ATOM     16  H   UNL     1      35.835 -25.965 -13.745  0.00  0.00    +0.176 HD
ENDBRANCH   7  14
BRANCH   4  17
ATOM     17  C   UNL     1      34.408 -22.147 -17.923  0.00  0.00    +0.021 C 
ATOM     18  C   UNL     1      34.233 -21.413 -19.097  0.00  0.00    +0.016 C 
ATOM     19  C   UNL     1      35.692 -22.394 -17.441  0.00  0.00    +0.002 C 
ATOM     20  C   UNL     1      35.343 -20.927 -19.787  0.00  0.00    +0.051 C 
ATOM     21  C   UNL     1      36.803 -21.909 -18.132  0.00  0.00    +0.001 C 
ATOM     22  C   UNL     1      36.629 -21.175 -19.305  0.00  0.00    +0.015 C 
BRANCH  20  24
ATOM     23  O   UNL     1      36.317 -18.219 -20.495  0.00  0.00    -0.266 OA
ATOM     24  N   UNL     1      35.170 -20.192 -20.961  0.00  0.00    -0.278 N 
ATOM     25  C   UNL     1      35.648 -18.902 -21.267  0.00  0.00    +0.284 C 
ATOM     26  H   UNL     1      34.646 -20.634 -21.668  0.00  0.00    +0.155 HD
BRANCH  25  28
ATOM     27  O   UNL     1      35.329 -17.045 -22.795  0.00  0.00    -0.446 OA
ATOM     28  C   UNL     1      35.254 -18.386 -22.589  0.00  0.00    +0.199 C 
ATOM     29  C   UNL     1      34.802 -19.025 -23.719  0.00  0.00    +0.045 C 
ATOM     30  C   UNL     1      34.584 -18.012 -24.683  0.00  0.00    +0.044 C 
ATOM     31  C   UNL     1      34.920 -16.825 -24.072  0.00  0.00    +0.180 C 
ENDBRANCH  25  28
ENDBRANCH  20  24
ENDBRANCH   4  17
TORSDOF 4
ENDMDL
MODEL 3
REMARK VINA RESULT:     -11.3      4.967      8.542
REMARK  Name = 22479942
REMARK  4 active torsions:
REMARK  status: ('A' for Active; 'I' for Inactive)
REMARK    1  A    between atoms: C_4  and  C_17
REMARK    2  A    between atoms: C_7  and  C_14
REMARK    3  A    between atoms: C_20  and  N_24
REMARK    4  A    between atoms: C_25  and  C_28
REMARK                            x       y       z     vdW  Elec       q    Type
REMARK                         _______ _______ _______ _____ _____    ______ ____
ROOT
ATOM      1  N   UNL     1      33.775 -14.578 -25.323  0.00  0.00    -0.276 N 
ATOM      2  N   UNL     1      33.205 -13.645 -24.541  0.00  0.00    -0.173 NA
ATOM      3  C   UNL     1      33.985 -15.403 -23.302  0.00  0.00    +0.036 A 
ATOM      4  C   UNL     1      33.335 -14.151 -23.313  0.00  0.00    +0.102 A 
ATOM      5  C   UNL     1      34.263 -15.660 -24.640  0.00  0.00    +0.075 A 
ATOM      6  C   UNL     1      34.367 -16.341 -22.328  0.00  0.00    +0.006 C 
ATOM      7  C   UNL     1      35.019 -17.509 -22.744  0.00  0.00    +0.033 C 
ATOM      8  C   UNL     1      34.911 -16.817 -25.076  0.00  0.00    +0.019 C 
ATOM      9  C   UNL     1      35.285 -17.741 -24.095  0.00  0.00    +0.004 C 
ATOM     10  H   UNL     1      33.836 -14.491 -26.301  0.00  0.00    +0.189 HD
ENDROOT
BRANCH   7  14
ATOM     11  N   UNL     1      36.572 -18.390 -21.044  0.00  0.00    -0.218 N 
ATOM     12  N   UNL     1      34.773 -19.575 -21.412  0.00  0.00    -0.206 NA
ATOM     13  N   UNL     1      36.708 -19.425 -20.200  0.00  0.00    -0.157 NA
ATOM     14  C   UNL     1      35.419 -18.487 -21.760  0.00  0.00    +0.149 C 
ATOM     15  C   UNL     1      35.593 -20.112 -20.462  0.00  0.00    +0.218 C 
ATOM     16  H   UNL     1      37.222 -17.656 -21.132  0.00  0.00    +0.176 HD
ENDBRANCH   7  14
BRANCH   4  17
ATOM     17  C   UNL     1      32.835 -13.422 -22.175  0.00  0.00    +0.021 C 
ATOM     18  C   UNL     1      32.478 -12.079 -22.309  0.00  0.00    +0.016 C 
ATOM     19  C   UNL     1      32.709 -14.057 -20.941  0.00  0.00    +0.002 C 
ATOM     20  C   UNL     1      31.994 -11.374 -21.207  0.00  0.00    +0.051 C 
ATOM     21  C   UNL     1      32.225 -13.351 -19.839  0.00  0.00    +0.001 C 
ATOM     22  C   UNL     1      31.867 -12.010 -19.972  0.00  0.00    +0.015 C 
BRANCH  20  24
ATOM     23  O   UNL     1      33.195  -9.241 -22.878  0.00  0.00    -0.266 OA
ATOM     24  N   UNL     1      31.635 -10.032 -21.340  0.00  0.00    -0.278 N 
ATOM     25  C   UNL     1      32.228  -9.040 -22.146  0.00  0.00    +0.284 C 
ATOM     26  H   UNL     1      30.865  -9.741 -20.799  0.00  0.00    +0.155 HD
BRANCH  25  28
ATOM     27  O   UNL     1      31.831  -7.015 -20.870  0.00  0.00    -0.446 OA
ATOM     28  C   UNL     1      31.633  -7.699 -22.028  0.00  0.00    +0.199 C 
ATOM     29  C   UNL     1      30.873  -6.957 -22.902  0.00  0.00    +0.045 C 
ATOM     30  C   UNL     1      30.587  -5.739 -22.240  0.00  0.00    +0.044 C 
ATOM     31  C   UNL     1      31.193  -5.824 -21.007  0.00  0.00    +0.180 C 
ENDBRANCH  25  28
ENDBRANCH  20  24
ENDBRANCH   4  17
TORSDOF 4
ENDMDL
MODEL 4
REMARK VINA RESULT:     -10.9      6.458      8.169
REMARK  Name = 22479942
REMARK  4 active torsions:
REMARK  status: ('A' for Active; 'I' for Inactive)
REMARK    1  A    between atoms: C_4  and  C_17
REMARK    2  A    between atoms: C_7  and  C_14
REMARK    3  A    between atoms: C_20  and  N_24
REMARK    4  A    between atoms: C_25  and  C_28
REMARK                            x       y       z     vdW  Elec       q    Type
REMARK                         _______ _______ _______ _____ _____    ______ ____
ROOT
ATOM      1  N   UNL     1      34.165 -23.938 -11.423  0.00  0.00    -0.276 N 
ATOM      2  N   UNL     1      33.368 -23.593 -12.448  0.00  0.00    -0.173 NA
ATOM      3  C   UNL     1      35.446 -24.206 -13.183  0.00  0.00    +0.036 A 
ATOM      4  C   UNL     1      34.150 -23.757 -13.516  0.00  0.00    +0.102 A 
ATOM      5  C   UNL     1      35.427 -24.316 -11.797  0.00  0.00    +0.075 A 
ATOM      6  C   UNL     1      36.621 -24.528 -13.883  0.00  0.00    +0.006 C 
ATOM      7  C   UNL     1      37.739 -24.953 -13.153  0.00  0.00    +0.033 C 
ATOM      8  C   UNL     1      36.529 -24.736 -11.051  0.00  0.00    +0.019 C 
ATOM      9  C   UNL     1      37.691 -25.054 -11.761  0.00  0.00    +0.004 C 
ATOM     10  H   UNL     1      33.867 -23.921 -10.485  0.00  0.00    +0.189 HD
ENDROOT
BRANCH   7  14
ATOM     11  N   UNL     1      39.657 -26.430 -13.617  0.00  0.00    -0.218 N 
ATOM     12  N   UNL     1      39.561 -24.582 -14.780  0.00  0.00    -0.206 NA
ATOM     13  N   UNL     1      40.747 -26.500 -14.395  0.00  0.00    -0.157 NA
ATOM     14  C   UNL     1      38.956 -25.288 -13.851  0.00  0.00    +0.149 C 
ATOM     15  C   UNL     1      40.643 -25.358 -15.080  0.00  0.00    +0.218 C 
ATOM     16  H   UNL     1      39.396 -27.117 -12.961  0.00  0.00    +0.176 HD
ENDBRANCH   7  14
BRANCH   4  17
ATOM     17  C   UNL     1      33.639 -23.483 -14.836  0.00  0.00    +0.021 C 
ATOM     18  C   UNL     1      32.293 -23.156 -15.008  0.00  0.00    +0.016 C 
ATOM     19  C   UNL     1      34.489 -23.542 -15.939  0.00  0.00    +0.002 C 
ATOM     20  C   UNL     1      31.799 -22.891 -16.285  0.00  0.00    +0.051 C 
ATOM     21  C   UNL     1      33.994 -23.277 -17.216  0.00  0.00    +0.001 C 
ATOM     22  C   UNL     1      32.649 -22.951 -17.390  0.00  0.00    +0.015 C 
BRANCH  20  24
ATOM     23  O   UNL     1      29.370 -24.531 -15.843  0.00  0.00    -0.266 OA
ATOM     24  N   UNL     1      30.453 -22.563 -16.459  0.00  0.00    -0.278 N 
ATOM     25  C   UNL     1      29.319 -23.369 -16.239  0.00  0.00    +0.284 C 
ATOM     26  H   UNL     1      30.274 -21.648 -16.776  0.00  0.00    +0.155 HD
BRANCH  25  28
ATOM     27  O   UNL     1      27.668 -22.651 -17.866  0.00  0.00    -0.446 OA
ATOM     28  C   UNL     1      28.029 -22.734 -16.559  0.00  0.00    +0.199 C 
ATOM     29  C   UNL     1      27.062 -22.177 -15.755  0.00  0.00    +0.045 C 
ATOM     30  C   UNL     1      26.041 -21.723 -16.624  0.00  0.00    +0.044 C 
ATOM     31  C   UNL     1      26.458 -22.035 -17.898  0.00  0.00    +0.180 C 
ENDBRANCH  25  28
ENDBRANCH  20  24
ENDBRANCH   4  17
TORSDOF 4
ENDMDL
MODEL 5
REMARK VINA RESULT:     -10.9      4.547      8.859
REMARK  Name = 22479942
REMARK  4 active torsions:
REMARK  status: ('A' for Active; 'I' for Inactive)
REMARK    1  A    between atoms: C_4  and  C_17
REMARK    2  A    between atoms: C_7  and  C_14
REMARK    3  A    between atoms: C_20  and  N_24
REMARK    4  A    between atoms: C_25  and  C_28
REMARK                            x       y       z     vdW  Elec       q    Type
REMARK                         _______ _______ _______ _____ _____    ______ ____
ROOT
ATOM      1  N   UNL     1      36.516 -23.659 -14.734  0.00  0.00    -0.276 N 
ATOM      2  N   UNL     1      35.457 -24.125 -14.052  0.00  0.00    -0.173 NA
ATOM      3  C   UNL     1      34.806 -23.060 -15.970  0.00  0.00    +0.036 A 
ATOM      4  C   UNL     1      34.419 -23.759 -14.807  0.00  0.00    +0.102 A 
ATOM      5  C   UNL     1      36.193 -23.009 -15.896  0.00  0.00    +0.075 A 
ATOM      6  C   UNL     1      34.153 -22.471 -17.066  0.00  0.00    +0.006 C 
ATOM      7  C   UNL     1      34.930 -21.849 -18.051  0.00  0.00    +0.033 C 
ATOM      8  C   UNL     1      36.986 -22.394 -16.867  0.00  0.00    +0.019 C 
ATOM      9  C   UNL     1      36.322 -21.812 -17.951  0.00  0.00    +0.004 C 
ATOM     10  H   UNL     1      37.444 -23.774 -14.427  0.00  0.00    +0.189 HD
ENDROOT
BRANCH   7  14
ATOM     11  N   UNL     1      32.938 -21.305 -19.398  0.00  0.00    -0.218 N 
ATOM     12  N   UNL     1      34.845 -20.548 -20.150  0.00  0.00    -0.206 NA
ATOM     13  N   UNL     1      32.590 -20.656 -20.519  0.00  0.00    -0.157 NA
ATOM     14  C   UNL     1      34.280 -21.236 -19.185  0.00  0.00    +0.149 C 
ATOM     15  C   UNL     1      33.779 -20.216 -20.936  0.00  0.00    +0.218 C 
ATOM     16  H   UNL     1      32.304 -21.771 -18.806  0.00  0.00    +0.176 HD
ENDBRANCH   7  14
BRANCH   4  17
ATOM     17  C   UNL     1      33.076 -24.089 -14.398  0.00  0.00    +0.021 C 
ATOM     18  C   UNL     1      31.987 -23.486 -15.028  0.00  0.00    +0.016 C 
ATOM     19  C   UNL     1      32.866 -25.011 -13.374  0.00  0.00    +0.002 C 
ATOM     20  C   UNL     1      30.689 -23.805 -14.633  0.00  0.00    +0.051 C 
ATOM     21  C   UNL     1      31.567 -25.330 -12.978  0.00  0.00    +0.001 C 
ATOM     22  C   UNL     1      30.478 -24.728 -13.608  0.00  0.00    +0.015 C 
BRANCH  20  24
ATOM     23  O   UNL     1      28.614 -24.991 -16.386  0.00  0.00    -0.266 OA
ATOM     24  N   UNL     1      29.599 -23.203 -15.263  0.00  0.00    -0.278 N 
ATOM     25  C   UNL     1      28.627 -23.798 -16.093  0.00  0.00    +0.284 C 
ATOM     26  H   UNL     1      29.495 -22.237 -15.106  0.00  0.00    +0.155 HD
BRANCH  25  28
ATOM     27  O   UNL     1      27.359 -22.931 -17.971  0.00  0.00    -0.446 OA
ATOM     28  C   UNL     1      27.620 -22.872 -16.639  0.00  0.00    +0.199 C 
ATOM     29  C   UNL     1      26.847 -21.906 -16.038  0.00  0.00    +0.045 C 
ATOM     30  C   UNL     1      26.061 -21.335 -17.066  0.00  0.00    +0.044 C 
ATOM     31  C   UNL     1      26.409 -21.993 -18.224  0.00  0.00    +0.180 C 
ENDBRANCH  25  28
ENDBRANCH  20  24
ENDBRANCH   4  17
TORSDOF 4
ENDMDL
MODEL 6
REMARK VINA RESULT:     -10.5      4.239      7.165
REMARK  Name = 22479942
REMARK  4 active torsions:
REMARK  status: ('A' for Active; 'I' for Inactive)
REMARK    1  A    between atoms: C_4  and  C_17
REMARK    2  A    between atoms: C_7  and  C_14
REMARK    3  A    between atoms: C_20  and  N_24
REMARK    4  A    between atoms: C_25  and  C_28
REMARK                            x       y       z     vdW  Elec       q    Type
REMARK                         _______ _______ _______ _____ _____    ______ ____
ROOT
ATOM      1  N   UNL     1      35.738 -16.189 -23.833  0.00  0.00    -0.276 N 
ATOM      2  N   UNL     1      35.071 -15.110 -23.391  0.00  0.00    -0.173 NA
ATOM      3  C   UNL     1      34.635 -16.945 -22.095  0.00  0.00    +0.036 A 
ATOM      4  C   UNL     1      34.402 -15.574 -22.333  0.00  0.00    +0.102 A 
ATOM      5  C   UNL     1      35.519 -17.324 -23.099  0.00  0.00    +0.075 A 
ATOM      6  C   UNL     1      34.207 -17.900 -21.158  0.00  0.00    +0.006 C 
ATOM      7  C   UNL     1      34.691 -19.210 -21.270  0.00  0.00    +0.033 C 
ATOM      8  C   UNL     1      36.013 -18.623 -23.229  0.00  0.00    +0.019 C 
ATOM      9  C   UNL     1      35.578 -19.563 -22.289  0.00  0.00    +0.004 C 
ATOM     10  H   UNL     1      36.333 -16.166 -24.617  0.00  0.00    +0.189 HD
ENDROOT
BRANCH   7  14
ATOM     11  N   UNL     1      32.957 -20.435 -20.018  0.00  0.00    -0.218 N 
ATOM     12  N   UNL     1      35.025 -21.019 -19.621  0.00  0.00    -0.206 NA
ATOM     13  N   UNL     1      32.830 -21.411 -19.107  0.00  0.00    -0.157 NA
ATOM     14  C   UNL     1      34.263 -20.208 -20.319  0.00  0.00    +0.149 C 
ATOM     15  C   UNL     1      34.110 -21.731 -18.899  0.00  0.00    +0.218 C 
ATOM     16  H   UNL     1      32.201 -19.947 -20.419  0.00  0.00    +0.176 HD
ENDBRANCH   7  14
BRANCH   4  17
ATOM     17  C   UNL     1      33.553 -14.692 -21.572  0.00  0.00    +0.021 C 
ATOM     18  C   UNL     1      33.325 -13.389 -22.016  0.00  0.00    +0.016 C 
ATOM     19  C   UNL     1      32.961 -15.141 -20.393  0.00  0.00    +0.002 C 
ATOM     20  C   UNL     1      32.504 -12.536 -21.279  0.00  0.00    +0.051 C 
ATOM     21  C   UNL     1      32.139 -14.287 -19.655  0.00  0.00    +0.001 C 
ATOM     22  C   UNL     1      31.910 -12.985 -20.098  0.00  0.00    +0.015 C 
BRANCH  20  24
ATOM     23  O   UNL     1      31.739 -10.115 -19.749  0.00  0.00    -0.266 OA
ATOM     24  N   UNL     1      32.273 -11.232 -21.722  0.00  0.00    -0.278 N 
ATOM     25  C   UNL     1      31.910 -10.100 -20.966  0.00  0.00    +0.284 C 
ATOM     26  H   UNL     1      32.379 -11.086 -22.690  0.00  0.00    +0.155 HD
BRANCH  25  28
ATOM     27  O   UNL     1      31.772  -7.681 -21.089  0.00  0.00    -0.446 OA
ATOM     28  C   UNL     1      31.700  -8.869 -21.745  0.00  0.00    +0.199 C 
ATOM     29  C   UNL     1      31.431  -8.667 -23.079  0.00  0.00    +0.045 C 
ATOM     30  C   UNL     1      31.332  -7.266 -23.254  0.00  0.00    +0.044 C 
ATOM     31  C   UNL     1      31.548  -6.711 -22.014  0.00  0.00    +0.180 C 
ENDBRANCH  25  28
ENDBRANCH  20  24
ENDBRANCH   4  17
TORSDOF 4
ENDMDL
MODEL 7
REMARK VINA RESULT:     -10.0      6.819     13.271
REMARK  Name = 22479942
REMARK  4 active torsions:
REMARK  status: ('A' for Active; 'I' for Inactive)
REMARK    1  A    between atoms: C_4  and  C_17
REMARK    2  A    between atoms: C_7  and  C_14
REMARK    3  A    between atoms: C_20  and  N_24
REMARK    4  A    between atoms: C_25  and  C_28
REMARK                            x       y       z     vdW  Elec       q    Type
REMARK                         _______ _______ _______ _____ _____    ______ ____
ROOT
ATOM      1  N   UNL     1      35.631  -9.112 -24.629  0.00  0.00    -0.276 N 
ATOM      2  N   UNL     1      35.294 -10.341 -24.200  0.00  0.00    -0.173 NA
ATOM      3  C   UNL     1      33.824  -8.763 -23.435  0.00  0.00    +0.036 A 
ATOM      4  C   UNL     1      34.195 -10.124 -23.475  0.00  0.00    +0.102 A 
ATOM      5  C   UNL     1      34.789  -8.120 -24.203  0.00  0.00    +0.075 A 
ATOM      6  C   UNL     1      32.798  -8.006 -22.845  0.00  0.00    +0.006 C 
ATOM      7  C   UNL     1      32.783  -6.621 -23.055  0.00  0.00    +0.033 C 
ATOM      8  C   UNL     1      34.792  -6.741 -24.425  0.00  0.00    +0.019 C 
ATOM      9  C   UNL     1      33.764  -6.002 -23.831  0.00  0.00    +0.004 C 
ATOM     10  H   UNL     1      36.415  -8.941 -25.198  0.00  0.00    +0.189 HD
ENDROOT
BRANCH   7  14
ATOM     11  N   UNL     1      31.277  -4.670 -23.009  0.00  0.00    -0.218 N 
ATOM     12  N   UNL     1      31.093  -6.068 -21.339  0.00  0.00    -0.206 NA
ATOM     13  N   UNL     1      30.309  -4.125 -22.257  0.00  0.00    -0.157 NA
ATOM     14  C   UNL     1      31.738  -5.825 -22.457  0.00  0.00    +0.149 C 
ATOM     15  C   UNL     1      30.236  -5.009 -21.259  0.00  0.00    +0.218 C 
ATOM     16  H   UNL     1      31.610  -4.285 -23.852  0.00  0.00    +0.176 HD
ENDBRANCH   7  14
BRANCH   4  17
ATOM     17  C   UNL     1      33.521 -11.226 -22.837  0.00  0.00    +0.021 C 
ATOM     18  C   UNL     1      34.055 -12.513 -22.922  0.00  0.00    +0.016 C 
ATOM     19  C   UNL     1      32.338 -11.007 -22.134  0.00  0.00    +0.002 C 
ATOM     20  C   UNL     1      33.403 -13.580 -22.304  0.00  0.00    +0.051 C 
ATOM     21  C   UNL     1      31.685 -12.075 -21.516  0.00  0.00    +0.001 C 
ATOM     22  C   UNL     1      32.218 -13.361 -21.601  0.00  0.00    +0.015 C 
BRANCH  20  24
ATOM     23  O   UNL     1      34.544 -15.306 -20.183  0.00  0.00    -0.266 OA
ATOM     24  N   UNL     1      33.935 -14.867 -22.388  0.00  0.00    -0.278 N 
ATOM     25  C   UNL     1      34.471 -15.663 -21.356  0.00  0.00    +0.284 C 
ATOM     26  H   UNL     1      33.935 -15.272 -23.285  0.00  0.00    +0.155 HD
BRANCH  25  28
ATOM     27  O   UNL     1      35.373 -17.851 -20.819  0.00  0.00    -0.446 OA
ATOM     28  C   UNL     1      34.994 -16.972 -21.784  0.00  0.00    +0.199 C 
ATOM     29  C   UNL     1      35.185 -17.515 -23.033  0.00  0.00    +0.045 C 
ATOM     30  C   UNL     1      35.716 -18.810 -22.823  0.00  0.00    +0.044 C 
ATOM     31  C   UNL     1      35.811 -18.967 -21.459  0.00  0.00    +0.180 C 
ENDBRANCH  25  28
ENDBRANCH  20  24
ENDBRANCH   4  17
TORSDOF 4
ENDMDL
MODEL 8
REMARK VINA RESULT:      -9.9      8.732     15.144
REMARK  Name = 22479942
REMARK  4 active torsions:
REMARK  status: ('A' for Active; 'I' for Inactive)
REMARK    1  A    between atoms: C_4  and  C_17
REMARK    2  A    between atoms: C_7  and  C_14
REMARK    3  A    between atoms: C_20  and  N_24
REMARK    4  A    between atoms: C_25  and  C_28
REMARK                            x       y       z     vdW  Elec       q    Type
REMARK                         _______ _______ _______ _____ _____    ______ ____
ROOT
ATOM      1  N   UNL     1      31.592  -7.311 -20.382  0.00  0.00    -0.276 N 
ATOM      2  N   UNL     1      32.502  -8.155 -20.896  0.00  0.00    -0.173 NA
ATOM      3  C   UNL     1      32.084  -6.416 -22.323  0.00  0.00    +0.036 A 
ATOM      4  C   UNL     1      32.799  -7.608 -22.075  0.00  0.00    +0.102 A 
ATOM      5  C   UNL     1      31.297  -6.245 -21.190  0.00  0.00    +0.075 A 
ATOM      6  C   UNL     1      32.011  -5.472 -23.361  0.00  0.00    +0.006 C 
ATOM      7  C   UNL     1      31.141  -4.384 -23.215  0.00  0.00    +0.033 C 
ATOM      8  C   UNL     1      30.423  -5.169 -21.025  0.00  0.00    +0.019 C 
ATOM      9  C   UNL     1      30.361  -4.238 -22.066  0.00  0.00    +0.004 C 
ATOM     10  H   UNL     1      31.174  -7.446 -19.501  0.00  0.00    +0.189 HD
ENDROOT
BRANCH   7  14
ATOM     11  N   UNL     1      32.092  -3.090 -25.085  0.00  0.00    -0.218 N 
ATOM     12  N   UNL     1      30.000  -2.686 -24.600  0.00  0.00    -0.206 NA
ATOM     13  N   UNL     1      31.746  -2.150 -25.978  0.00  0.00    -0.157 NA
ATOM     14  C   UNL     1      31.049  -3.403 -24.270  0.00  0.00    +0.149 C 
ATOM     15  C   UNL     1      30.471  -1.940 -25.642  0.00  0.00    +0.218 C 
ATOM     16  H   UNL     1      32.986  -3.500 -25.028  0.00  0.00    +0.176 HD
ENDBRANCH   7  14
BRANCH   4  17
ATOM     17  C   UNL     1      33.764  -8.237 -22.942  0.00  0.00    +0.021 C 
ATOM     18  C   UNL     1      33.717  -9.616 -23.152  0.00  0.00    +0.016 C 
ATOM     19  C   UNL     1      34.743  -7.469 -23.569  0.00  0.00    +0.002 C 
ATOM     20  C   UNL     1      34.651 -10.225 -23.990  0.00  0.00    +0.051 C 
ATOM     21  C   UNL     1      35.677  -8.078 -24.408  0.00  0.00    +0.001 C 
ATOM     22  C   UNL     1      35.631  -9.456 -24.618  0.00  0.00    +0.015 C 
BRANCH  20  24
ATOM     23  O   UNL     1      33.201 -12.332 -22.492  0.00  0.00    -0.266 OA
ATOM     24  N   UNL     1      34.605 -11.603 -24.202  0.00  0.00    -0.278 N 
ATOM     25  C   UNL     1      33.903 -12.581 -23.469  0.00  0.00    +0.284 C 
ATOM     26  H   UNL     1      35.132 -11.936 -24.965  0.00  0.00    +0.155 HD
BRANCH  25  28
ATOM     27  O   UNL     1      34.990 -14.740 -23.258  0.00  0.00    -0.446 OA
ATOM     28  C   UNL     1      34.097 -13.967 -23.929  0.00  0.00    +0.199 C 
ATOM     29  C   UNL     1      33.524 -14.675 -24.960  0.00  0.00    +0.045 C 
ATOM     30  C   UNL     1      34.101 -15.966 -24.919  0.00  0.00    +0.044 C 
ATOM     31  C   UNL     1      34.986 -15.956 -23.866  0.00  0.00    +0.180 C 
ENDBRANCH  25  28
ENDBRANCH  20  24
ENDBRANCH   4  17
TORSDOF 4
ENDMDL
MODEL 9
REMARK VINA RESULT:      -9.8      5.608     11.765
REMARK  Name = 22479942
REMARK  4 active torsions:
REMARK  status: ('A' for Active; 'I' for Inactive)
REMARK    1  A    between atoms: C_4  and  C_17
REMARK    2  A    between atoms: C_7  and  C_14
REMARK    3  A    between atoms: C_20  and  N_24
REMARK    4  A    between atoms: C_25  and  C_28
REMARK                            x       y       z     vdW  Elec       q    Type
REMARK                         _______ _______ _______ _____ _____    ______ ____
ROOT
ATOM      1  N   UNL     1      31.196 -11.422 -20.031  0.00  0.00    -0.276 N 
ATOM      2  N   UNL     1      31.590 -12.599 -20.545  0.00  0.00    -0.173 NA
ATOM      3  C   UNL     1      32.452 -10.844 -21.733  0.00  0.00    +0.036 A 
ATOM      4  C   UNL     1      32.354 -12.243 -21.580  0.00  0.00    +0.102 A 
ATOM      5  C   UNL     1      31.679 -10.329 -20.699  0.00  0.00    +0.075 A 
ATOM      6  C   UNL     1      33.098  -9.962 -22.616  0.00  0.00    +0.006 C 
ATOM      7  C   UNL     1      32.937  -8.584 -22.419  0.00  0.00    +0.033 C 
ATOM      8  C   UNL     1      31.506  -8.959 -20.486  0.00  0.00    +0.019 C 
ATOM      9  C   UNL     1      32.155  -8.094 -21.372  0.00  0.00    +0.004 C 
ATOM     10  H   UNL     1      30.611 -11.352 -19.243  0.00  0.00    +0.189 HD
ENDROOT
BRANCH   7  14
ATOM     11  N   UNL     1      32.945  -6.620 -23.909  0.00  0.00    -0.218 N 
ATOM     12  N   UNL     1      34.850  -7.668 -23.687  0.00  0.00    -0.206 NA
ATOM     13  N   UNL     1      33.776  -5.916 -24.693  0.00  0.00    -0.157 NA
ATOM     14  C   UNL     1      33.590  -7.659 -23.315  0.00  0.00    +0.149 C 
ATOM     15  C   UNL     1      34.916  -6.590 -24.524  0.00  0.00    +0.218 C 
ATOM     16  H   UNL     1      31.991  -6.411 -23.781  0.00  0.00    +0.176 HD
ENDBRANCH   7  14
BRANCH   4  17
ATOM     17  C   UNL     1      32.976 -13.253 -22.399  0.00  0.00    +0.021 C 
ATOM     18  C   UNL     1      33.588 -14.356 -21.802  0.00  0.00    +0.016 C 
ATOM     19  C   UNL     1      32.965 -13.128 -23.787  0.00  0.00    +0.002 C 
ATOM     20  C   UNL     1      34.190 -15.332 -22.596  0.00  0.00    +0.051 C 
ATOM     21  C   UNL     1      33.568 -14.105 -24.581  0.00  0.00    +0.001 C 
ATOM     22  C   UNL     1      34.180 -15.207 -23.985  0.00  0.00    +0.015 C 
BRANCH  20  24
ATOM     23  O   UNL     1      34.865 -17.980 -23.744  0.00  0.00    -0.266 OA
ATOM     24  N   UNL     1      34.802 -16.436 -22.001  0.00  0.00    -0.278 N 
ATOM     25  C   UNL     1      35.110 -17.685 -22.577  0.00  0.00    +0.284 C 
ATOM     26  H   UNL     1      35.052 -16.327 -21.054  0.00  0.00    +0.155 HD
BRANCH  25  28
ATOM     27  O   UNL     1      34.941 -19.662 -21.180  0.00  0.00    -0.446 OA
ATOM     28  C   UNL     1      35.724 -18.661 -21.661  0.00  0.00    +0.199 C 
ATOM     29  C   UNL     1      37.003 -18.771 -21.168  0.00  0.00    +0.045 C 
ATOM     30  C   UNL     1      37.006 -19.911 -20.330  0.00  0.00    +0.044 C 
ATOM     31  C   UNL     1      35.728 -20.419 -20.372  0.00  0.00    +0.180 C 
ENDBRANCH  25  28
ENDBRANCH  20  24
ENDBRANCH   4  17
TORSDOF 4
ENDMDL
