MODEL 1
REMARK VINA RESULT:     -11.0      0.000      0.000
REMARK  Name = 46937054
REMARK  4 active torsions:
REMARK  status: ('A' for Active; 'I' for Inactive)
REMARK    1  A    between atoms: C_5  and  C_18
REMARK    2  A    between atoms: C_11  and  O_19
REMARK    3  A    between atoms: O_19  and  C_20
REMARK    4  A    between atoms: C_20  and  C_22
REMARK                            x       y       z     vdW  Elec       q    Type
REMARK                         _______ _______ _______ _____ _____    ______ ____
ROOT
ATOM      1 CL   UNL     1      30.187 -23.360 -15.910  0.00  0.00    -0.047 Cl
ATOM      2  O   UNL     1      35.819 -22.795 -16.820  0.00  0.00    -0.263 OA
ATOM      3  N   UNL     1      34.114 -23.364 -15.332  0.00  0.00    -0.240 N 
ATOM      4  N   UNL     1      32.309 -22.944 -17.416  0.00  0.00    -0.351 NA
ATOM      5  C   UNL     1      34.851 -23.593 -14.088  0.00  0.00    +0.161 C 
ATOM      6  C   UNL     1      33.728 -23.817 -13.116  0.00  0.00    +0.057 C 
ATOM      7  C   UNL     1      32.755 -23.462 -15.127  0.00  0.00    +0.091 C 
ATOM      8  C   UNL     1      32.540 -23.754 -13.735  0.00  0.00    -0.005 C 
ATOM      9  C   UNL     1      34.646 -22.984 -16.542  0.00  0.00    +0.320 C 
ATOM     10  C   UNL     1      31.901 -23.259 -16.140  0.00  0.00    +0.206 C 
ATOM     11  C   UNL     1      33.584 -22.811 -17.601  0.00  0.00    +0.335 C 
ENDROOT
BRANCH   5  18
ATOM     12  O   UNL     1      35.217 -25.805 -14.890  0.00  0.00    -0.273 OA
ATOM     13  N   UNL     1      36.823 -24.912 -13.490  0.00  0.00    -0.278 N 
ATOM     14  C   UNL     1      37.377 -23.845 -12.662  0.00  0.00    +0.094 C 
ATOM     15  C   UNL     1      37.693 -26.078 -13.491  0.00  0.00    +0.094 C 
ATOM     16  C   UNL     1      38.521 -24.507 -11.906  0.00  0.00    +0.023 C 
ATOM     17  C   UNL     1      38.993 -25.584 -12.875  0.00  0.00    +0.023 C 
ATOM     18  C   UNL     1      35.638 -24.874 -14.203  0.00  0.00    +0.244 C 
ENDBRANCH   5  18
BRANCH  11  19
ATOM     19  O   UNL     1      34.094 -22.500 -18.801  0.00  0.00    -0.444 OA
BRANCH  19  20
ATOM     20  C   UNL     1      33.503 -21.357 -19.405  0.00  0.00    +0.235 C 
BRANCH  20  22
ATOM     21  F   UNL     1      37.518 -18.329 -21.934  0.00  0.00    -0.204 F 
ATOM     22  C   UNL     1      34.573 -20.550 -20.079  0.00  0.00    +0.021 C 
ATOM     23  C   UNL     1      35.915 -20.792 -19.791  0.00  0.00    +0.002 C 
ATOM     24  C   UNL     1      34.225 -19.556 -20.994  0.00  0.00    +0.002 C 
ATOM     25  C   UNL     1      36.911 -20.043 -20.417  0.00  0.00    +0.029 C 
ATOM     26  C   UNL     1      35.220 -18.806 -21.622  0.00  0.00    +0.029 C 
ATOM     27  C   UNL     1      36.564 -19.049 -21.333  0.00  0.00    +0.140 C 
ENDBRANCH  20  22
ENDBRANCH  19  20
ENDBRANCH  11  19
TORSDOF 4
ENDMDL
MODEL 2
REMARK VINA RESULT:     -10.5      2.628      4.955
REMARK  Name = 46937054
REMARK  4 active torsions:
REMARK  status: ('A' for Active; 'I' for Inactive)
REMARK    1  A    between atoms: C_5  and  C_18
REMARK    2  A    between atoms: C_11  and  O_19
REMARK    3  A    between atoms: O_19  and  C_20
REMARK    4  A    between atoms: C_20  and  C_22
REMARK                            x       y       z     vdW  Elec       q    Type
REMARK                         _______ _______ _______ _____ _____    ______ ____
ROOT
ATOM      1 CL   UNL     1      37.244 -23.154 -14.232  0.00  0.00    -0.047 Cl
ATOM      2  O   UNL     1      32.669 -23.105 -17.687  0.00  0.00    -0.263 OA
ATOM      3  N   UNL     1      33.528 -23.564 -15.567  0.00  0.00    -0.240 N 
ATOM      4  N   UNL     1      35.974 -22.570 -16.465  0.00  0.00    -0.351 NA
ATOM      5  C   UNL     1      32.380 -24.169 -14.890  0.00  0.00    +0.161 C 
ATOM      6  C   UNL     1      32.991 -24.585 -13.582  0.00  0.00    +0.057 C 
ATOM      7  C   UNL     1      34.649 -23.597 -14.764  0.00  0.00    +0.091 C 
ATOM      8  C   UNL     1      34.284 -24.232 -13.526  0.00  0.00    -0.005 C 
ATOM      9  C   UNL     1      33.572 -23.115 -16.866  0.00  0.00    +0.320 C 
ATOM     10  C   UNL     1      35.816 -23.113 -15.211  0.00  0.00    +0.206 C 
ATOM     11  C   UNL     1      34.933 -22.576 -17.236  0.00  0.00    +0.335 C 
ENDROOT
BRANCH   5  18
ATOM     12  O   UNL     1      31.620 -22.145 -13.892  0.00  0.00    -0.273 OA
ATOM     13  N   UNL     1      30.114 -23.303 -15.207  0.00  0.00    -0.278 N 
ATOM     14  C   UNL     1      29.729 -24.415 -16.071  0.00  0.00    +0.094 C 
ATOM     15  C   UNL     1      29.010 -22.372 -15.032  0.00  0.00    +0.094 C 
ATOM     16  C   UNL     1      28.219 -24.283 -16.209  0.00  0.00    +0.023 C 
ATOM     17  C   UNL     1      27.995 -22.781 -16.087  0.00  0.00    +0.023 C 
ATOM     18  C   UNL     1      31.347 -23.107 -14.612  0.00  0.00    +0.244 C 
ENDBRANCH   5  18
BRANCH  11  19
ATOM     19  O   UNL     1      34.973 -22.079 -18.480  0.00  0.00    -0.444 OA
BRANCH  19  20
ATOM     20  C   UNL     1      36.258 -21.620 -18.881  0.00  0.00    +0.235 C 
BRANCH  20  22
ATOM     21  F   UNL     1      35.644 -17.642 -22.816  0.00  0.00    -0.204 F 
ATOM     22  C   UNL     1      36.094 -20.559 -19.930  0.00  0.00    +0.021 C 
ATOM     23  C   UNL     1      37.187 -19.781 -20.311  0.00  0.00    +0.002 C 
ATOM     24  C   UNL     1      34.850 -20.352 -20.523  0.00  0.00    +0.002 C 
ATOM     25  C   UNL     1      37.035 -18.795 -21.286  0.00  0.00    +0.029 C 
ATOM     26  C   UNL     1      34.697 -19.366 -21.499  0.00  0.00    +0.029 C 
ATOM     27  C   UNL     1      35.790 -18.588 -21.880  0.00  0.00    +0.140 C 
ENDBRANCH  20  22
ENDBRANCH  19  20
ENDBRANCH  11  19
TORSDOF 4
ENDMDL
MODEL 3
REMARK VINA RESULT:     -10.0      6.592     11.231
REMARK  Name = 46937054
REMARK  4 active torsions:
REMARK  status: ('A' for Active; 'I' for Inactive)
REMARK    1  A    between atoms: C_5  and  C_18
REMARK    2  A    between atoms: C_11  and  O_19
REMARK    3  A    between atoms: O_19  and  C_20
REMARK    4  A    between atoms: C_20  and  C_22
REMARK                            x       y       z     vdW  Elec       q    Type
REMARK                         _______ _______ _______ _____ _____    ______ ____
ROOT
ATOM      1 CL   UNL     1      34.575 -16.775 -25.526  0.00  0.00    -0.047 Cl
ATOM      2  O   UNL     1      34.893 -15.433 -19.961  0.00  0.00    -0.263 OA
ATOM      3  N   UNL     1      34.272 -14.774 -22.111  0.00  0.00    -0.240 N 
ATOM      4  N   UNL     1      35.021 -17.314 -22.985  0.00  0.00    -0.351 NA
ATOM      5  C   UNL     1      33.867 -13.382 -21.905  0.00  0.00    +0.161 C 
ATOM      6  C   UNL     1      33.608 -12.936 -23.316  0.00  0.00    +0.057 C 
ATOM      7  C   UNL     1      34.235 -15.107 -23.449  0.00  0.00    +0.091 C 
ATOM      8  C   UNL     1      33.809 -13.943 -24.180  0.00  0.00    -0.005 C 
ATOM      9  C   UNL     1      34.747 -15.640 -21.155  0.00  0.00    +0.320 C 
ATOM     10  C   UNL     1      34.597 -16.332 -23.852  0.00  0.00    +0.206 C 
ATOM     11  C   UNL     1      35.096 -16.990 -21.734  0.00  0.00    +0.335 C 
ENDROOT
BRANCH   5  18
ATOM     12  O   UNL     1      31.981 -14.397 -20.864  0.00  0.00    -0.273 OA
ATOM     13  N   UNL     1      32.087 -12.089 -20.835  0.00  0.00    -0.278 N 
ATOM     14  C   UNL     1      32.725 -10.813 -21.144  0.00  0.00    +0.094 C 
ATOM     15  C   UNL     1      30.838 -11.887 -20.117  0.00  0.00    +0.094 C 
ATOM     16  C   UNL     1      31.663  -9.770 -20.825  0.00  0.00    +0.023 C 
ATOM     17  C   UNL     1      30.869 -10.425 -19.702  0.00  0.00    +0.023 C 
ATOM     18  C   UNL     1      32.561 -13.349 -21.153  0.00  0.00    +0.244 C 
ENDBRANCH   5  18
BRANCH  11  19
ATOM     19  O   UNL     1      35.503 -17.864 -20.802  0.00  0.00    -0.444 OA
BRANCH  19  20
ATOM     20  C   UNL     1      35.803 -19.158 -21.311  0.00  0.00    +0.235 C 
BRANCH  20  22
ATOM     21  F   UNL     1      33.270 -23.028 -18.103  0.00  0.00    -0.204 F 
ATOM     22  C   UNL     1      35.128 -20.190 -20.456  0.00  0.00    +0.021 C 
ATOM     23  C   UNL     1      33.736 -20.243 -20.395  0.00  0.00    +0.002 C 
ATOM     24  C   UNL     1      35.893 -21.095 -19.721  0.00  0.00    +0.002 C 
ATOM     25  C   UNL     1      33.107 -21.201 -19.600  0.00  0.00    +0.029 C 
ATOM     26  C   UNL     1      35.265 -22.055 -18.926  0.00  0.00    +0.029 C 
ATOM     27  C   UNL     1      33.872 -22.108 -18.866  0.00  0.00    +0.140 C 
ENDBRANCH  20  22
ENDBRANCH  19  20
ENDBRANCH  11  19
TORSDOF 4
ENDMDL
MODEL 4
REMARK VINA RESULT:      -9.8      6.497      9.491
REMARK  Name = 46937054
REMARK  4 active torsions:
REMARK  status: ('A' for Active; 'I' for Inactive)
REMARK    1  A    between atoms: C_5  and  C_18
REMARK    2  A    between atoms: C_11  and  O_19
REMARK    3  A    between atoms: O_19  and  C_20
REMARK    4  A    between atoms: C_20  and  C_22
REMARK                            x       y       z     vdW  Elec       q    Type
REMARK                         _______ _______ _______ _____ _____    ______ ____
ROOT
ATOM      1 CL   UNL     1      34.810 -15.647 -25.724  0.00  0.00    -0.047 Cl
ATOM      2  O   UNL     1      34.328 -16.666 -20.103  0.00  0.00    -0.263 OA
ATOM      3  N   UNL     1      34.740 -17.530 -22.231  0.00  0.00    -0.240 N 
ATOM      4  N   UNL     1      34.551 -14.923 -23.203  0.00  0.00    -0.351 NA
ATOM      5  C   UNL     1      34.832 -18.968 -21.970  0.00  0.00    +0.161 C 
ATOM      6  C   UNL     1      34.953 -19.515 -23.364  0.00  0.00    +0.057 C 
ATOM      7  C   UNL     1      34.819 -17.267 -23.581  0.00  0.00    +0.091 C 
ATOM      8  C   UNL     1      34.961 -18.524 -24.267  0.00  0.00    -0.005 C 
ATOM      9  C   UNL     1      34.489 -16.544 -21.306  0.00  0.00    +0.320 C 
ATOM     10  C   UNL     1      34.728 -16.008 -24.032  0.00  0.00    +0.206 C 
ATOM     11  C   UNL     1      34.435 -15.173 -21.938  0.00  0.00    +0.335 C 
ENDROOT
BRANCH   5  18
ATOM     12  O   UNL     1      37.147 -18.650 -21.514  0.00  0.00    -0.273 OA
ATOM     13  N   UNL     1      36.035 -20.242 -20.262  0.00  0.00    -0.278 N 
ATOM     14  C   UNL     1      34.846 -20.997 -19.882  0.00  0.00    +0.094 C 
ATOM     15  C   UNL     1      37.186 -20.644 -19.469  0.00  0.00    +0.094 C 
ATOM     16  C   UNL     1      35.374 -22.110 -18.987  0.00  0.00    +0.023 C 
ATOM     17  C   UNL     1      36.598 -21.475 -18.339  0.00  0.00    +0.023 C 
ATOM     18  C   UNL     1      36.115 -19.261 -21.235  0.00  0.00    +0.244 C 
ENDBRANCH   5  18
BRANCH  11  19
ATOM     19  O   UNL     1      34.253 -14.195 -21.039  0.00  0.00    -0.444 OA
BRANCH  19  20
ATOM     20  C   UNL     1      32.907 -14.054 -20.600  0.00  0.00    +0.235 C 
BRANCH  20  22
ATOM     21  F   UNL     1      31.306  -8.700 -21.276  0.00  0.00    -0.204 F 
ATOM     22  C   UNL     1      32.481 -12.627 -20.780  0.00  0.00    +0.021 C 
ATOM     23  C   UNL     1      32.701 -11.981 -21.996  0.00  0.00    +0.002 C 
ATOM     24  C   UNL     1      31.864 -11.946 -19.731  0.00  0.00    +0.002 C 
ATOM     25  C   UNL     1      32.304 -10.654 -22.164  0.00  0.00    +0.029 C 
ATOM     26  C   UNL     1      31.467 -10.618 -19.898  0.00  0.00    +0.029 C 
ATOM     27  C   UNL     1      31.687  -9.973 -21.115  0.00  0.00    +0.140 C 
ENDBRANCH  20  22
ENDBRANCH  19  20
ENDBRANCH  11  19
TORSDOF 4
ENDMDL
MODEL 5
REMARK VINA RESULT:      -9.5     10.796     14.120
REMARK  Name = 46937054
REMARK  4 active torsions:
REMARK  status: ('A' for Active; 'I' for Inactive)
REMARK    1  A    between atoms: C_5  and  C_18
REMARK    2  A    between atoms: C_11  and  O_19
REMARK    3  A    between atoms: O_19  and  C_20
REMARK    4  A    between atoms: C_20  and  C_22
REMARK                            x       y       z     vdW  Elec       q    Type
REMARK                         _______ _______ _______ _____ _____    ______ ____
ROOT
ATOM      1 CL   UNL     1      30.311 -11.108 -19.593  0.00  0.00    -0.047 Cl
ATOM      2  O   UNL     1      34.116 -10.834 -23.873  0.00  0.00    -0.263 OA
ATOM      3  N   UNL     1      33.103 -12.134 -22.221  0.00  0.00    -0.240 N 
ATOM      4  N   UNL     1      31.491  -9.935 -21.636  0.00  0.00    -0.351 NA
ATOM      5  C   UNL     1      33.853 -13.388 -22.309  0.00  0.00    +0.161 C 
ATOM      6  C   UNL     1      33.285 -14.155 -21.149  0.00  0.00    +0.057 C 
ATOM      7  C   UNL     1      32.205 -12.167 -21.176  0.00  0.00    +0.091 C 
ATOM      8  C   UNL     1      32.333 -13.445 -20.526  0.00  0.00    -0.005 C 
ATOM      9  C   UNL     1      33.305 -11.003 -22.976  0.00  0.00    +0.320 C 
ATOM     10  C   UNL     1      31.437 -11.102 -20.909  0.00  0.00    +0.206 C 
ATOM     11  C   UNL     1      32.362  -9.887 -22.592  0.00  0.00    +0.335 C 
ENDROOT
BRANCH   5  18
ATOM     12  O   UNL     1      32.644 -13.624 -24.347  0.00  0.00    -0.273 OA
ATOM     13  N   UNL     1      34.122 -15.312 -23.796  0.00  0.00    -0.278 N 
ATOM     14  C   UNL     1      35.119 -15.936 -22.931  0.00  0.00    +0.094 C 
ATOM     15  C   UNL     1      33.866 -16.130 -24.972  0.00  0.00    +0.094 C 
ATOM     16  C   UNL     1      35.278 -17.343 -23.489  0.00  0.00    +0.023 C 
ATOM     17  C   UNL     1      34.986 -17.157 -24.973  0.00  0.00    +0.023 C 
ATOM     18  C   UNL     1      33.478 -14.107 -23.579  0.00  0.00    +0.244 C 
ENDBRANCH   5  18
BRANCH  11  19
ATOM     19  O   UNL     1      32.507  -8.799 -23.362  0.00  0.00    -0.444 OA
BRANCH  19  20
ATOM     20  C   UNL     1      33.221  -7.738 -22.739  0.00  0.00    +0.235 C 
BRANCH  20  22
ATOM     21  F   UNL     1      34.704  -3.973 -26.651  0.00  0.00    -0.204 F 
ATOM     22  C   UNL     1      33.616  -6.735 -23.782  0.00  0.00    +0.021 C 
ATOM     23  C   UNL     1      32.665  -5.859 -24.303  0.00  0.00    +0.002 C 
ATOM     24  C   UNL     1      34.936  -6.678 -24.230  0.00  0.00    +0.002 C 
ATOM     25  C   UNL     1      33.032  -4.926 -25.273  0.00  0.00    +0.029 C 
ATOM     26  C   UNL     1      35.304  -5.744 -25.200  0.00  0.00    +0.029 C 
ATOM     27  C   UNL     1      34.351  -4.868 -25.721  0.00  0.00    +0.140 C 
ENDBRANCH  20  22
ENDBRANCH  19  20
ENDBRANCH  11  19
TORSDOF 4
ENDMDL
MODEL 6
REMARK VINA RESULT:      -9.4      3.202      4.955
REMARK  Name = 46937054
REMARK  4 active torsions:
REMARK  status: ('A' for Active; 'I' for Inactive)
REMARK    1  A    between atoms: C_5  and  C_18
REMARK    2  A    between atoms: C_11  and  O_19
REMARK    3  A    between atoms: O_19  and  C_20
REMARK    4  A    between atoms: C_20  and  C_22
REMARK                            x       y       z     vdW  Elec       q    Type
REMARK                         _______ _______ _______ _____ _____    ______ ____
ROOT
ATOM      1 CL   UNL     1      37.607 -21.603 -15.978  0.00  0.00    -0.047 Cl
ATOM      2  O   UNL     1      33.310 -22.656 -19.624  0.00  0.00    -0.263 OA
ATOM      3  N   UNL     1      34.166 -22.906 -17.469  0.00  0.00    -0.240 N 
ATOM      4  N   UNL     1      36.326 -21.331 -18.265  0.00  0.00    -0.351 NA
ATOM      5  C   UNL     1      33.176 -23.783 -16.840  0.00  0.00    +0.161 C 
ATOM      6  C   UNL     1      33.817 -24.046 -15.507  0.00  0.00    +0.057 C 
ATOM      7  C   UNL     1      35.226 -22.668 -16.619  0.00  0.00    +0.091 C 
ATOM      8  C   UNL     1      34.979 -23.385 -15.396  0.00  0.00    -0.005 C 
ATOM      9  C   UNL     1      34.152 -22.450 -18.765  0.00  0.00    +0.320 C 
ATOM     10  C   UNL     1      36.255 -21.908 -17.017  0.00  0.00    +0.206 C 
ATOM     11  C   UNL     1      35.352 -21.588 -19.078  0.00  0.00    +0.335 C 
ENDROOT
BRANCH   5  18
ATOM     12  O   UNL     1      31.737 -21.908 -17.131  0.00  0.00    -0.273 OA
ATOM     13  N   UNL     1      30.976 -23.622 -15.782  0.00  0.00    -0.278 N 
ATOM     14  C   UNL     1      31.109 -24.924 -15.136  0.00  0.00    +0.094 C 
ATOM     15  C   UNL     1      29.700 -23.004 -15.455  0.00  0.00    +0.094 C 
ATOM     16  C   UNL     1      29.954 -24.975 -14.146  0.00  0.00    +0.023 C 
ATOM     17  C   UNL     1      28.888 -24.122 -14.820  0.00  0.00    +0.023 C 
ATOM     18  C   UNL     1      31.903 -23.011 -16.608  0.00  0.00    +0.244 C 
ENDBRANCH   5  18
BRANCH  11  19
ATOM     19  O   UNL     1      35.319 -21.085 -20.321  0.00  0.00    -0.444 OA
BRANCH  19  20
ATOM     20  C   UNL     1      36.296 -20.082 -20.567  0.00  0.00    +0.235 C 
BRANCH  20  22
ATOM     21  F   UNL     1      34.361 -16.558 -24.507  0.00  0.00    -0.204 F 
ATOM     22  C   UNL     1      35.781 -19.143 -21.617  0.00  0.00    +0.021 C 
ATOM     23  C   UNL     1      35.268 -19.646 -22.812  0.00  0.00    +0.002 C 
ATOM     24  C   UNL     1      35.815 -17.766 -21.399  0.00  0.00    +0.002 C 
ATOM     25  C   UNL     1      34.788 -18.773 -23.789  0.00  0.00    +0.029 C 
ATOM     26  C   UNL     1      35.335 -16.892 -22.375  0.00  0.00    +0.029 C 
ATOM     27  C   UNL     1      34.821 -17.396 -23.570  0.00  0.00    +0.140 C 
ENDBRANCH  20  22
ENDBRANCH  19  20
ENDBRANCH  11  19
TORSDOF 4
ENDMDL
MODEL 7
REMARK VINA RESULT:      -9.3     10.874     14.321
REMARK  Name = 46937054
REMARK  4 active torsions:
REMARK  status: ('A' for Active; 'I' for Inactive)
REMARK    1  A    between atoms: C_5  and  C_18
REMARK    2  A    between atoms: C_11  and  O_19
REMARK    3  A    between atoms: O_19  and  C_20
REMARK    4  A    between atoms: C_20  and  C_22
REMARK                            x       y       z     vdW  Elec       q    Type
REMARK                         _______ _______ _______ _____ _____    ______ ____
ROOT
ATOM      1 CL   UNL     1      30.282 -11.052 -19.756  0.00  0.00    -0.047 Cl
ATOM      2  O   UNL     1      34.297 -10.863 -23.844  0.00  0.00    -0.263 OA
ATOM      3  N   UNL     1      33.157 -12.147 -22.264  0.00  0.00    -0.240 N 
ATOM      4  N   UNL     1      31.603  -9.896 -21.721  0.00  0.00    -0.351 NA
ATOM      5  C   UNL     1      33.864 -13.427 -22.335  0.00  0.00    +0.161 C 
ATOM      6  C   UNL     1      33.212 -14.188 -21.216  0.00  0.00    +0.057 C 
ATOM      7  C   UNL     1      32.210 -12.160 -21.263  0.00  0.00    +0.091 C 
ATOM      8  C   UNL     1      32.258 -13.451 -20.628  0.00  0.00    -0.005 C 
ATOM      9  C   UNL     1      33.438 -11.013 -22.990  0.00  0.00    +0.320 C 
ATOM     10  C   UNL     1      31.470 -11.070 -21.016  0.00  0.00    +0.206 C 
ATOM     11  C   UNL     1      32.521  -9.868 -22.634  0.00  0.00    +0.335 C 
ENDROOT
BRANCH   5  18
ATOM     12  O   UNL     1      32.744 -13.589 -24.430  0.00  0.00    -0.273 OA
ATOM     13  N   UNL     1      34.135 -15.337 -23.840  0.00  0.00    -0.278 N 
ATOM     14  C   UNL     1      35.068 -16.008 -22.941  0.00  0.00    +0.094 C 
ATOM     15  C   UNL     1      33.906 -16.127 -25.040  0.00  0.00    +0.094 C 
ATOM     16  C   UNL     1      35.203 -17.412 -23.514  0.00  0.00    +0.023 C 
ATOM     17  C   UNL     1      34.989 -17.194 -25.007  0.00  0.00    +0.023 C 
ATOM     18  C   UNL     1      33.524 -14.113 -23.634  0.00  0.00    +0.244 C 
ENDBRANCH   5  18
BRANCH  11  19
ATOM     19  O   UNL     1      32.743  -8.775 -23.379  0.00  0.00    -0.444 OA
BRANCH  19  20
ATOM     20  C   UNL     1      33.402  -7.724 -22.683  0.00  0.00    +0.235 C 
BRANCH  20  22
ATOM     21  F   UNL     1      31.981  -2.804 -25.020  0.00  0.00    -0.204 F 
ATOM     22  C   UNL     1      33.023  -6.412 -23.306  0.00  0.00    +0.021 C 
ATOM     23  C   UNL     1      32.134  -5.560 -22.651  0.00  0.00    +0.002 C 
ATOM     24  C   UNL     1      33.560  -6.045 -24.539  0.00  0.00    +0.002 C 
ATOM     25  C   UNL     1      31.781  -4.341 -23.230  0.00  0.00    +0.029 C 
ATOM     26  C   UNL     1      33.208  -4.826 -25.119  0.00  0.00    +0.029 C 
ATOM     27  C   UNL     1      32.318  -3.973 -24.464  0.00  0.00    +0.140 C 
ENDBRANCH  20  22
ENDBRANCH  19  20
ENDBRANCH  11  19
TORSDOF 4
ENDMDL
MODEL 8
REMARK VINA RESULT:      -9.3     10.837     15.223
REMARK  Name = 46937054
REMARK  4 active torsions:
REMARK  status: ('A' for Active; 'I' for Inactive)
REMARK    1  A    between atoms: C_5  and  C_18
REMARK    2  A    between atoms: C_11  and  O_19
REMARK    3  A    between atoms: O_19  and  C_20
REMARK    4  A    between atoms: C_20  and  C_22
REMARK                            x       y       z     vdW  Elec       q    Type
REMARK                         _______ _______ _______ _____ _____    ______ ____
ROOT
ATOM      1 CL   UNL     1      31.608 -10.352 -17.767  0.00  0.00    -0.047 Cl
ATOM      2  O   UNL     1      32.393 -10.164 -23.444  0.00  0.00    -0.263 OA
ATOM      3  N   UNL     1      32.231  -8.980 -21.440  0.00  0.00    -0.240 N 
ATOM      4  N   UNL     1      32.001 -11.435 -20.137  0.00  0.00    -0.351 NA
ATOM      5  C   UNL     1      32.282  -7.590 -21.895  0.00  0.00    +0.161 C 
ATOM      6  C   UNL     1      32.034  -6.848 -20.613  0.00  0.00    +0.057 C 
ATOM      7  C   UNL     1      32.009  -9.047 -20.081  0.00  0.00    +0.091 C 
ATOM      8  C   UNL     1      31.898  -7.701 -19.586  0.00  0.00    -0.005 C 
ATOM      9  C   UNL     1      32.274 -10.104 -22.231  0.00  0.00    +0.320 C 
ATOM     10  C   UNL     1      31.902 -10.235 -19.470  0.00  0.00    +0.206 C 
ATOM     11  C   UNL     1      32.168 -11.374 -21.420  0.00  0.00    +0.335 C 
ENDROOT
BRANCH   5  18
ATOM     12  O   UNL     1      34.656  -7.639 -21.711  0.00  0.00    -0.273 OA
ATOM     13  N   UNL     1      33.762  -6.544 -23.539  0.00  0.00    -0.278 N 
ATOM     14  C   UNL     1      32.647  -6.080 -24.358  0.00  0.00    +0.094 C 
ATOM     15  C   UNL     1      35.036  -6.150 -24.120  0.00  0.00    +0.094 C 
ATOM     16  C   UNL     1      33.282  -5.118 -25.353  0.00  0.00    +0.023 C 
ATOM     17  C   UNL     1      34.687  -5.682 -25.524  0.00  0.00    +0.023 C 
ATOM     18  C   UNL     1      33.678  -7.269 -22.364  0.00  0.00    +0.244 C 
ENDBRANCH   5  18
BRANCH  11  19
ATOM     19  O   UNL     1      32.271 -12.479 -22.172  0.00  0.00    -0.444 OA
BRANCH  19  20
ATOM     20  C   UNL     1      32.966 -13.547 -21.541  0.00  0.00    +0.235 C 
BRANCH  20  22
ATOM     21  F   UNL     1      35.170 -16.893 -25.495  0.00  0.00    -0.204 F 
ATOM     22  C   UNL     1      33.554 -14.439 -22.595  0.00  0.00    +0.021 C 
ATOM     23  C   UNL     1      34.391 -15.493 -22.230  0.00  0.00    +0.002 C 
ATOM     24  C   UNL     1      33.263 -14.214 -23.940  0.00  0.00    +0.002 C 
ATOM     25  C   UNL     1      34.938 -16.322 -23.209  0.00  0.00    +0.029 C 
ATOM     26  C   UNL     1      33.809 -15.043 -24.921  0.00  0.00    +0.029 C 
ATOM     27  C   UNL     1      34.647 -16.098 -24.555  0.00  0.00    +0.140 C 
ENDBRANCH  20  22
ENDBRANCH  19  20
ENDBRANCH  11  19
TORSDOF 4
ENDMDL
MODEL 9
REMARK VINA RESULT:      -9.1      2.826      5.608
REMARK  Name = 46937054
REMARK  4 active torsions:
REMARK  status: ('A' for Active; 'I' for Inactive)
REMARK    1  A    between atoms: C_5  and  C_18
REMARK    2  A    between atoms: C_11  and  O_19
REMARK    3  A    between atoms: O_19  and  C_20
REMARK    4  A    between atoms: C_20  and  C_22
REMARK                            x       y       z     vdW  Elec       q    Type
REMARK                         _______ _______ _______ _____ _____    ______ ____
ROOT
ATOM      1 CL   UNL     1      35.271 -24.792 -12.637  0.00  0.00    -0.047 Cl
ATOM      2  O   UNL     1      32.181 -22.877 -17.070  0.00  0.00    -0.263 OA
ATOM      3  N   UNL     1      32.206 -24.026 -15.039  0.00  0.00    -0.240 N 
ATOM      4  N   UNL     1      34.918 -23.406 -14.850  0.00  0.00    -0.351 NA
ATOM      5  C   UNL     1      30.828 -24.511 -14.939  0.00  0.00    +0.161 C 
ATOM      6  C   UNL     1      30.902 -25.362 -13.704  0.00  0.00    +0.057 C 
ATOM      7  C   UNL     1      32.975 -24.503 -14.000  0.00  0.00    +0.091 C 
ATOM      8  C   UNL     1      32.134 -25.330 -13.175  0.00  0.00    -0.005 C 
ATOM      9  C   UNL     1      32.743 -23.290 -16.069  0.00  0.00    +0.320 C 
ATOM     10  C   UNL     1      34.276 -24.195 -13.923  0.00  0.00    +0.206 C 
ATOM     11  C   UNL     1      34.207 -22.991 -15.850  0.00  0.00    +0.335 C 
ENDROOT
BRANCH   5  18
ATOM     12  O   UNL     1      30.078 -22.648 -13.659  0.00  0.00    -0.273 OA
ATOM     13  N   UNL     1      28.895 -23.153 -15.579  0.00  0.00    -0.278 N 
ATOM     14  C   UNL     1      28.644 -23.943 -16.780  0.00  0.00    +0.094 C 
ATOM     15  C   UNL     1      27.922 -22.080 -15.446  0.00  0.00    +0.094 C 
ATOM     16  C   UNL     1      27.275 -23.479 -17.259  0.00  0.00    +0.023 C 
ATOM     17  C   UNL     1      27.225 -22.029 -16.796  0.00  0.00    +0.023 C 
ATOM     18  C   UNL     1      29.909 -23.350 -14.658  0.00  0.00    +0.244 C 
ENDBRANCH   5  18
BRANCH  11  19
ATOM     19  O   UNL     1      34.729 -22.221 -16.816  0.00  0.00    -0.444 OA
BRANCH  19  20
ATOM     20  C   UNL     1      34.701 -22.814 -18.109  0.00  0.00    +0.235 C 
BRANCH  20  22
ATOM     21  F   UNL     1      34.769 -18.746 -21.998  0.00  0.00    -0.204 F 
ATOM     22  C   UNL     1      34.719 -21.730 -19.145  0.00  0.00    +0.021 C 
ATOM     23  C   UNL     1      33.520 -21.193 -19.614  0.00  0.00    +0.002 C 
ATOM     24  C   UNL     1      35.934 -21.260 -19.641  0.00  0.00    +0.002 C 
ATOM     25  C   UNL     1      33.536 -20.185 -20.578  0.00  0.00    +0.029 C 
ATOM     26  C   UNL     1      35.952 -20.251 -20.605  0.00  0.00    +0.029 C 
ATOM     27  C   UNL     1      34.752 -19.714 -21.074  0.00  0.00    +0.140 C 
ENDBRANCH  20  22
ENDBRANCH  19  20
ENDBRANCH  11  19
TORSDOF 4
ENDMDL
