MODEL 1
REMARK VINA RESULT:     -11.5      0.000      0.000
REMARK  Name = 10274777
REMARK  10 active torsions:
REMARK  status: ('A' for Active; 'I' for Inactive)
REMARK    1  A    between atoms: C_2  and  C_25
REMARK    2  A    between atoms: C_5  and  O_10
REMARK    3  A    between atoms: O_10  and  C_11
REMARK    4  A    between atoms: C_11  and  C_12
REMARK    5  A    between atoms: C_12  and  C_15
REMARK    6  A    between atoms: C_17  and  C_19
REMARK    7  A    between atoms: C_25  and  C_26
REMARK    8  A    between atoms: C_26  and  O_27
REMARK    9  A    between atoms: C_26  and  C_30
REMARK   10  A    between atoms: C_30  and  O_31
REMARK                            x       y       z     vdW  Elec       q    Type
REMARK                         _______ _______ _______ _____ _____    ______ ____
ROOT
ATOM      1  S   UNL     1      32.141 -23.961 -14.037  0.00  0.00    -0.087 S 
ATOM      2  C   UNL     1      34.931 -23.876 -13.730  0.00  0.00    -0.013 C 
ATOM      3  C   UNL     1      33.776 -23.697 -14.516  0.00  0.00    +0.029 C 
ATOM      4  C   UNL     1      33.854 -23.260 -15.842  0.00  0.00    +0.040 C 
ATOM      5  C   UNL     1      35.134 -22.998 -16.386  0.00  0.00    +0.139 C 
ATOM      6  C   UNL     1      36.179 -23.609 -14.296  0.00  0.00    -0.001 C 
ATOM      7  C   UNL     1      36.282 -23.174 -15.610  0.00  0.00    +0.037 C 
ATOM      8  C   UNL     1      32.549 -23.156 -16.431  0.00  0.00    +0.010 C 
ATOM      9  C   UNL     1      31.540 -23.505 -15.565  0.00  0.00    +0.036 C 
ENDROOT
BRANCH   5  10
ATOM     10  O   UNL     1      35.277 -22.567 -17.681  0.00  0.00    -0.475 OA
BRANCH  10  11
ATOM     11  C   UNL     1      36.330 -21.646 -17.934  0.00  0.00    +0.213 C 
BRANCH  11  12
ATOM     12  C   UNL     1      36.564 -21.532 -19.438  0.00  0.00    +0.105 C 
BRANCH  12  15
ATOM     13  O   UNL     1      33.938 -19.423 -20.845  0.00  0.00    -0.449 OA
ATOM     14  N   UNL     1      36.196 -19.453 -20.725  0.00  0.00    -0.373 NA
ATOM     15  C   UNL     1      35.662 -20.527 -20.094  0.00  0.00    +0.134 C 
ATOM     16  C   UNL     1      34.310 -20.534 -20.150  0.00  0.00    +0.216 C 
ATOM     17  C   UNL     1      35.123 -18.828 -21.155  0.00  0.00    +0.277 C 
ATOM     18  C   UNL     1      33.238 -21.409 -19.665  0.00  0.00    +0.055 C 
BRANCH  17  19
ATOM     19  C   UNL     1      35.017 -17.608 -21.905  0.00  0.00    +0.066 C 
ATOM     20  C   UNL     1      35.156 -17.625 -23.297  0.00  0.00    +0.006 C 
ATOM     21  C   UNL     1      34.776 -16.398 -21.250  0.00  0.00    +0.006 C 
ATOM     22  C   UNL     1      35.054 -16.441 -24.026  0.00  0.00    +0.000 C 
ATOM     23  C   UNL     1      34.674 -15.213 -21.980  0.00  0.00    +0.000 C 
ATOM     24  C   UNL     1      34.813 -15.234 -23.368  0.00  0.00    +0.000 C 
ENDBRANCH  17  19
ENDBRANCH  12  15
ENDBRANCH  11  12
ENDBRANCH  10  11
ENDBRANCH   5  10
BRANCH   2  25
ATOM     25  C   UNL     1      34.879 -24.340 -12.309  0.00  0.00    +0.068 C 
BRANCH  25  26
ATOM     26  C   UNL     1      36.276 -24.539 -11.704  0.00  0.00    +0.218 C 
BRANCH  26  27
ATOM     27  O   UNL     1      36.508 -25.934 -11.548  0.00  0.00    -0.342 OA
ATOM     28  C   UNL     1      37.542 -26.390 -12.408  0.00  0.00    +0.175 C 
ENDBRANCH  26  27
BRANCH  26  30
ATOM     29  O   UNL     1      37.129 -22.985 -10.039  0.00  0.00    -0.248 OA
ATOM     30  C   UNL     1      36.376 -23.904 -10.332  0.00  0.00    +0.342 C 
BRANCH  30  31
ATOM     31  O   UNL     1      35.510 -24.460  -9.446  0.00  0.00    -0.479 OA
ATOM     32  H   UNL     1      35.308 -24.015  -8.646  0.00  0.00    +0.295 HD
ENDBRANCH  30  31
ENDBRANCH  26  30
ENDBRANCH  25  26
ENDBRANCH   2  25
TORSDOF 10
ENDMDL
MODEL 2
REMARK VINA RESULT:     -11.5      7.513     11.569
REMARK  Name = 10274777
REMARK  10 active torsions:
REMARK  status: ('A' for Active; 'I' for Inactive)
REMARK    1  A    between atoms: C_2  and  C_25
REMARK    2  A    between atoms: C_5  and  O_10
REMARK    3  A    between atoms: O_10  and  C_11
REMARK    4  A    between atoms: C_11  and  C_12
REMARK    5  A    between atoms: C_12  and  C_15
REMARK    6  A    between atoms: C_17  and  C_19
REMARK    7  A    between atoms: C_25  and  C_26
REMARK    8  A    between atoms: C_26  and  O_27
REMARK    9  A    between atoms: C_26  and  C_30
REMARK   10  A    between atoms: C_30  and  O_31
REMARK                            x       y       z     vdW  Elec       q    Type
REMARK                         _______ _______ _______ _____ _____    ______ ____
ROOT
ATOM      1  S   UNL     1      34.577 -16.281 -25.132  0.00  0.00    -0.087 S 
ATOM      2  C   UNL     1      34.843 -16.148 -22.339  0.00  0.00    -0.013 C 
ATOM      3  C   UNL     1      34.351 -15.628 -23.552  0.00  0.00    +0.029 C 
ATOM      4  C   UNL     1      33.584 -14.460 -23.590  0.00  0.00    +0.040 C 
ATOM      5  C   UNL     1      33.308 -13.801 -22.367  0.00  0.00    +0.139 C 
ATOM      6  C   UNL     1      34.554 -15.475 -21.151  0.00  0.00    -0.001 C 
ATOM      7  C   UNL     1      33.795 -14.314 -21.162  0.00  0.00    +0.037 C 
ATOM      8  C   UNL     1      33.202 -14.132 -24.934  0.00  0.00    +0.010 C 
ATOM      9  C   UNL     1      33.673 -15.033 -25.859  0.00  0.00    +0.036 C 
ENDROOT
BRANCH   5  10
ATOM     10  O   UNL     1      32.561 -12.650 -22.337  0.00  0.00    -0.475 OA
BRANCH  10  11
ATOM     11  C   UNL     1      31.948 -12.320 -21.098  0.00  0.00    +0.213 C 
BRANCH  11  12
ATOM     12  C   UNL     1      31.010 -11.131 -21.288  0.00  0.00    +0.105 C 
BRANCH  12  15
ATOM     13  O   UNL     1      32.750  -7.927 -21.110  0.00  0.00    -0.449 OA
ATOM     14  N   UNL     1      32.108  -9.415 -22.688  0.00  0.00    -0.373 NA
ATOM     15  C   UNL     1      31.742  -9.831 -21.451  0.00  0.00    +0.134 C 
ATOM     16  C   UNL     1      32.114  -8.959 -20.486  0.00  0.00    +0.216 C 
ATOM     17  C   UNL     1      32.706  -8.275 -22.426  0.00  0.00    +0.277 C 
ATOM     18  C   UNL     1      31.992  -8.883 -19.027  0.00  0.00    +0.055 C 
BRANCH  17  19
ATOM     19  C   UNL     1      33.321  -7.339 -23.326  0.00  0.00    +0.066 C 
ATOM     20  C   UNL     1      32.535  -6.422 -24.030  0.00  0.00    +0.006 C 
ATOM     21  C   UNL     1      34.707  -7.340 -23.504  0.00  0.00    +0.006 C 
ATOM     22  C   UNL     1      33.130  -5.513 -24.905  0.00  0.00    +0.000 C 
ATOM     23  C   UNL     1      35.302  -6.431 -24.379  0.00  0.00    +0.000 C 
ATOM     24  C   UNL     1      34.515  -5.518 -25.079  0.00  0.00    +0.000 C 
ENDBRANCH  17  19
ENDBRANCH  12  15
ENDBRANCH  11  12
ENDBRANCH  10  11
ENDBRANCH   5  10
BRANCH   2  25
ATOM     25  C   UNL     1      35.664 -17.396 -22.268  0.00  0.00    +0.068 C 
BRANCH  25  26
ATOM     26  C   UNL     1      35.310 -18.264 -21.052  0.00  0.00    +0.218 C 
BRANCH  26  27
ATOM     27  O   UNL     1      36.517 -18.724 -20.456  0.00  0.00    -0.342 OA
ATOM     28  C   UNL     1      37.587 -18.736 -21.391  0.00  0.00    +0.175 C 
ENDBRANCH  26  27
BRANCH  26  30
ATOM     29  O   UNL     1      33.921 -20.228 -20.690  0.00  0.00    -0.248 OA
ATOM     30  C   UNL     1      34.511 -19.484 -21.463  0.00  0.00    +0.342 C 
BRANCH  30  31
ATOM     31  O   UNL     1      34.501 -19.661 -22.810  0.00  0.00    -0.479 OA
ATOM     32  H   UNL     1      35.286 -19.525 -23.305  0.00  0.00    +0.295 HD
ENDBRANCH  30  31
ENDBRANCH  26  30
ENDBRANCH  25  26
ENDBRANCH   2  25
TORSDOF 10
ENDMDL
MODEL 3
REMARK VINA RESULT:     -11.0      2.987      4.669
REMARK  Name = 10274777
REMARK  10 active torsions:
REMARK  status: ('A' for Active; 'I' for Inactive)
REMARK    1  A    between atoms: C_2  and  C_25
REMARK    2  A    between atoms: C_5  and  O_10
REMARK    3  A    between atoms: O_10  and  C_11
REMARK    4  A    between atoms: C_11  and  C_12
REMARK    5  A    between atoms: C_12  and  C_15
REMARK    6  A    between atoms: C_17  and  C_19
REMARK    7  A    between atoms: C_25  and  C_26
REMARK    8  A    between atoms: C_26  and  O_27
REMARK    9  A    between atoms: C_26  and  C_30
REMARK   10  A    between atoms: C_30  and  O_31
REMARK                            x       y       z     vdW  Elec       q    Type
REMARK                         _______ _______ _______ _____ _____    ______ ____
ROOT
ATOM      1  S   UNL     1      35.675 -23.318 -14.689  0.00  0.00    -0.087 S 
ATOM      2  C   UNL     1      33.553 -23.148 -16.520  0.00  0.00    -0.013 C 
ATOM      3  C   UNL     1      34.905 -22.942 -16.185  0.00  0.00    +0.029 C 
ATOM      4  C   UNL     1      35.805 -22.376 -17.092  0.00  0.00    +0.040 C 
ATOM      5  C   UNL     1      35.324 -22.010 -18.372  0.00  0.00    +0.139 C 
ATOM      6  C   UNL     1      33.109 -22.777 -17.791  0.00  0.00    -0.001 C 
ATOM      7  C   UNL     1      33.983 -22.213 -18.709  0.00  0.00    +0.037 C 
ATOM      8  C   UNL     1      37.118 -22.267 -16.522  0.00  0.00    +0.010 C 
ATOM      9  C   UNL     1      37.183 -22.739 -15.232  0.00  0.00    +0.036 C 
ENDROOT
BRANCH   5  10
ATOM     10  O   UNL     1      36.158 -21.450 -19.308  0.00  0.00    -0.475 OA
BRANCH  10  11
ATOM     11  C   UNL     1      35.541 -20.686 -20.336  0.00  0.00    +0.213 C 
BRANCH  11  12
ATOM     12  C   UNL     1      36.411 -19.478 -20.673  0.00  0.00    +0.105 C 
BRANCH  12  15
ATOM     13  O   UNL     1      34.642 -17.362 -23.065  0.00  0.00    -0.449 OA
ATOM     14  N   UNL     1      35.404 -17.236 -20.938  0.00  0.00    -0.373 NA
ATOM     15  C   UNL     1      35.684 -18.444 -21.484  0.00  0.00    +0.134 C 
ATOM     16  C   UNL     1      35.239 -18.548 -22.757  0.00  0.00    +0.216 C 
ATOM     17  C   UNL     1      34.782 -16.630 -21.925  0.00  0.00    +0.277 C 
ATOM     18  C   UNL     1      35.257 -19.577 -23.802  0.00  0.00    +0.055 C 
BRANCH  17  19
ATOM     19  C   UNL     1      34.226 -15.306 -21.977  0.00  0.00    +0.066 C 
ATOM     20  C   UNL     1      33.356 -14.870 -20.973  0.00  0.00    +0.006 C 
ATOM     21  C   UNL     1      34.551 -14.448 -23.030  0.00  0.00    +0.006 C 
ATOM     22  C   UNL     1      32.816 -13.585 -21.023  0.00  0.00    +0.000 C 
ATOM     23  C   UNL     1      34.011 -13.162 -23.079  0.00  0.00    +0.000 C 
ATOM     24  C   UNL     1      33.144 -12.731 -22.076  0.00  0.00    +0.000 C 
ENDBRANCH  17  19
ENDBRANCH  12  15
ENDBRANCH  11  12
ENDBRANCH  10  11
ENDBRANCH   5  10
BRANCH   2  25
ATOM     25  C   UNL     1      32.567 -23.753 -15.571  0.00  0.00    +0.068 C 
BRANCH  25  26
ATOM     26  C   UNL     1      31.357 -22.842 -15.321  0.00  0.00    +0.218 C 
BRANCH  26  27
ATOM     27  O   UNL     1      31.142 -22.747 -13.918  0.00  0.00    -0.342 OA
ATOM     28  C   UNL     1      31.931 -23.691 -13.206  0.00  0.00    +0.175 C 
ENDBRANCH  26  27
BRANCH  26  30
ATOM     29  O   UNL     1      29.709 -24.570 -15.784  0.00  0.00    -0.248 OA
ATOM     30  C   UNL     1      30.098 -23.420 -15.937  0.00  0.00    +0.342 C 
BRANCH  30  31
ATOM     31  O   UNL     1      29.423 -22.503 -16.678  0.00  0.00    -0.479 OA
ATOM     32  H   UNL     1      29.895 -21.878 -17.194  0.00  0.00    +0.295 HD
ENDBRANCH  30  31
ENDBRANCH  26  30
ENDBRANCH  25  26
ENDBRANCH   2  25
TORSDOF 10
ENDMDL
MODEL 4
REMARK VINA RESULT:     -10.6      1.956      2.855
REMARK  Name = 10274777
REMARK  10 active torsions:
REMARK  status: ('A' for Active; 'I' for Inactive)
REMARK    1  A    between atoms: C_2  and  C_25
REMARK    2  A    between atoms: C_5  and  O_10
REMARK    3  A    between atoms: O_10  and  C_11
REMARK    4  A    between atoms: C_11  and  C_12
REMARK    5  A    between atoms: C_12  and  C_15
REMARK    6  A    between atoms: C_17  and  C_19
REMARK    7  A    between atoms: C_25  and  C_26
REMARK    8  A    between atoms: C_26  and  O_27
REMARK    9  A    between atoms: C_26  and  C_30
REMARK   10  A    between atoms: C_30  and  O_31
REMARK                            x       y       z     vdW  Elec       q    Type
REMARK                         _______ _______ _______ _____ _____    ______ ____
ROOT
ATOM      1  S   UNL     1      34.803 -24.520 -14.242  0.00  0.00    -0.087 S 
ATOM      2  C   UNL     1      37.385 -23.619 -14.880  0.00  0.00    -0.013 C 
ATOM      3  C   UNL     1      35.997 -23.641 -15.122  0.00  0.00    +0.029 C 
ATOM      4  C   UNL     1      35.424 -22.907 -16.164  0.00  0.00    +0.040 C 
ATOM      5  C   UNL     1      36.277 -22.129 -16.982  0.00  0.00    +0.139 C 
ATOM      6  C   UNL     1      38.200 -22.841 -15.705  0.00  0.00    -0.001 C 
ATOM      7  C   UNL     1      37.654 -22.103 -16.746  0.00  0.00    +0.037 C 
ATOM      8  C   UNL     1      34.001 -23.092 -16.208  0.00  0.00    +0.010 C 
ATOM      9  C   UNL     1      33.540 -23.938 -15.227  0.00  0.00    +0.036 C 
ENDROOT
BRANCH   5  10
ATOM     10  O   UNL     1      35.775 -21.386 -18.022  0.00  0.00    -0.475 OA
BRANCH  10  11
ATOM     11  C   UNL     1      35.956 -21.914 -19.329  0.00  0.00    +0.213 C 
BRANCH  11  12
ATOM     12  C   UNL     1      36.582 -20.854 -20.231  0.00  0.00    +0.105 C 
BRANCH  12  15
ATOM     13  O   UNL     1      33.837 -18.566 -20.976  0.00  0.00    -0.449 OA
ATOM     14  N   UNL     1      36.099 -18.553 -20.995  0.00  0.00    -0.373 NA
ATOM     15  C   UNL     1      35.624 -19.756 -20.591  0.00  0.00    +0.134 C 
ATOM     16  C   UNL     1      34.272 -19.792 -20.570  0.00  0.00    +0.216 C 
ATOM     17  C   UNL     1      34.991 -17.881 -21.211  0.00  0.00    +0.277 C 
ATOM     18  C   UNL     1      33.246 -20.785 -20.234  0.00  0.00    +0.055 C 
BRANCH  17  19
ATOM     19  C   UNL     1      34.818 -16.528 -21.661  0.00  0.00    +0.066 C 
ATOM     20  C   UNL     1      34.483 -15.522 -20.749  0.00  0.00    +0.006 C 
ATOM     21  C   UNL     1      34.981 -16.208 -23.011  0.00  0.00    +0.006 C 
ATOM     22  C   UNL     1      34.314 -14.208 -21.184  0.00  0.00    +0.000 C 
ATOM     23  C   UNL     1      34.812 -14.893 -23.447  0.00  0.00    +0.000 C 
ATOM     24  C   UNL     1      34.479 -13.893 -22.534  0.00  0.00    +0.000 C 
ENDBRANCH  17  19
ENDBRANCH  12  15
ENDBRANCH  11  12
ENDBRANCH  10  11
ENDBRANCH   5  10
BRANCH   2  25
ATOM     25  C   UNL     1      38.026 -24.392 -13.772  0.00  0.00    +0.068 C 
BRANCH  25  26
ATOM     26  C   UNL     1      38.601 -25.734 -14.249  0.00  0.00    +0.218 C 
BRANCH  26  27
ATOM     27  O   UNL     1      38.399 -26.702 -13.226  0.00  0.00    -0.342 OA
ATOM     28  C   UNL     1      37.855 -26.114 -12.053  0.00  0.00    +0.175 C 
ENDBRANCH  26  27
BRANCH  26  30
ATOM     29  O   UNL     1      40.913 -25.242 -13.676  0.00  0.00    -0.248 OA
ATOM     30  C   UNL     1      40.093 -25.635 -14.495  0.00  0.00    +0.342 C 
BRANCH  30  31
ATOM     31  O   UNL     1      40.435 -26.054 -15.741  0.00  0.00    -0.479 OA
ATOM     32  H   UNL     1      39.782 -26.413 -16.310  0.00  0.00    +0.295 HD
ENDBRANCH  30  31
ENDBRANCH  26  30
ENDBRANCH  25  26
ENDBRANCH   2  25
TORSDOF 10
ENDMDL
MODEL 5
REMARK VINA RESULT:     -10.3      6.445     13.266
REMARK  Name = 10274777
REMARK  10 active torsions:
REMARK  status: ('A' for Active; 'I' for Inactive)
REMARK    1  A    between atoms: C_2  and  C_25
REMARK    2  A    between atoms: C_5  and  O_10
REMARK    3  A    between atoms: O_10  and  C_11
REMARK    4  A    between atoms: C_11  and  C_12
REMARK    5  A    between atoms: C_12  and  C_15
REMARK    6  A    between atoms: C_17  and  C_19
REMARK    7  A    between atoms: C_25  and  C_26
REMARK    8  A    between atoms: C_26  and  O_27
REMARK    9  A    between atoms: C_26  and  C_30
REMARK   10  A    between atoms: C_30  and  O_31
REMARK                            x       y       z     vdW  Elec       q    Type
REMARK                         _______ _______ _______ _____ _____    ______ ____
ROOT
ATOM      1  S   UNL     1      31.497  -9.555 -20.190  0.00  0.00    -0.087 S 
ATOM      2  C   UNL     1      32.731 -10.078 -22.658  0.00  0.00    -0.013 C 
ATOM      3  C   UNL     1      32.213 -10.522 -21.425  0.00  0.00    +0.029 C 
ATOM      4  C   UNL     1      32.234 -11.872 -21.067  0.00  0.00    +0.040 C 
ATOM      5  C   UNL     1      32.793 -12.798 -21.980  0.00  0.00    +0.139 C 
ATOM      6  C   UNL     1      33.275 -11.016 -23.537  0.00  0.00    -0.001 C 
ATOM      7  C   UNL     1      33.307 -12.363 -23.204  0.00  0.00    +0.037 C 
ATOM      8  C   UNL     1      31.653 -12.075 -19.770  0.00  0.00    +0.010 C 
ATOM      9  C   UNL     1      31.218 -10.907 -19.190  0.00  0.00    +0.036 C 
ENDROOT
BRANCH   5  10
ATOM     10  O   UNL     1      32.842 -14.139 -21.687  0.00  0.00    -0.475 OA
BRANCH  10  11
ATOM     11  C   UNL     1      34.029 -14.611 -21.062  0.00  0.00    +0.213 C 
BRANCH  11  12
ATOM     12  C   UNL     1      34.953 -15.227 -22.109  0.00  0.00    +0.105 C 
BRANCH  12  15
ATOM     13  O   UNL     1      34.862 -18.829 -22.693  0.00  0.00    -0.449 OA
ATOM     14  N   UNL     1      34.875 -17.402 -20.938  0.00  0.00    -0.373 NA
ATOM     15  C   UNL     1      34.911 -16.728 -22.112  0.00  0.00    +0.134 C 
ATOM     16  C   UNL     1      34.905 -17.557 -23.181  0.00  0.00    +0.216 C 
ATOM     17  C   UNL     1      34.847 -18.652 -21.343  0.00  0.00    +0.277 C 
ATOM     18  C   UNL     1      34.930 -17.402 -24.639  0.00  0.00    +0.055 C 
BRANCH  17  19
ATOM     19  C   UNL     1      34.802 -19.861 -20.568  0.00  0.00    +0.066 C 
ATOM     20  C   UNL     1      33.572 -20.412 -20.195  0.00  0.00    +0.006 C 
ATOM     21  C   UNL     1      35.987 -20.494 -20.182  0.00  0.00    +0.006 C 
ATOM     22  C   UNL     1      33.527 -21.585 -19.444  0.00  0.00    +0.000 C 
ATOM     23  C   UNL     1      35.942 -21.668 -19.429  0.00  0.00    +0.000 C 
ATOM     24  C   UNL     1      34.713 -22.214 -19.060  0.00  0.00    +0.000 C 
ENDBRANCH  17  19
ENDBRANCH  12  15
ENDBRANCH  11  12
ENDBRANCH  10  11
ENDBRANCH   5  10
BRANCH   2  25
ATOM     25  C   UNL     1      32.720  -8.640 -23.069  0.00  0.00    +0.068 C 
BRANCH  25  26
ATOM     26  C   UNL     1      33.864  -7.839 -22.432  0.00  0.00    +0.218 C 
BRANCH  26  27
ATOM     27  O   UNL     1      33.342  -6.605 -21.952  0.00  0.00    -0.342 OA
ATOM     28  C   UNL     1      31.972  -6.451 -22.297  0.00  0.00    +0.175 C 
ENDBRANCH  26  27
BRANCH  26  30
ATOM     29  O   UNL     1      35.100  -6.417 -23.971  0.00  0.00    -0.248 OA
ATOM     30  C   UNL     1      34.939  -7.513 -23.450  0.00  0.00    +0.342 C 
BRANCH  30  31
ATOM     31  O   UNL     1      35.733  -8.582 -23.717  0.00  0.00    -0.479 OA
ATOM     32  H   UNL     1      36.073  -9.100 -23.013  0.00  0.00    +0.295 HD
ENDBRANCH  30  31
ENDBRANCH  26  30
ENDBRANCH  25  26
ENDBRANCH   2  25
TORSDOF 10
ENDMDL
MODEL 6
REMARK VINA RESULT:     -10.3      1.419      2.473
REMARK  Name = 10274777
REMARK  10 active torsions:
REMARK  status: ('A' for Active; 'I' for Inactive)
REMARK    1  A    between atoms: C_2  and  C_25
REMARK    2  A    between atoms: C_5  and  O_10
REMARK    3  A    between atoms: O_10  and  C_11
REMARK    4  A    between atoms: C_11  and  C_12
REMARK    5  A    between atoms: C_12  and  C_15
REMARK    6  A    between atoms: C_17  and  C_19
REMARK    7  A    between atoms: C_25  and  C_26
REMARK    8  A    between atoms: C_26  and  O_27
REMARK    9  A    between atoms: C_26  and  C_30
REMARK   10  A    between atoms: C_30  and  O_31
REMARK                            x       y       z     vdW  Elec       q    Type
REMARK                         _______ _______ _______ _____ _____    ______ ____
ROOT
ATOM      1  S   UNL     1      32.072 -23.862 -13.103  0.00  0.00    -0.087 S 
ATOM      2  C   UNL     1      34.490 -23.525 -14.490  0.00  0.00    -0.013 C 
ATOM      3  C   UNL     1      33.082 -23.534 -14.461  0.00  0.00    +0.029 C 
ATOM      4  C   UNL     1      32.325 -23.261 -15.604  0.00  0.00    +0.040 C 
ATOM      5  C   UNL     1      33.012 -22.971 -16.807  0.00  0.00    +0.139 C 
ATOM      6  C   UNL     1      35.138 -23.235 -15.693  0.00  0.00    -0.001 C 
ATOM      7  C   UNL     1      34.408 -22.961 -16.841  0.00  0.00    +0.037 C 
ATOM      8  C   UNL     1      30.919 -23.331 -15.325  0.00  0.00    +0.010 C 
ATOM      9  C   UNL     1      30.648 -23.646 -14.014  0.00  0.00    +0.036 C 
ENDROOT
BRANCH   5  10
ATOM     10  O   UNL     1      32.325 -22.694 -17.964  0.00  0.00    -0.475 OA
BRANCH  10  11
ATOM     11  C   UNL     1      32.753 -21.556 -18.702  0.00  0.00    +0.213 C 
BRANCH  11  12
ATOM     12  C   UNL     1      33.846 -21.962 -19.686  0.00  0.00    +0.105 C 
BRANCH  12  15
ATOM     13  O   UNL     1      36.170 -19.336 -20.702  0.00  0.00    -0.449 OA
ATOM     14  N   UNL     1      33.991 -19.869 -20.994  0.00  0.00    -0.373 NA
ATOM     15  C   UNL     1      34.616 -20.788 -20.218  0.00  0.00    +0.134 C 
ATOM     16  C   UNL     1      35.923 -20.494 -20.027  0.00  0.00    +0.216 C 
ATOM     17  C   UNL     1      34.965 -19.025 -21.254  0.00  0.00    +0.277 C 
ATOM     18  C   UNL     1      37.047 -21.100 -19.307  0.00  0.00    +0.055 C 
BRANCH  17  19
ATOM     19  C   UNL     1      34.943 -17.821 -22.037  0.00  0.00    +0.066 C 
ATOM     20  C   UNL     1      34.845 -16.576 -21.408  0.00  0.00    +0.006 C 
ATOM     21  C   UNL     1      35.020 -17.886 -23.431  0.00  0.00    +0.006 C 
ATOM     22  C   UNL     1      34.824 -15.406 -22.167  0.00  0.00    +0.000 C 
ATOM     23  C   UNL     1      34.998 -16.716 -24.190  0.00  0.00    +0.000 C 
ATOM     24  C   UNL     1      34.900 -15.476 -23.559  0.00  0.00    +0.000 C 
ENDBRANCH  17  19
ENDBRANCH  12  15
ENDBRANCH  11  12
ENDBRANCH  10  11
ENDBRANCH   5  10
BRANCH   2  25
ATOM     25  C   UNL     1      35.326 -23.812 -13.283  0.00  0.00    +0.068 C 
BRANCH  25  26
ATOM     26  C   UNL     1      36.072 -25.149 -13.390  0.00  0.00    +0.218 C 
BRANCH  26  27
ATOM     27  O   UNL     1      36.280 -25.658 -12.077  0.00  0.00    -0.342 OA
ATOM     28  C   UNL     1      35.813 -24.752 -11.087  0.00  0.00    +0.175 C 
ENDBRANCH  26  27
BRANCH  26  30
ATOM     29  O   UNL     1      38.312 -24.226 -13.608  0.00  0.00    -0.248 OA
ATOM     30  C   UNL     1      37.434 -24.967 -14.029  0.00  0.00    +0.342 C 
BRANCH  30  31
ATOM     31  O   UNL     1      37.590 -25.744 -15.132  0.00  0.00    -0.479 OA
ATOM     32  H   UNL     1      38.010 -25.396 -15.895  0.00  0.00    +0.295 HD
ENDBRANCH  30  31
ENDBRANCH  26  30
ENDBRANCH  25  26
ENDBRANCH   2  25
TORSDOF 10
ENDMDL
MODEL 7
REMARK VINA RESULT:     -10.2      6.905     13.776
REMARK  Name = 10274777
REMARK  10 active torsions:
REMARK  status: ('A' for Active; 'I' for Inactive)
REMARK    1  A    between atoms: C_2  and  C_25
REMARK    2  A    between atoms: C_5  and  O_10
REMARK    3  A    between atoms: O_10  and  C_11
REMARK    4  A    between atoms: C_11  and  C_12
REMARK    5  A    between atoms: C_12  and  C_15
REMARK    6  A    between atoms: C_17  and  C_19
REMARK    7  A    between atoms: C_25  and  C_26
REMARK    8  A    between atoms: C_26  and  O_27
REMARK    9  A    between atoms: C_26  and  C_30
REMARK   10  A    between atoms: C_30  and  O_31
REMARK                            x       y       z     vdW  Elec       q    Type
REMARK                         _______ _______ _______ _____ _____    ______ ____
ROOT
ATOM      1  S   UNL     1      31.644  -9.169 -19.495  0.00  0.00    -0.087 S 
ATOM      2  C   UNL     1      32.803  -9.111 -22.052  0.00  0.00    -0.013 C 
ATOM      3  C   UNL     1      32.234  -9.822 -20.977  0.00  0.00    +0.029 C 
ATOM      4  C   UNL     1      32.086 -11.211 -21.016  0.00  0.00    +0.040 C 
ATOM      5  C   UNL     1      32.525 -11.899 -22.173  0.00  0.00    +0.139 C 
ATOM      6  C   UNL     1      33.226  -9.818 -23.179  0.00  0.00    -0.001 C 
ATOM      7  C   UNL     1      33.090 -11.198 -23.241  0.00  0.00    +0.037 C 
ATOM      8  C   UNL     1      31.484 -11.704 -19.809  0.00  0.00    +0.010 C 
ATOM      9  C   UNL     1      31.198 -10.706 -18.908  0.00  0.00    +0.036 C 
ENDROOT
BRANCH   5  10
ATOM     10  O   UNL     1      32.408 -13.263 -22.272  0.00  0.00    -0.475 OA
BRANCH  10  11
ATOM     11  C   UNL     1      33.334 -14.039 -21.523  0.00  0.00    +0.213 C 
BRANCH  11  12
ATOM     12  C   UNL     1      34.519 -14.419 -22.407  0.00  0.00    +0.105 C 
BRANCH  12  15
ATOM     13  O   UNL     1      35.097 -17.956 -23.103  0.00  0.00    -0.449 OA
ATOM     14  N   UNL     1      34.849 -16.607 -21.304  0.00  0.00    -0.373 NA
ATOM     15  C   UNL     1      34.757 -15.901 -22.457  0.00  0.00    +0.134 C 
ATOM     16  C   UNL     1      34.902 -16.684 -23.550  0.00  0.00    +0.216 C 
ATOM     17  C   UNL     1      35.052 -17.828 -21.748  0.00  0.00    +0.277 C 
ATOM     18  C   UNL     1      34.894 -16.481 -25.003  0.00  0.00    +0.055 C 
BRANCH  17  19
ATOM     19  C   UNL     1      35.234 -19.048 -21.012  0.00  0.00    +0.066 C 
ATOM     20  C   UNL     1      34.127 -19.818 -20.643  0.00  0.00    +0.006 C 
ATOM     21  C   UNL     1      36.518 -19.472 -20.659  0.00  0.00    +0.006 C 
ATOM     22  C   UNL     1      34.302 -21.002 -19.928  0.00  0.00    +0.000 C 
ATOM     23  C   UNL     1      36.693 -20.657 -19.943  0.00  0.00    +0.000 C 
ATOM     24  C   UNL     1      35.586 -21.422 -19.578  0.00  0.00    +0.000 C 
ENDBRANCH  17  19
ENDBRANCH  12  15
ENDBRANCH  11  12
ENDBRANCH  10  11
ENDBRANCH   5  10
BRANCH   2  25
ATOM     25  C   UNL     1      32.972  -7.625 -22.040  0.00  0.00    +0.068 C 
BRANCH  25  26
ATOM     26  C   UNL     1      31.722  -6.887 -22.540  0.00  0.00    +0.218 C 
BRANCH  26  27
ATOM     27  O   UNL     1      32.045  -6.219 -23.754  0.00  0.00    -0.342 OA
ATOM     28  C   UNL     1      33.449  -6.073 -23.910  0.00  0.00    +0.175 C 
ENDBRANCH  26  27
BRANCH  26  30
ATOM     29  O   UNL     1      30.179  -5.284 -21.557  0.00  0.00    -0.248 OA
ATOM     30  C   UNL     1      31.272  -5.835 -21.546  0.00  0.00    +0.342 C 
BRANCH  30  31
ATOM     31  O   UNL     1      32.221  -5.574 -20.611  0.00  0.00    -0.479 OA
ATOM     32  H   UNL     1      33.019  -6.067 -20.603  0.00  0.00    +0.295 HD
ENDBRANCH  30  31
ENDBRANCH  26  30
ENDBRANCH  25  26
ENDBRANCH   2  25
TORSDOF 10
ENDMDL
MODEL 8
REMARK VINA RESULT:     -10.2      6.558     12.941
REMARK  Name = 10274777
REMARK  10 active torsions:
REMARK  status: ('A' for Active; 'I' for Inactive)
REMARK    1  A    between atoms: C_2  and  C_25
REMARK    2  A    between atoms: C_5  and  O_10
REMARK    3  A    between atoms: O_10  and  C_11
REMARK    4  A    between atoms: C_11  and  C_12
REMARK    5  A    between atoms: C_12  and  C_15
REMARK    6  A    between atoms: C_17  and  C_19
REMARK    7  A    between atoms: C_25  and  C_26
REMARK    8  A    between atoms: C_26  and  O_27
REMARK    9  A    between atoms: C_26  and  C_30
REMARK   10  A    between atoms: C_30  and  O_31
REMARK                            x       y       z     vdW  Elec       q    Type
REMARK                         _______ _______ _______ _____ _____    ______ ____
ROOT
ATOM      1  S   UNL     1      34.074  -8.644 -23.493  0.00  0.00    -0.087 S 
ATOM      2  C   UNL     1      32.375 -10.507 -22.258  0.00  0.00    -0.013 C 
ATOM      3  C   UNL     1      33.451 -10.206 -23.115  0.00  0.00    +0.029 C 
ATOM      4  C   UNL     1      34.159 -11.211 -23.782  0.00  0.00    +0.040 C 
ATOM      5  C   UNL     1      33.767 -12.555 -23.574  0.00  0.00    +0.139 C 
ATOM      6  C   UNL     1      32.013 -11.843 -22.075  0.00  0.00    -0.001 C 
ATOM      7  C   UNL     1      32.700 -12.858 -22.725  0.00  0.00    +0.037 C 
ATOM      8  C   UNL     1      35.206 -10.658 -24.594  0.00  0.00    +0.010 C 
ATOM      9  C   UNL     1      35.267  -9.286 -24.527  0.00  0.00    +0.036 C 
ENDROOT
BRANCH   5  10
ATOM     10  O   UNL     1      34.422 -13.587 -24.200  0.00  0.00    -0.475 OA
BRANCH  10  11
ATOM     11  C   UNL     1      33.832 -14.876 -24.090  0.00  0.00    +0.213 C 
BRANCH  11  12
ATOM     12  C   UNL     1      34.925 -15.934 -23.971  0.00  0.00    +0.105 C 
BRANCH  12  15
ATOM     13  O   UNL     1      34.754 -17.201 -20.552  0.00  0.00    -0.449 OA
ATOM     14  N   UNL     1      35.006 -18.020 -22.646  0.00  0.00    -0.373 NA
ATOM     15  C   UNL     1      34.883 -16.670 -22.663  0.00  0.00    +0.134 C 
ATOM     16  C   UNL     1      34.731 -16.153 -21.422  0.00  0.00    +0.216 C 
ATOM     17  C   UNL     1      34.922 -18.284 -21.361  0.00  0.00    +0.277 C 
ATOM     18  C   UNL     1      34.561 -14.814 -20.850  0.00  0.00    +0.055 C 
BRANCH  17  19
ATOM     19  C   UNL     1      34.981 -19.550 -20.684  0.00  0.00    +0.066 C 
ATOM     20  C   UNL     1      36.218 -20.122 -20.372  0.00  0.00    +0.006 C 
ATOM     21  C   UNL     1      33.805 -20.217 -20.335  0.00  0.00    +0.006 C 
ATOM     22  C   UNL     1      36.278 -21.350 -19.715  0.00  0.00    +0.000 C 
ATOM     23  C   UNL     1      33.864 -21.447 -19.678  0.00  0.00    +0.000 C 
ATOM     24  C   UNL     1      35.100 -22.014 -19.368  0.00  0.00    +0.000 C 
ENDBRANCH  17  19
ENDBRANCH  12  15
ENDBRANCH  11  12
ENDBRANCH  10  11
ENDBRANCH   5  10
BRANCH   2  25
ATOM     25  C   UNL     1      31.601  -9.454 -21.531  0.00  0.00    +0.068 C 
BRANCH  25  26
ATOM     26  C   UNL     1      32.261  -9.050 -20.206  0.00  0.00    +0.218 C 
BRANCH  26  27
ATOM     27  O   UNL     1      31.395  -9.415 -19.137  0.00  0.00    -0.342 OA
ATOM     28  C   UNL     1      31.645 -10.741 -18.695  0.00  0.00    +0.175 C 
ENDBRANCH  26  27
BRANCH  26  30
ATOM     29  O   UNL     1      31.781  -6.719 -20.710  0.00  0.00    -0.248 OA
ATOM     30  C   UNL     1      32.469  -7.550 -20.132  0.00  0.00    +0.342 C 
BRANCH  30  31
ATOM     31  O   UNL     1      33.509  -7.216 -19.325  0.00  0.00    -0.479 OA
ATOM     32  H   UNL     1      34.277  -7.755 -19.303  0.00  0.00    +0.295 HD
ENDBRANCH  30  31
ENDBRANCH  26  30
ENDBRANCH  25  26
ENDBRANCH   2  25
TORSDOF 10
ENDMDL
MODEL 9
REMARK VINA RESULT:     -10.2      6.620     13.141
REMARK  Name = 10274777
REMARK  10 active torsions:
REMARK  status: ('A' for Active; 'I' for Inactive)
REMARK    1  A    between atoms: C_2  and  C_25
REMARK    2  A    between atoms: C_5  and  O_10
REMARK    3  A    between atoms: O_10  and  C_11
REMARK    4  A    between atoms: C_11  and  C_12
REMARK    5  A    between atoms: C_12  and  C_15
REMARK    6  A    between atoms: C_17  and  C_19
REMARK    7  A    between atoms: C_25  and  C_26
REMARK    8  A    between atoms: C_26  and  O_27
REMARK    9  A    between atoms: C_26  and  C_30
REMARK   10  A    between atoms: C_30  and  O_31
REMARK                            x       y       z     vdW  Elec       q    Type
REMARK                         _______ _______ _______ _____ _____    ______ ____
ROOT
ATOM      1  S   UNL     1      33.682 -10.071 -24.165  0.00  0.00    -0.087 S 
ATOM      2  C   UNL     1      31.917 -10.100 -21.981  0.00  0.00    -0.013 C 
ATOM      3  C   UNL     1      32.815 -10.759 -22.843  0.00  0.00    +0.029 C 
ATOM      4  C   UNL     1      33.104 -12.119 -22.699  0.00  0.00    +0.040 C 
ATOM      5  C   UNL     1      32.467 -12.830 -21.653  0.00  0.00    +0.139 C 
ATOM      6  C   UNL     1      31.306 -10.830 -20.959  0.00  0.00    -0.001 C 
ATOM      7  C   UNL     1      31.576 -12.181 -20.795  0.00  0.00    +0.037 C 
ATOM      8  C   UNL     1      34.041 -12.560 -23.692  0.00  0.00    +0.010 C 
ATOM      9  C   UNL     1      34.432 -11.554 -24.544  0.00  0.00    +0.036 C 
ENDROOT
BRANCH   5  10
ATOM     10  O   UNL     1      32.709 -14.168 -21.459  0.00  0.00    -0.475 OA
BRANCH  10  11
ATOM     11  C   UNL     1      33.950 -14.510 -20.855  0.00  0.00    +0.213 C 
BRANCH  11  12
ATOM     12  C   UNL     1      34.900 -15.067 -21.912  0.00  0.00    +0.105 C 
BRANCH  12  15
ATOM     13  O   UNL     1      34.880 -18.642 -22.647  0.00  0.00    -0.449 OA
ATOM     14  N   UNL     1      34.836 -17.291 -20.834  0.00  0.00    -0.373 NA
ATOM     15  C   UNL     1      34.883 -16.567 -21.978  0.00  0.00    +0.134 C 
ATOM     16  C   UNL     1      34.910 -17.351 -23.080  0.00  0.00    +0.216 C 
ATOM     17  C   UNL     1      34.836 -18.523 -21.291  0.00  0.00    +0.277 C 
ATOM     18  C   UNL     1      34.960 -17.134 -24.530  0.00  0.00    +0.055 C 
BRANCH  17  19
ATOM     19  C   UNL     1      34.797 -19.764 -20.569  0.00  0.00    +0.066 C 
ATOM     20  C   UNL     1      35.986 -20.399 -20.198  0.00  0.00    +0.006 C 
ATOM     21  C   UNL     1      33.571 -20.345 -20.233  0.00  0.00    +0.006 C 
ATOM     22  C   UNL     1      35.950 -21.604 -19.497  0.00  0.00    +0.000 C 
ATOM     23  C   UNL     1      33.534 -21.550 -19.532  0.00  0.00    +0.000 C 
ATOM     24  C   UNL     1      34.723 -22.180 -19.164  0.00  0.00    +0.000 C 
ENDBRANCH  17  19
ENDBRANCH  12  15
ENDBRANCH  11  12
ENDBRANCH  10  11
ENDBRANCH   5  10
BRANCH   2  25
ATOM     25  C   UNL     1      31.590  -8.647 -22.110  0.00  0.00    +0.068 C 
BRANCH  25  26
ATOM     26  C   UNL     1      31.821  -7.874 -20.804  0.00  0.00    +0.218 C 
BRANCH  26  27
ATOM     27  O   UNL     1      31.077  -6.662 -20.857  0.00  0.00    -0.342 OA
ATOM     28  C   UNL     1      30.872  -6.235 -22.196  0.00  0.00    +0.175 C 
ENDBRANCH  26  27
BRANCH  26  30
ATOM     29  O   UNL     1      34.093  -7.425 -21.548  0.00  0.00    -0.248 OA
ATOM     30  C   UNL     1      33.281  -7.505 -20.636  0.00  0.00    +0.342 C 
BRANCH  30  31
ATOM     31  O   UNL     1      33.599  -7.250 -19.340  0.00  0.00    -0.479 OA
ATOM     32  H   UNL     1      34.208  -7.803 -18.889  0.00  0.00    +0.295 HD
ENDBRANCH  30  31
ENDBRANCH  26  30
ENDBRANCH  25  26
ENDBRANCH   2  25
TORSDOF 10
ENDMDL
